MODEL 1
REMARK VINA RESULT:      -7.5      0.000      0.000
REMARK  Name = 
REMARK  6 active torsions:
REMARK  status: ('A' for Active; 'I' for Inactive)
REMARK    1  A    between atoms: O5*_1  and  C5*_2
REMARK    2  A    between atoms: C5*_2  and  C4*_3
REMARK    3  A    between atoms: C1*_5  and  N_6
REMARK    4  A    between atoms: C_10  and  C_11
REMARK    5  A    between atoms: C_12  and  N_13
REMARK    6  A    between atoms: C3*_24  and  O3*_25
REMARK                            x       y       z     vdW  Elec       q    Type
REMARK                         _______ _______ _______ _____ _____    ______ ____
ROOT
ATOM      1  N   UNL     1       4.617   5.633  17.473  0.00  0.00    +0.000 N 
ATOM      2  C   UNL     1       4.490   6.690  16.612  0.00  0.00    +0.000 A 
ATOM      3  N   UNL     1       5.530   7.499  16.663  0.00  0.00    +0.000 NA
ATOM      4  C   UNL     1       6.373   6.936  17.603  0.00  0.00    +0.000 A 
ATOM      5  C   UNL     1       7.624   7.304  18.114  0.00  0.00    +0.000 A 
ATOM      6  N   UNL     1       8.213   6.527  19.059  0.00  0.00    +0.000 NA
ATOM      7  C   UNL     1       7.553   5.419  19.462  0.00  0.00    +0.000 A 
ATOM      8  N   UNL     1       6.356   4.958  19.042  0.00  0.00    +0.000 NA
ATOM      9  C   UNL     1       5.821   5.772  18.115  0.00  0.00    +0.000 A 
ENDROOT
BRANCH   1  12
ATOM     10  C4* UNL     1       3.296   2.926  19.328  0.00  0.00    +0.000 C 
ATOM     11  O4* UNL     1       3.382   4.342  19.046  0.00  0.00    +0.000 OA
ATOM     12  C1* UNL     1       3.702   4.522  17.647  0.00  0.00    +0.000 C 
ATOM     13  C2* UNL     1       4.217   3.191  17.129  0.00  0.00    +0.000 C 
ATOM     14  C3* UNL     1       3.499   2.194  18.004  0.00  0.00    +0.000 C 
BRANCH  14  15
ATOM     15  O3* UNL     1       2.234   1.872  17.411  0.00  0.00    +0.000 OA
ATOM     16  H3* UNL     1       2.340   1.105  16.822  0.00  0.00    +0.000 HD
ENDBRANCH  14  15
BRANCH  10  17
ATOM     17  C5* UNL     1       4.314   2.545  20.408  0.00  0.00    +0.000 C 
BRANCH  17  18
ATOM     18  O5* UNL     1       5.200   1.527  19.956  0.00  0.00    +0.000 OA
ATOM     19  H5* UNL     1       5.317   0.906  20.698  0.00  0.00    +0.000 HD
ENDBRANCH  17  18
ENDBRANCH  10  17
ENDBRANCH   1  12
BRANCH   5  20
ATOM     20  C   UNL     1       8.270   8.523  17.626  0.00  0.00    +0.000 C 
ATOM     21  C   UNL     1       8.500   9.621  18.359  0.00  0.00    +0.000 C 
BRANCH  21  22
ATOM     22  N   UNL     1       9.085  10.824  17.981  0.00  0.00    +0.000 N 
ATOM     23  C   UNL     1      10.543  10.980  17.873  0.00  0.00    +0.000 C 
ATOM     24  C   UNL     1      11.015  12.117  18.780  0.00  0.00    +0.000 C 
ATOM     25  C   UNL     1      10.254  13.413  18.501  0.00  0.00    +0.000 C 
ATOM     26  C   UNL     1       8.746  13.180  18.550  0.00  0.00    +0.000 C 
ATOM     27  C   UNL     1       8.336  12.036  17.623  0.00  0.00    +0.000 C 
ENDBRANCH  21  22
ENDBRANCH   5  20
TORSDOF 6
ENDMDL
MODEL 2
REMARK VINA RESULT:      -7.4      1.112      1.571
REMARK  Name = 
REMARK  6 active torsions:
REMARK  status: ('A' for Active; 'I' for Inactive)
REMARK    1  A    between atoms: O5*_1  and  C5*_2
REMARK    2  A    between atoms: C5*_2  and  C4*_3
REMARK    3  A    between atoms: C1*_5  and  N_6
REMARK    4  A    between atoms: C_10  and  C_11
REMARK    5  A    between atoms: C_12  and  N_13
REMARK    6  A    between atoms: C3*_24  and  O3*_25
REMARK                            x       y       z     vdW  Elec       q    Type
REMARK                         _______ _______ _______ _____ _____    ______ ____
ROOT
ATOM      1  N   UNL     1       5.335   5.160  17.234  0.00  0.00    +0.000 N 
ATOM      2  C   UNL     1       4.997   6.140  16.341  0.00  0.00    +0.000 A 
ATOM      3  N   UNL     1       5.774   7.201  16.452  0.00  0.00    +0.000 NA
ATOM      4  C   UNL     1       6.660   6.889  17.466  0.00  0.00    +0.000 A 
ATOM      5  C   UNL     1       7.721   7.583  18.062  0.00  0.00    +0.000 A 
ATOM      6  N   UNL     1       8.420   6.996  19.067  0.00  0.00    +0.000 NA
ATOM      7  C   UNL     1       8.052   5.752  19.446  0.00  0.00    +0.000 A 
ATOM      8  N   UNL     1       7.061   4.984  18.947  0.00  0.00    +0.000 NA
ATOM      9  C   UNL     1       6.402   5.621  17.962  0.00  0.00    +0.000 A 
ENDROOT
BRANCH   1  12
ATOM     10  C4* UNL     1       2.554   2.993  17.528  0.00  0.00    +0.000 C 
ATOM     11  O4* UNL     1       3.445   3.804  16.727  0.00  0.00    +0.000 OA
ATOM     12  C1* UNL     1       4.743   3.843  17.365  0.00  0.00    +0.000 C 
ATOM     13  C2* UNL     1       4.554   3.374  18.797  0.00  0.00    +0.000 C 
ATOM     14  C3* UNL     1       3.378   2.436  18.686  0.00  0.00    +0.000 C 
BRANCH  14  15
ATOM     15  O3* UNL     1       3.853   1.119  18.376  0.00  0.00    +0.000 OA
ATOM     16  H3* UNL     1       4.066   1.069  17.427  0.00  0.00    +0.000 HD
ENDBRANCH  14  15
BRANCH  10  17
ATOM     17  C5* UNL     1       1.346   3.824  17.970  0.00  0.00    +0.000 C 
BRANCH  17  18
ATOM     18  O5* UNL     1       1.265   3.915  19.388  0.00  0.00    +0.000 OA
ATOM     19  H5* UNL     1       0.377   3.599  19.640  0.00  0.00    +0.000 HD
ENDBRANCH  17  18
ENDBRANCH  10  17
ENDBRANCH   1  12
BRANCH   5  20
ATOM     20  C   UNL     1       8.051   8.930  17.596  0.00  0.00    +0.000 C 
ATOM     21  C   UNL     1       8.817   9.809  18.256  0.00  0.00    +0.000 C 
BRANCH  21  22
ATOM     22  N   UNL     1       9.168  11.107  17.904  0.00  0.00    +0.000 N 
ATOM     23  C   UNL     1      10.572  11.538  17.818  0.00  0.00    +0.000 C 
ATOM     24  C   UNL     1      10.811  12.728  18.748  0.00  0.00    +0.000 C 
ATOM     25  C   UNL     1       9.821  13.861  18.479  0.00  0.00    +0.000 C 
ATOM     26  C   UNL     1       8.384  13.346  18.504  0.00  0.00    +0.000 C 
ATOM     27  C   UNL     1       8.208  12.162  17.555  0.00  0.00    +0.000 C 
ENDBRANCH  21  22
ENDBRANCH   5  20
TORSDOF 6
ENDMDL
MODEL 3
REMARK VINA RESULT:      -7.2      4.970      6.812
REMARK  Name = 
REMARK  6 active torsions:
REMARK  status: ('A' for Active; 'I' for Inactive)
REMARK    1  A    between atoms: O5*_1  and  C5*_2
REMARK    2  A    between atoms: C5*_2  and  C4*_3
REMARK    3  A    between atoms: C1*_5  and  N_6
REMARK    4  A    between atoms: C_10  and  C_11
REMARK    5  A    between atoms: C_12  and  N_13
REMARK    6  A    between atoms: C3*_24  and  O3*_25
REMARK                            x       y       z     vdW  Elec       q    Type
REMARK                         _______ _______ _______ _____ _____    ______ ____
ROOT
ATOM      1  N   UNL     1       5.216   4.847  15.627  0.00  0.00    +0.000 N 
ATOM      2  C   UNL     1       5.263   6.212  15.708  0.00  0.00    +0.000 A 
ATOM      3  N   UNL     1       4.646   6.666  16.782  0.00  0.00    +0.000 NA
ATOM      4  C   UNL     1       4.179   5.536  17.429  0.00  0.00    +0.000 A 
ATOM      5  C   UNL     1       3.451   5.336  18.608  0.00  0.00    +0.000 A 
ATOM      6  N   UNL     1       3.131   4.073  18.988  0.00  0.00    +0.000 NA
ATOM      7  C   UNL     1       3.540   3.056  18.198  0.00  0.00    +0.000 A 
ATOM      8  N   UNL     1       4.249   3.121  17.051  0.00  0.00    +0.000 NA
ATOM      9  C   UNL     1       4.528   4.395  16.724  0.00  0.00    +0.000 A 
ENDROOT
BRANCH   1  12
ATOM     10  C4* UNL     1       7.524   4.263  13.009  0.00  0.00    +0.000 C 
ATOM     11  O4* UNL     1       7.212   4.373  14.418  0.00  0.00    +0.000 OA
ATOM     12  C1* UNL     1       5.829   4.002  14.620  0.00  0.00    +0.000 C 
ATOM     13  C2* UNL     1       5.149   4.040  13.263  0.00  0.00    +0.000 C 
ATOM     14  C3* UNL     1       6.279   3.717  12.317  0.00  0.00    +0.000 C 
BRANCH  14  15
ATOM     15  O3* UNL     1       6.374   2.294  12.167  0.00  0.00    +0.000 OA
ATOM     16  H3* UNL     1       7.017   1.944  12.809  0.00  0.00    +0.000 HD
ENDBRANCH  14  15
BRANCH  10  17
ATOM     17  C5* UNL     1       7.987   5.621  12.470  0.00  0.00    +0.000 C 
BRANCH  17  18
ATOM     18  O5* UNL     1       9.084   6.134  13.218  0.00  0.00    +0.000 OA
ATOM     19  H5* UNL     1       8.718   6.484  14.051  0.00  0.00    +0.000 HD
ENDBRANCH  17  18
ENDBRANCH  10  17
ENDBRANCH   1  12
BRANCH   5  20
ATOM     20  C   UNL     1       3.042   6.493  19.405  0.00  0.00    +0.000 C 
ATOM     21  C   UNL     1       2.017   7.307  19.114  0.00  0.00    +0.000 C 
BRANCH  21  22
ATOM     22  N   UNL     1       1.568   8.433  19.796  0.00  0.00    +0.000 N 
ATOM     23  C   UNL     1       1.349   8.427  21.250  0.00  0.00    +0.000 C 
ATOM     24  C   UNL     1      -0.096   8.816  21.562  0.00  0.00    +0.000 C 
ATOM     25  C   UNL     1      -0.475  10.144  20.908  0.00  0.00    +0.000 C 
ATOM     26  C   UNL     1      -0.159  10.124  19.414  0.00  0.00    +0.000 C 
ATOM     27  C   UNL     1       1.297   9.732  19.166  0.00  0.00    +0.000 C 
ENDBRANCH  21  22
ENDBRANCH   5  20
TORSDOF 6
ENDMDL
MODEL 4
REMARK VINA RESULT:      -7.2      6.204      7.462
REMARK  Name = 
REMARK  6 active torsions:
REMARK  status: ('A' for Active; 'I' for Inactive)
REMARK    1  A    between atoms: O5*_1  and  C5*_2
REMARK    2  A    between atoms: C5*_2  and  C4*_3
REMARK    3  A    between atoms: C1*_5  and  N_6
REMARK    4  A    between atoms: C_10  and  C_11
REMARK    5  A    between atoms: C_12  and  N_13
REMARK    6  A    between atoms: C3*_24  and  O3*_25
REMARK                            x       y       z     vdW  Elec       q    Type
REMARK                         _______ _______ _______ _____ _____    ______ ____
ROOT
ATOM      1  N   UNL     1       2.591   6.380  19.362  0.00  0.00    +0.000 N 
ATOM      2  C   UNL     1       2.046   6.197  20.604  0.00  0.00    +0.000 A 
ATOM      3  N   UNL     1       1.385   7.262  21.018  0.00  0.00    +0.000 NA
ATOM      4  C   UNL     1       1.508   8.178  19.990  0.00  0.00    +0.000 A 
ATOM      5  C   UNL     1       1.044   9.487  19.809  0.00  0.00    +0.000 A 
ATOM      6  N   UNL     1       1.342  10.148  18.661  0.00  0.00    +0.000 NA
ATOM      7  C   UNL     1       2.080   9.497  17.735  0.00  0.00    +0.000 A 
ATOM      8  N   UNL     1       2.574   8.243  17.789  0.00  0.00    +0.000 NA
ATOM      9  C   UNL     1       2.254   7.644  18.950  0.00  0.00    +0.000 A 
ENDROOT
BRANCH   1  12
ATOM     10  C4* UNL     1       3.980   3.169  18.838  0.00  0.00    +0.000 C 
ATOM     11  O4* UNL     1       2.852   4.076  18.827  0.00  0.00    +0.000 OA
ATOM     12  C1* UNL     1       3.332   5.416  18.573  0.00  0.00    +0.000 C 
ATOM     13  C2* UNL     1       4.830   5.412  18.822  0.00  0.00    +0.000 C 
ATOM     14  C3* UNL     1       5.217   3.992  18.491  0.00  0.00    +0.000 C 
BRANCH  14  15
ATOM     15  O3* UNL     1       5.506   3.897  17.090  0.00  0.00    +0.000 OA
ATOM     16  H3* UNL     1       6.215   4.524  16.864  0.00  0.00    +0.000 HD
ENDBRANCH  14  15
BRANCH  10  17
ATOM     17  C5* UNL     1       4.067   2.459  20.193  0.00  0.00    +0.000 C 
BRANCH  17  18
ATOM     18  O5* UNL     1       5.183   1.578  20.251  0.00  0.00    +0.000 OA
ATOM     19  H5* UNL     1       4.885   0.778  20.722  0.00  0.00    +0.000 HD
ENDBRANCH  17  18
ENDBRANCH  10  17
ENDBRANCH   1  12
BRANCH   5  20
ATOM     20  C   UNL     1       0.254  10.121  20.865  0.00  0.00    +0.000 C 
ATOM     21  C   UNL     1       0.259  11.431  21.152  0.00  0.00    +0.000 C 
BRANCH  21  22
ATOM     22  N   UNL     1      -0.439  12.117  22.140  0.00  0.00    +0.000 N 
ATOM     23  C   UNL     1      -1.302  11.424  23.107  0.00  0.00    +0.000 C 
ATOM     24  C   UNL     1      -2.723  11.982  23.032  0.00  0.00    +0.000 C 
ATOM     25  C   UNL     1      -2.741  13.501  23.198  0.00  0.00    +0.000 C 
ATOM     26  C   UNL     1      -1.772  14.167  22.223  0.00  0.00    +0.000 C 
ATOM     27  C   UNL     1      -0.372  13.569  22.347  0.00  0.00    +0.000 C 
ENDBRANCH  21  22
ENDBRANCH   5  20
TORSDOF 6
ENDMDL
MODEL 5
REMARK VINA RESULT:      -7.2      5.536      7.903
REMARK  Name = 
REMARK  6 active torsions:
REMARK  status: ('A' for Active; 'I' for Inactive)
REMARK    1  A    between atoms: O5*_1  and  C5*_2
REMARK    2  A    between atoms: C5*_2  and  C4*_3
REMARK    3  A    between atoms: C1*_5  and  N_6
REMARK    4  A    between atoms: C_10  and  C_11
REMARK    5  A    between atoms: C_12  and  N_13
REMARK    6  A    between atoms: C3*_24  and  O3*_25
REMARK                            x       y       z     vdW  Elec       q    Type
REMARK                         _______ _______ _______ _____ _____    ______ ____
ROOT
ATOM      1  N   UNL     1       1.332   9.992  19.191  0.00  0.00    +0.000 N 
ATOM      2  C   UNL     1       1.923   9.974  17.957  0.00  0.00    +0.000 A 
ATOM      3  N   UNL     1       2.437   8.793  17.670  0.00  0.00    +0.000 NA
ATOM      4  C   UNL     1       2.161   8.008  18.774  0.00  0.00    +0.000 A 
ATOM      5  C   UNL     1       2.436   6.673  19.096  0.00  0.00    +0.000 A 
ATOM      6  N   UNL     1       2.029   6.178  20.292  0.00  0.00    +0.000 NA
ATOM      7  C   UNL     1       1.365   7.011  21.124  0.00  0.00    +0.000 A 
ATOM      8  N   UNL     1       1.035   8.304  20.925  0.00  0.00    +0.000 NA
ATOM      9  C   UNL     1       1.471   8.738  19.729  0.00  0.00    +0.000 A 
ENDROOT
BRANCH   1  12
ATOM     10  C4* UNL     1      -0.300  11.512  21.937  0.00  0.00    +0.000 C 
ATOM     11  O4* UNL     1       0.908  11.145  21.230  0.00  0.00    +0.000 OA
ATOM     12  C1* UNL     1       0.623  11.093  19.813  0.00  0.00    +0.000 C 
ATOM     13  C2* UNL     1      -0.887  11.039  19.660  0.00  0.00    +0.000 C 
ATOM     14  C3* UNL     1      -1.371  11.778  20.883  0.00  0.00    +0.000 C 
BRANCH  14  15
ATOM     15  O3* UNL     1      -1.446  13.179  20.587  0.00  0.00    +0.000 OA
ATOM     16  H3* UNL     1      -2.350  13.400  20.300  0.00  0.00    +0.000 HD
ENDBRANCH  14  15
BRANCH  10  17
ATOM     17  C5* UNL     1      -0.674  10.414  22.938  0.00  0.00    +0.000 C 
BRANCH  17  18
ATOM     18  O5* UNL     1       0.482   9.796  23.493  0.00  0.00    +0.000 OA
ATOM     19  H5* UNL     1       0.326   9.717  24.452  0.00  0.00    +0.000 HD
ENDBRANCH  17  18
ENDBRANCH  10  17
ENDBRANCH   1  12
BRANCH   5  20
ATOM     20  C   UNL     1       3.165   5.839  18.140  0.00  0.00    +0.000 C 
ATOM     21  C   UNL     1       4.493   5.653  18.132  0.00  0.00    +0.000 C 
BRANCH  21  22
ATOM     22  N   UNL     1       5.270   4.900  17.260  0.00  0.00    +0.000 N 
ATOM     23  C   UNL     1       6.736   4.850  17.368  0.00  0.00    +0.000 C 
ATOM     24  C   UNL     1       7.372   5.302  16.053  0.00  0.00    +0.000 C 
ATOM     25  C   UNL     1       6.834   4.507  14.864  0.00  0.00    +0.000 C 
ATOM     26  C   UNL     1       5.307   4.527  14.841  0.00  0.00    +0.000 C 
ATOM     27  C   UNL     1       4.732   4.064  16.179  0.00  0.00    +0.000 C 
ENDBRANCH  21  22
ENDBRANCH   5  20
TORSDOF 6
ENDMDL
MODEL 6
REMARK VINA RESULT:      -7.1      1.467      1.932
REMARK  Name = 
REMARK  6 active torsions:
REMARK  status: ('A' for Active; 'I' for Inactive)
REMARK    1  A    between atoms: O5*_1  and  C5*_2
REMARK    2  A    between atoms: C5*_2  and  C4*_3
REMARK    3  A    between atoms: C1*_5  and  N_6
REMARK    4  A    between atoms: C_10  and  C_11
REMARK    5  A    between atoms: C_12  and  N_13
REMARK    6  A    between atoms: C3*_24  and  O3*_25
REMARK                            x       y       z     vdW  Elec       q    Type
REMARK                         _______ _______ _______ _____ _____    ______ ____
ROOT
ATOM      1  N   UNL     1       4.078   5.519  17.702  0.00  0.00    +0.000 N 
ATOM      2  C   UNL     1       3.699   6.832  17.763  0.00  0.00    +0.000 A 
ATOM      3  N   UNL     1       4.736   7.648  17.768  0.00  0.00    +0.000 NA
ATOM      4  C   UNL     1       5.840   6.819  17.704  0.00  0.00    +0.000 A 
ATOM      5  C   UNL     1       7.220   7.058  17.678  0.00  0.00    +0.000 A 
ATOM      6  N   UNL     1       8.078   6.008  17.616  0.00  0.00    +0.000 NA
ATOM      7  C   UNL     1       7.548   4.765  17.578  0.00  0.00    +0.000 A 
ATOM      8  N   UNL     1       6.246   4.410  17.589  0.00  0.00    +0.000 NA
ATOM      9  C   UNL     1       5.448   5.490  17.659  0.00  0.00    +0.000 A 
ENDROOT
BRANCH   1  12
ATOM     10  C4* UNL     1       1.327   3.580  18.792  0.00  0.00    +0.000 C 
ATOM     11  O4* UNL     1       1.873   4.688  18.039  0.00  0.00    +0.000 OA
ATOM     12  C1* UNL     1       3.217   4.354  17.624  0.00  0.00    +0.000 C 
ATOM     13  C2* UNL     1       3.669   3.176  18.468  0.00  0.00    +0.000 C 
ATOM     14  C3* UNL     1       2.372   2.468  18.771  0.00  0.00    +0.000 C 
BRANCH  14  15
ATOM     15  O3* UNL     1       2.089   1.535  17.719  0.00  0.00    +0.000 OA
ATOM     16  H3* UNL     1       2.843   0.929  17.614  0.00  0.00    +0.000 HD
ENDBRANCH  14  15
BRANCH  10  17
ATOM     17  C5* UNL     1       0.945   4.044  20.202  0.00  0.00    +0.000 C 
BRANCH  17  18
ATOM     18  O5* UNL     1       1.658   5.217  20.577  0.00  0.00    +0.000 OA
ATOM     19  H5* UNL     1       1.004   5.938  20.630  0.00  0.00    +0.000 HD
ENDBRANCH  17  18
ENDBRANCH  10  17
ENDBRANCH   1  12
BRANCH   5  20
ATOM     20  C   UNL     1       7.712   8.435  17.727  0.00  0.00    +0.000 C 
ATOM     21  C   UNL     1       8.508   8.938  18.681  0.00  0.00    +0.000 C 
BRANCH  21  22
ATOM     22  N   UNL     1       9.008  10.227  18.821  0.00  0.00    +0.000 N 
ATOM     23  C   UNL     1       9.287  11.084  17.658  0.00  0.00    +0.000 C 
ATOM     24  C   UNL     1      10.752  11.523  17.673  0.00  0.00    +0.000 C 
ATOM     25  C   UNL     1      11.129  12.178  19.002  0.00  0.00    +0.000 C 
ATOM     26  C   UNL     1      10.750  11.281  20.178  0.00  0.00    +0.000 C 
ATOM     27  C   UNL     1       9.278  10.878  20.109  0.00  0.00    +0.000 C 
ENDBRANCH  21  22
ENDBRANCH   5  20
TORSDOF 6
ENDMDL
MODEL 7
REMARK VINA RESULT:      -7.1      5.746      7.933
REMARK  Name = 
REMARK  6 active torsions:
REMARK  status: ('A' for Active; 'I' for Inactive)
REMARK    1  A    between atoms: O5*_1  and  C5*_2
REMARK    2  A    between atoms: C5*_2  and  C4*_3
REMARK    3  A    between atoms: C1*_5  and  N_6
REMARK    4  A    between atoms: C_10  and  C_11
REMARK    5  A    between atoms: C_12  and  N_13
REMARK    6  A    between atoms: C3*_24  and  O3*_25
REMARK                            x       y       z     vdW  Elec       q    Type
REMARK                         _______ _______ _______ _____ _____    ______ ____
ROOT
ATOM      1  N   UNL     1       1.135  10.491  19.286  0.00  0.00    +0.000 N 
ATOM      2  C   UNL     1       1.774  10.671  18.089  0.00  0.00    +0.000 A 
ATOM      3  N   UNL     1       2.410   9.583  17.698  0.00  0.00    +0.000 NA
ATOM      4  C   UNL     1       2.166   8.653  18.692  0.00  0.00    +0.000 A 
ATOM      5  C   UNL     1       2.555   7.320  18.876  0.00  0.00    +0.000 A 
ATOM      6  N   UNL     1       2.149   6.654  19.987  0.00  0.00    +0.000 NA
ATOM      7  C   UNL     1       1.376   7.321  20.872  0.00  0.00    +0.000 A 
ATOM      8  N   UNL     1       0.931   8.594  20.802  0.00  0.00    +0.000 NA
ATOM      9  C   UNL     1       1.372   9.202  19.686  0.00  0.00    +0.000 A 
ENDROOT
BRANCH   1  12
ATOM     10  C4* UNL     1      -0.627  11.594  22.149  0.00  0.00    +0.000 C 
ATOM     11  O4* UNL     1       0.604  11.440  21.404  0.00  0.00    +0.000 OA
ATOM     12  C1* UNL     1       0.298  11.443  19.990  0.00  0.00    +0.000 C 
ATOM     13  C2* UNL     1      -1.194  11.197  19.852  0.00  0.00    +0.000 C 
ATOM     14  C3* UNL     1      -1.746  11.782  21.128  0.00  0.00    +0.000 C 
BRANCH  14  15
ATOM     15  O3* UNL     1      -2.014  13.177  20.930  0.00  0.00    +0.000 OA
ATOM     16  H3* UNL     1      -1.565  13.479  20.121  0.00  0.00    +0.000 HD
ENDBRANCH  14  15
BRANCH  10  17
ATOM     17  C5* UNL     1      -0.830  10.391  23.077  0.00  0.00    +0.000 C 
BRANCH  17  18
ATOM     18  O5* UNL     1       0.413   9.837  23.493  0.00  0.00    +0.000 OA
ATOM     19  H5* UNL     1       0.242   9.358  24.325  0.00  0.00    +0.000 HD
ENDBRANCH  17  18
ENDBRANCH  10  17
ENDBRANCH   1  12
BRANCH   5  20
ATOM     20  C   UNL     1       3.399   6.672  17.871  0.00  0.00    +0.000 C 
ATOM     21  C   UNL     1       4.706   6.912  17.689  0.00  0.00    +0.000 C 
BRANCH  21  22
ATOM     22  N   UNL     1       5.578   6.364  16.756  0.00  0.00    +0.000 N 
ATOM     23  C   UNL     1       5.164   6.083  15.374  0.00  0.00    +0.000 C 
ATOM     24  C   UNL     1       5.383   4.603  15.054  0.00  0.00    +0.000 C 
ATOM     25  C   UNL     1       6.819   4.170  15.346  0.00  0.00    +0.000 C 
ATOM     26  C   UNL     1       7.224   4.553  16.768  0.00  0.00    +0.000 C 
ATOM     27  C   UNL     1       6.985   6.039  17.026  0.00  0.00    +0.000 C 
ENDBRANCH  21  22
ENDBRANCH   5  20
TORSDOF 6
ENDMDL
MODEL 8
REMARK VINA RESULT:      -7.1      1.425      2.480
REMARK  Name = 
REMARK  6 active torsions:
REMARK  status: ('A' for Active; 'I' for Inactive)
REMARK    1  A    between atoms: O5*_1  and  C5*_2
REMARK    2  A    between atoms: C5*_2  and  C4*_3
REMARK    3  A    between atoms: C1*_5  and  N_6
REMARK    4  A    between atoms: C_10  and  C_11
REMARK    5  A    between atoms: C_12  and  N_13
REMARK    6  A    between atoms: C3*_24  and  O3*_25
REMARK                            x       y       z     vdW  Elec       q    Type
REMARK                         _______ _______ _______ _____ _____    ______ ____
ROOT
ATOM      1  N   UNL     1       4.943   4.566  18.644  0.00  0.00    +0.000 N 
ATOM      2  C   UNL     1       5.783   4.751  19.709  0.00  0.00    +0.000 A 
ATOM      3  N   UNL     1       6.661   5.711  19.487  0.00  0.00    +0.000 NA
ATOM      4  C   UNL     1       6.372   6.170  18.216  0.00  0.00    +0.000 A 
ATOM      5  C   UNL     1       6.932   7.164  17.404  0.00  0.00    +0.000 A 
ATOM      6  N   UNL     1       6.417   7.383  16.167  0.00  0.00    +0.000 NA
ATOM      7  C   UNL     1       5.372   6.621  15.777  0.00  0.00    +0.000 A 
ATOM      8  N   UNL     1       4.744   5.645  16.467  0.00  0.00    +0.000 NA
ATOM      9  C   UNL     1       5.303   5.470  17.678  0.00  0.00    +0.000 A 
ENDROOT
BRANCH   1  12
ATOM     10  C4* UNL     1       1.624   3.581  19.374  0.00  0.00    +0.000 C 
ATOM     11  O4* UNL     1       2.572   4.360  18.606  0.00  0.00    +0.000 OA
ATOM     12  C1* UNL     1       3.828   3.645  18.550  0.00  0.00    +0.000 C 
ATOM     13  C2* UNL     1       3.790   2.583  19.635  0.00  0.00    +0.000 C 
ATOM     14  C3* UNL     1       2.318   2.273  19.745  0.00  0.00    +0.000 C 
BRANCH  14  15
ATOM     15  O3* UNL     1       1.983   1.244  18.805  0.00  0.00    +0.000 OA
ATOM     16  H3* UNL     1       1.032   1.292  18.600  0.00  0.00    +0.000 HD
ENDBRANCH  14  15
BRANCH  10  17
ATOM     17  C5* UNL     1       1.141   4.390  20.582  0.00  0.00    +0.000 C 
BRANCH  17  18
ATOM     18  O5* UNL     1       2.115   5.341  20.997  0.00  0.00    +0.000 OA
ATOM     19  H5* UNL     1       1.723   6.223  20.861  0.00  0.00    +0.000 HD
ENDBRANCH  17  18
ENDBRANCH  10  17
ENDBRANCH   1  12
BRANCH   5  20
ATOM     20  C   UNL     1       8.067   7.943  17.901  0.00  0.00    +0.000 C 
ATOM     21  C   UNL     1       8.068   9.271  18.090  0.00  0.00    +0.000 C 
BRANCH  21  22
ATOM     22  N   UNL     1       9.096  10.093  18.537  0.00  0.00    +0.000 N 
ATOM     23  C   UNL     1       9.414  10.235  19.966  0.00  0.00    +0.000 C 
ATOM     24  C   UNL     1       9.323  11.705  20.378  0.00  0.00    +0.000 C 
ATOM     25  C   UNL     1      10.186  12.594  19.483  0.00  0.00    +0.000 C 
ATOM     26  C   UNL     1       9.870  12.354  18.009  0.00  0.00    +0.000 C 
ATOM     27  C   UNL     1       9.979  10.870  17.659  0.00  0.00    +0.000 C 
ENDBRANCH  21  22
ENDBRANCH   5  20
TORSDOF 6
ENDMDL
MODEL 9
REMARK VINA RESULT:      -7.0      5.184      6.148
REMARK  Name = 
REMARK  6 active torsions:
REMARK  status: ('A' for Active; 'I' for Inactive)
REMARK    1  A    between atoms: O5*_1  and  C5*_2
REMARK    2  A    between atoms: C5*_2  and  C4*_3
REMARK    3  A    between atoms: C1*_5  and  N_6
REMARK    4  A    between atoms: C_10  and  C_11
REMARK    5  A    between atoms: C_12  and  N_13
REMARK    6  A    between atoms: C3*_24  and  O3*_25
REMARK                            x       y       z     vdW  Elec       q    Type
REMARK                         _______ _______ _______ _____ _____    ______ ____
ROOT
ATOM      1  N   UNL     1       2.835   6.800  18.572  0.00  0.00    +0.000 N 
ATOM      2  C   UNL     1       2.999   7.597  17.471  0.00  0.00    +0.000 A 
ATOM      3  N   UNL     1       2.401   8.765  17.611  0.00  0.00    +0.000 NA
ATOM      4  C   UNL     1       1.824   8.721  18.867  0.00  0.00    +0.000 A 
ATOM      5  C   UNL     1       1.056   9.631  19.604  0.00  0.00    +0.000 A 
ATOM      6  N   UNL     1       0.619   9.286  20.842  0.00  0.00    +0.000 NA
ATOM      7  C   UNL     1       0.955   8.064  21.309  0.00  0.00    +0.000 A 
ATOM      8  N   UNL     1       1.691   7.109  20.702  0.00  0.00    +0.000 NA
ATOM      9  C   UNL     1       2.087   7.505  19.479  0.00  0.00    +0.000 A 
ENDROOT
BRANCH   1  12
ATOM     10  C4* UNL     1       5.559   4.575  18.959  0.00  0.00    +0.000 C 
ATOM     11  O4* UNL     1       4.657   5.575  19.491  0.00  0.00    +0.000 OA
ATOM     12  C1* UNL     1       3.392   5.481  18.796  0.00  0.00    +0.000 C 
ATOM     13  C2* UNL     1       3.631   4.672  17.534  0.00  0.00    +0.000 C 
ATOM     14  C3* UNL     1       4.772   3.768  17.930  0.00  0.00    +0.000 C 
BRANCH  14  15
ATOM     15  O3* UNL     1       4.244   2.576  18.527  0.00  0.00    +0.000 OA
ATOM     16  H3* UNL     1       4.952   2.118  19.013  0.00  0.00    +0.000 HD
ENDBRANCH  14  15
BRANCH  10  17
ATOM     17  C5* UNL     1       6.811   5.251  18.390  0.00  0.00    +0.000 C 
BRANCH  17  18
ATOM     18  O5* UNL     1       7.800   4.295  18.025  0.00  0.00    +0.000 OA
ATOM     19  H5* UNL     1       7.418   3.415  18.196  0.00  0.00    +0.000 HD
ENDBRANCH  17  18
ENDBRANCH  10  17
ENDBRANCH   1  12
BRANCH   5  20
ATOM     20  C   UNL     1       0.733  10.934  19.022  0.00  0.00    +0.000 C 
ATOM     21  C   UNL     1       1.476  12.043  19.150  0.00  0.00    +0.000 C 
BRANCH  21  22
ATOM     22  N   UNL     1       1.243  13.320  18.652  0.00  0.00    +0.000 N 
ATOM     23  C   UNL     1       2.341  14.241  18.326  0.00  0.00    +0.000 C 
ATOM     24  C   UNL     1       2.187  15.540  19.118  0.00  0.00    +0.000 C 
ATOM     25  C   UNL     1       0.806  16.162  18.915  0.00  0.00    +0.000 C 
ATOM     26  C   UNL     1      -0.297  15.143  19.193  0.00  0.00    +0.000 C 
ATOM     27  C   UNL     1      -0.089  13.871  18.373  0.00  0.00    +0.000 C 
ENDBRANCH  21  22
ENDBRANCH   5  20
TORSDOF 6
ENDMDL
