MODEL 1
REMARK VINA RESULT:      -7.0      0.000      0.000
REMARK  Name = 
REMARK  4 active torsions:
REMARK  status: ('A' for Active; 'I' for Inactive)
REMARK    1  A    between atoms: C_1  and  N_2
REMARK    2  A    between atoms: C_7  and  C_9
REMARK    3  A    between atoms: N_15  and  S_16
REMARK    4  A    between atoms: S_16  and  C_17
REMARK                            x       y       z     vdW  Elec       q    Type
REMARK                         _______ _______ _______ _____ _____    ______ ____
ROOT
ATOM      1  C   UNL     1       2.735   7.855  18.283  0.00  0.00    +0.000 A 
ATOM      2  N   UNL     1       2.159   8.751  17.471  0.00  0.00    +0.000 NA
ATOM      3  C   UNL     1       1.253   9.342  18.271  0.00  0.00    +0.000 A 
ATOM      4  C   UNL     1       1.331   8.856  19.527  0.00  0.00    +0.000 A 
ATOM      5  O   UNL     1       2.277   7.906  19.608  0.00  0.00    +0.000 OA
ATOM      6  C   UNL     1       0.419   9.449  20.497  0.00  0.00    +0.000 C 
ATOM      7  N   UNL     1      -0.378  10.324  19.541  0.00  0.00    +0.000 NA
ATOM      8  C   UNL     1       0.226  10.380  18.151  0.00  0.00    +0.000 C 
ENDROOT
BRANCH   1  15
ATOM      9  C   UNL     1       0.917   2.122  18.798  0.00  0.00    +0.000 C 
ATOM     10  N   UNL     1       1.656   2.925  17.822  0.00  0.00    +0.000 NA
ATOM     11  C   UNL     1       3.058   2.489  17.748  0.00  0.00    +0.000 C 
ATOM     12  C   UNL     1       4.024   3.438  17.023  0.00  0.00    +0.000 C 
ATOM     13  C   UNL     1       4.590   4.532  17.936  0.00  0.00    +0.000 C 
ATOM     14  N   UNL     1       3.607   5.529  18.350  0.00  0.00    +0.000 N 
ATOM     15  C   UNL     1       3.758   6.869  17.920  0.00  0.00    +0.000 C 
ATOM     16  O   UNL     1       4.755   7.199  17.268  0.00  0.00    +0.000 OA
ATOM     17  C   UNL     1       2.426   5.009  19.053  0.00  0.00    +0.000 C 
ATOM     18  C   UNL     1       1.448   4.362  18.057  0.00  0.00    +0.000 C 
ENDBRANCH   1  15
BRANCH   7  19
ATOM     19  S   UNL     1      -1.177  11.665  20.110  0.00  0.00    +0.000 S 
ATOM     20  C   UNL     1      -0.017  12.989  19.817  0.00  0.00    +0.000 C 
ATOM     21  O   UNL     1      -2.323  11.882  19.262  0.00  0.00    +0.000 OA
ATOM     22  O   UNL     1      -1.309  11.514  21.540  0.00  0.00    +0.000 OA
ENDBRANCH   7  19
TORSDOF 2
ENDMDL
MODEL 2
REMARK VINA RESULT:      -6.9      3.156      7.577
REMARK  Name = 
REMARK  4 active torsions:
REMARK  status: ('A' for Active; 'I' for Inactive)
REMARK    1  A    between atoms: C_1  and  N_2
REMARK    2  A    between atoms: C_7  and  C_9
REMARK    3  A    between atoms: N_15  and  S_16
REMARK    4  A    between atoms: S_16  and  C_17
REMARK                            x       y       z     vdW  Elec       q    Type
REMARK                         _______ _______ _______ _____ _____    ______ ____
ROOT
ATOM      1  C   UNL     1       2.096   8.286  18.755  0.00  0.00    +0.000 A 
ATOM      2  N   UNL     1       2.009   7.678  19.945  0.00  0.00    +0.000 NA
ATOM      3  C   UNL     1       2.430   6.429  19.675  0.00  0.00    +0.000 A 
ATOM      4  C   UNL     1       2.811   6.318  18.386  0.00  0.00    +0.000 A 
ATOM      5  O   UNL     1       2.637   7.484  17.741  0.00  0.00    +0.000 OA
ATOM      6  C   UNL     1       3.323   5.015  17.983  0.00  0.00    +0.000 C 
ATOM      7  N   UNL     1       3.039   4.260  19.273  0.00  0.00    +0.000 NA
ATOM      8  C   UNL     1       2.606   5.172  20.406  0.00  0.00    +0.000 C 
ENDROOT
BRANCH   1  15
ATOM      9  C   UNL     1      -1.183  10.941  23.072  0.00  0.00    +0.000 C 
ATOM     10  N   UNL     1      -0.058  11.306  22.209  0.00  0.00    +0.000 NA
ATOM     11  C   UNL     1      -0.459  12.343  21.246  0.00  0.00    +0.000 C 
ATOM     12  C   UNL     1       0.503  12.585  20.074  0.00  0.00    +0.000 C 
ATOM     13  C   UNL     1       0.264  11.638  18.893  0.00  0.00    +0.000 C 
ATOM     14  N   UNL     1       0.627  10.249  19.162  0.00  0.00    +0.000 N 
ATOM     15  C   UNL     1       1.692   9.660  18.438  0.00  0.00    +0.000 C 
ATOM     16  O   UNL     1       2.250  10.294  17.536  0.00  0.00    +0.000 OA
ATOM     17  C   UNL     1      -0.047   9.622  20.307  0.00  0.00    +0.000 C 
ATOM     18  C   UNL     1       0.571  10.109  21.629  0.00  0.00    +0.000 C 
ENDBRANCH   1  15
BRANCH   7  19
ATOM     19  S   UNL     1       3.907   2.894  19.647  0.00  0.00    +0.000 S 
ATOM     20  C   UNL     1       3.398   1.728  18.395  0.00  0.00    +0.000 C 
ATOM     21  O   UNL     1       5.302   3.192  19.435  0.00  0.00    +0.000 OA
ATOM     22  O   UNL     1       3.420   2.407  20.916  0.00  0.00    +0.000 OA
ENDBRANCH   7  19
TORSDOF 2
ENDMDL
MODEL 3
REMARK VINA RESULT:      -6.8      4.585      6.491
REMARK  Name = 
REMARK  4 active torsions:
REMARK  status: ('A' for Active; 'I' for Inactive)
REMARK    1  A    between atoms: C_1  and  N_2
REMARK    2  A    between atoms: C_7  and  C_9
REMARK    3  A    between atoms: N_15  and  S_16
REMARK    4  A    between atoms: S_16  and  C_17
REMARK                            x       y       z     vdW  Elec       q    Type
REMARK                         _______ _______ _______ _____ _____    ______ ____
ROOT
ATOM      1  C   UNL     1       5.629   5.249  16.852  0.00  0.00    +0.000 A 
ATOM      2  N   UNL     1       4.398   5.769  16.767  0.00  0.00    +0.000 NA
ATOM      3  C   UNL     1       3.726   5.105  17.726  0.00  0.00    +0.000 A 
ATOM      4  C   UNL     1       4.544   4.267  18.394  0.00  0.00    +0.000 A 
ATOM      5  O   UNL     1       5.789   4.323  17.893  0.00  0.00    +0.000 OA
ATOM      6  C   UNL     1       3.935   3.517  19.484  0.00  0.00    +0.000 C 
ATOM      7  N   UNL     1       2.492   3.948  19.267  0.00  0.00    +0.000 NA
ATOM      8  C   UNL     1       2.358   5.065  18.248  0.00  0.00    +0.000 C 
ENDROOT
BRANCH   1  15
ATOM      9  C   UNL     1       5.550   2.351  11.558  0.00  0.00    +0.000 C 
ATOM     10  N   UNL     1       5.821   3.711  12.027  0.00  0.00    +0.000 NA
ATOM     11  C   UNL     1       7.239   4.052  11.836  0.00  0.00    +0.000 C 
ATOM     12  C   UNL     1       7.739   5.302  12.574  0.00  0.00    +0.000 C 
ATOM     13  C   UNL     1       8.178   5.016  14.014  0.00  0.00    +0.000 C 
ATOM     14  N   UNL     1       7.079   4.681  14.916  0.00  0.00    +0.000 N 
ATOM     15  C   UNL     1       6.774   5.554  15.987  0.00  0.00    +0.000 C 
ATOM     16  O   UNL     1       7.483   6.544  16.197  0.00  0.00    +0.000 OA
ATOM     17  C   UNL     1       6.259   3.527  14.523  0.00  0.00    +0.000 C 
ATOM     18  C   UNL     1       5.296   3.914  13.386  0.00  0.00    +0.000 C 
ENDBRANCH   1  15
BRANCH   7  19
ATOM     19  S   UNL     1       1.407   3.891  20.524  0.00  0.00    +0.000 S 
ATOM     20  C   UNL     1       2.303   3.026  21.801  0.00  0.00    +0.000 C 
ATOM     21  O   UNL     1       1.189   5.244  20.972  0.00  0.00    +0.000 OA
ATOM     22  O   UNL     1       0.314   3.042  20.111  0.00  0.00    +0.000 OA
ENDBRANCH   7  19
TORSDOF 2
ENDMDL
MODEL 4
REMARK VINA RESULT:      -6.7      3.168      7.402
REMARK  Name = 
REMARK  4 active torsions:
REMARK  status: ('A' for Active; 'I' for Inactive)
REMARK    1  A    between atoms: C_1  and  N_2
REMARK    2  A    between atoms: C_7  and  C_9
REMARK    3  A    between atoms: N_15  and  S_16
REMARK    4  A    between atoms: S_16  and  C_17
REMARK                            x       y       z     vdW  Elec       q    Type
REMARK                         _______ _______ _______ _____ _____    ______ ____
ROOT
ATOM      1  C   UNL     1       2.168   8.135  18.562  0.00  0.00    +0.000 A 
ATOM      2  N   UNL     1       2.518   7.270  17.601  0.00  0.00    +0.000 NA
ATOM      3  C   UNL     1       2.822   6.158  18.295  0.00  0.00    +0.000 A 
ATOM      4  C   UNL     1       2.601   6.338  19.613  0.00  0.00    +0.000 A 
ATOM      5  O   UNL     1       2.163   7.586  19.852  0.00  0.00    +0.000 OA
ATOM      6  C   UNL     1       2.861   5.186  20.466  0.00  0.00    +0.000 C 
ATOM      7  N   UNL     1       3.452   4.262  19.412  0.00  0.00    +0.000 NA
ATOM      8  C   UNL     1       3.304   4.806  18.003  0.00  0.00    +0.000 C 
ENDROOT
BRANCH   1  15
ATOM      9  C   UNL     1      -0.955  10.467  23.171  0.00  0.00    +0.000 C 
ATOM     10  N   UNL     1       0.169  10.876  22.326  0.00  0.00    +0.000 NA
ATOM     11  C   UNL     1      -0.212  12.013  21.475  0.00  0.00    +0.000 C 
ATOM     12  C   UNL     1       0.741  12.336  20.314  0.00  0.00    +0.000 C 
ATOM     13  C   UNL     1       0.452  11.515  19.052  0.00  0.00    +0.000 C 
ATOM     14  N   UNL     1       0.772  10.095  19.181  0.00  0.00    +0.000 N 
ATOM     15  C   UNL     1       1.805   9.545  18.385  0.00  0.00    +0.000 C 
ATOM     16  O   UNL     1       2.371  10.245  17.538  0.00  0.00    +0.000 OA
ATOM     17  C   UNL     1       0.094   9.383  20.272  0.00  0.00    +0.000 C 
ATOM     18  C   UNL     1       0.748   9.721  21.624  0.00  0.00    +0.000 C 
ENDBRANCH   1  15
BRANCH   7  19
ATOM     19  S   UNL     1       3.414   2.616  19.631  0.00  0.00    +0.000 S 
ATOM     20  C   UNL     1       3.286   1.982  17.968  0.00  0.00    +0.000 C 
ATOM     21  O   UNL     1       4.694   2.217  20.162  0.00  0.00    +0.000 OA
ATOM     22  O   UNL     1       2.179   2.301  20.310  0.00  0.00    +0.000 OA
ENDBRANCH   7  19
TORSDOF 2
ENDMDL
MODEL 5
REMARK VINA RESULT:      -6.6      4.597      6.618
REMARK  Name = 
REMARK  4 active torsions:
REMARK  status: ('A' for Active; 'I' for Inactive)
REMARK    1  A    between atoms: C_1  and  N_2
REMARK    2  A    between atoms: C_7  and  C_9
REMARK    3  A    between atoms: N_15  and  S_16
REMARK    4  A    between atoms: S_16  and  C_17
REMARK                            x       y       z     vdW  Elec       q    Type
REMARK                         _______ _______ _______ _____ _____    ______ ____
ROOT
ATOM      1  C   UNL     1       5.845   5.109  16.961  0.00  0.00    +0.000 A 
ATOM      2  N   UNL     1       5.985   4.330  18.042  0.00  0.00    +0.000 NA
ATOM      3  C   UNL     1       4.760   4.368  18.599  0.00  0.00    +0.000 A 
ATOM      4  C   UNL     1       3.910   5.093  17.843  0.00  0.00    +0.000 A 
ATOM      5  O   UNL     1       4.541   5.585  16.763  0.00  0.00    +0.000 OA
ATOM      6  C   UNL     1       2.539   5.176  18.327  0.00  0.00    +0.000 C 
ATOM      7  N   UNL     1       2.734   4.465  19.659  0.00  0.00    +0.000 NA
ATOM      8  C   UNL     1       4.102   3.820  19.786  0.00  0.00    +0.000 C 
ENDROOT
BRANCH   1  15
ATOM      9  C   UNL     1       5.468   2.294  11.635  0.00  0.00    +0.000 C 
ATOM     10  N   UNL     1       5.708   3.659  12.107  0.00  0.00    +0.000 NA
ATOM     11  C   UNL     1       7.085   4.077  11.805  0.00  0.00    +0.000 C 
ATOM     12  C   UNL     1       7.581   5.341  12.524  0.00  0.00    +0.000 C 
ATOM     13  C   UNL     1       8.154   5.055  13.916  0.00  0.00    +0.000 C 
ATOM     14  N   UNL     1       7.154   4.649  14.900  0.00  0.00    +0.000 N 
ATOM     15  C   UNL     1       6.895   5.488  16.010  0.00  0.00    +0.000 C 
ATOM     16  O   UNL     1       7.568   6.511  16.180  0.00  0.00    +0.000 OA
ATOM     17  C   UNL     1       6.363   3.460  14.553  0.00  0.00    +0.000 C 
ATOM     18  C   UNL     1       5.290   3.812  13.509  0.00  0.00    +0.000 C 
ENDBRANCH   1  15
BRANCH   7  19
ATOM     19  S   UNL     1       1.444   3.738  20.411  0.00  0.00    +0.000 S 
ATOM     20  C   UNL     1       0.959   2.466  19.258  0.00  0.00    +0.000 C 
ATOM     21  O   UNL     1       1.941   3.093  21.601  0.00  0.00    +0.000 OA
ATOM     22  O   UNL     1       0.374   4.706  20.463  0.00  0.00    +0.000 OA
ENDBRANCH   7  19
TORSDOF 2
ENDMDL
MODEL 6
REMARK VINA RESULT:      -6.6      3.246      7.376
REMARK  Name = 
REMARK  4 active torsions:
REMARK  status: ('A' for Active; 'I' for Inactive)
REMARK    1  A    between atoms: C_1  and  N_2
REMARK    2  A    between atoms: C_7  and  C_9
REMARK    3  A    between atoms: N_15  and  S_16
REMARK    4  A    between atoms: S_16  and  C_17
REMARK                            x       y       z     vdW  Elec       q    Type
REMARK                         _______ _______ _______ _____ _____    ______ ____
ROOT
ATOM      1  C   UNL     1       2.077   8.013  18.470  0.00  0.00    +0.000 A 
ATOM      2  N   UNL     1       1.819   7.093  17.532  0.00  0.00    +0.000 NA
ATOM      3  C   UNL     1       2.284   5.959  18.088  0.00  0.00    +0.000 A 
ATOM      4  C   UNL     1       2.744   6.189  19.335  0.00  0.00    +0.000 A 
ATOM      5  O   UNL     1       2.625   7.489  19.650  0.00  0.00    +0.000 OA
ATOM      6  C   UNL     1       3.242   5.024  20.055  0.00  0.00    +0.000 C 
ATOM      7  N   UNL     1       3.142   4.009  18.926  0.00  0.00    +0.000 NA
ATOM      8  C   UNL     1       2.403   4.548  17.714  0.00  0.00    +0.000 C 
ENDROOT
BRANCH   1  15
ATOM      9  C   UNL     1      -0.933  10.344  23.155  0.00  0.00    +0.000 C 
ATOM     10  N   UNL     1       0.241  10.700  22.356  0.00  0.00    +0.000 NA
ATOM     11  C   UNL     1      -0.018  11.913  21.567  0.00  0.00    +0.000 C 
ATOM     12  C   UNL     1       0.986  12.216  20.444  0.00  0.00    +0.000 C 
ATOM     13  C   UNL     1       0.655  11.498  19.131  0.00  0.00    +0.000 C 
ATOM     14  N   UNL     1       0.845  10.051  19.180  0.00  0.00    +0.000 N 
ATOM     15  C   UNL     1       1.844   9.458  18.372  0.00  0.00    +0.000 C 
ATOM     16  O   UNL     1       2.488  10.152  17.577  0.00  0.00    +0.000 OA
ATOM     17  C   UNL     1       0.082   9.341  20.215  0.00  0.00    +0.000 C 
ATOM     18  C   UNL     1       0.732   9.540  21.596  0.00  0.00    +0.000 C 
ENDBRANCH   1  15
BRANCH   7  19
ATOM     19  S   UNL     1       3.018   2.389  19.270  0.00  0.00    +0.000 S 
ATOM     20  C   UNL     1       4.382   2.101  20.384  0.00  0.00    +0.000 C 
ATOM     21  O   UNL     1       1.794   2.192  20.006  0.00  0.00    +0.000 OA
ATOM     22  O   UNL     1       3.295   1.667  18.051  0.00  0.00    +0.000 OA
ENDBRANCH   7  19
TORSDOF 2
ENDMDL
MODEL 7
REMARK VINA RESULT:      -6.6      2.032      2.486
REMARK  Name = 
REMARK  4 active torsions:
REMARK  status: ('A' for Active; 'I' for Inactive)
REMARK    1  A    between atoms: C_1  and  N_2
REMARK    2  A    between atoms: C_7  and  C_9
REMARK    3  A    between atoms: N_15  and  S_16
REMARK    4  A    between atoms: S_16  and  C_17
REMARK                            x       y       z     vdW  Elec       q    Type
REMARK                         _______ _______ _______ _____ _____    ______ ____
ROOT
ATOM      1  C   UNL     1       1.773   8.201  19.638  0.00  0.00    +0.000 A 
ATOM      2  N   UNL     1       1.440   8.021  20.922  0.00  0.00    +0.000 NA
ATOM      3  C   UNL     1       0.883   9.200  21.255  0.00  0.00    +0.000 A 
ATOM      4  C   UNL     1       0.833  10.026  20.190  0.00  0.00    +0.000 A 
ATOM      5  O   UNL     1       1.375   9.438  19.111  0.00  0.00    +0.000 OA
ATOM      6  C   UNL     1       0.216  11.325  20.420  0.00  0.00    +0.000 C 
ATOM      7  N   UNL     1       0.016  11.210  21.924  0.00  0.00    +0.000 NA
ATOM      8  C   UNL     1       0.301   9.815  22.450  0.00  0.00    +0.000 C 
ENDROOT
BRANCH   1  15
ATOM      9  C   UNL     1       1.500   2.471  21.517  0.00  0.00    +0.000 C 
ATOM     10  N   UNL     1       1.361   3.187  20.248  0.00  0.00    +0.000 NA
ATOM     11  C   UNL     1       2.468   2.851  19.340  0.00  0.00    +0.000 C 
ATOM     12  C   UNL     1       2.638   3.763  18.116  0.00  0.00    +0.000 C 
ATOM     13  C   UNL     1       3.480   5.011  18.407  0.00  0.00    +0.000 C 
ATOM     14  N   UNL     1       2.826   5.978  19.284  0.00  0.00    +0.000 N 
ATOM     15  C   UNL     1       2.487   7.254  18.774  0.00  0.00    +0.000 C 
ATOM     16  O   UNL     1       2.816   7.567  17.624  0.00  0.00    +0.000 OA
ATOM     17  C   UNL     1       2.414   5.471  20.600  0.00  0.00    +0.000 C 
ATOM     18  C   UNL     1       1.136   4.623  20.474  0.00  0.00    +0.000 C 
ENDBRANCH   1  15
BRANCH   7  19
ATOM     19  S   UNL     1      -1.151  12.117  22.682  0.00  0.00    +0.000 S 
ATOM     20  C   UNL     1      -2.093  12.791  21.324  0.00  0.00    +0.000 C 
ATOM     21  O   UNL     1      -2.005  11.209  23.408  0.00  0.00    +0.000 OA
ATOM     22  O   UNL     1      -0.485  13.218  23.335  0.00  0.00    +0.000 OA
ENDBRANCH   7  19
TORSDOF 2
ENDMDL
MODEL 8
REMARK VINA RESULT:      -6.6      3.099      7.545
REMARK  Name = 
REMARK  4 active torsions:
REMARK  status: ('A' for Active; 'I' for Inactive)
REMARK    1  A    between atoms: C_1  and  N_2
REMARK    2  A    between atoms: C_7  and  C_9
REMARK    3  A    between atoms: N_15  and  S_16
REMARK    4  A    between atoms: S_16  and  C_17
REMARK                            x       y       z     vdW  Elec       q    Type
REMARK                         _______ _______ _______ _____ _____    ______ ____
ROOT
ATOM      1  C   UNL     1       1.541   8.180  20.575  0.00  0.00    +0.000 A 
ATOM      2  N   UNL     1       2.164   8.025  19.400  0.00  0.00    +0.000 NA
ATOM      3  C   UNL     1       2.307   6.689  19.311  0.00  0.00    +0.000 A 
ATOM      4  C   UNL     1       1.735   6.073  20.366  0.00  0.00    +0.000 A 
ATOM      5  O   UNL     1       1.208   6.975  21.211  0.00  0.00    +0.000 OA
ATOM      6  C   UNL     1       1.794   4.617  20.362  0.00  0.00    +0.000 C 
ATOM      7  N   UNL     1       2.676   4.437  19.135  0.00  0.00    +0.000 NA
ATOM      8  C   UNL     1       2.893   5.731  18.372  0.00  0.00    +0.000 C 
ENDROOT
BRANCH   1  15
ATOM      9  C   UNL     1      -2.234  11.629  17.368  0.00  0.00    +0.000 C 
ATOM     10  N   UNL     1      -2.099  11.204  18.763  0.00  0.00    +0.000 NA
ATOM     11  C   UNL     1      -1.761  12.349  19.622  0.00  0.00    +0.000 C 
ATOM     12  C   UNL     1      -1.267  12.009  21.036  0.00  0.00    +0.000 C 
ATOM     13  C   UNL     1       0.240  11.736  21.098  0.00  0.00    +0.000 C 
ATOM     14  N   UNL     1       0.647  10.494  20.443  0.00  0.00    +0.000 N 
ATOM     15  C   UNL     1       1.193   9.448  21.225  0.00  0.00    +0.000 C 
ATOM     16  O   UNL     1       1.395   9.620  22.432  0.00  0.00    +0.000 OA
ATOM     17  C   UNL     1       0.287  10.372  19.024  0.00  0.00    +0.000 C 
ATOM     18  C   UNL     1      -1.208  10.039  18.874  0.00  0.00    +0.000 C 
ENDBRANCH   1  15
BRANCH   7  19
ATOM     19  S   UNL     1       2.634   3.013  18.281  0.00  0.00    +0.000 S 
ATOM     20  C   UNL     1       1.371   2.070  19.117  0.00  0.00    +0.000 C 
ATOM     21  O   UNL     1       2.157   3.315  16.954  0.00  0.00    +0.000 OA
ATOM     22  O   UNL     1       3.893   2.342  18.501  0.00  0.00    +0.000 OA
ENDBRANCH   7  19
TORSDOF 2
ENDMDL
MODEL 9
REMARK VINA RESULT:      -6.5      0.785      1.165
REMARK  Name = 
REMARK  4 active torsions:
REMARK  status: ('A' for Active; 'I' for Inactive)
REMARK    1  A    between atoms: C_1  and  N_2
REMARK    2  A    between atoms: C_7  and  C_9
REMARK    3  A    between atoms: N_15  and  S_16
REMARK    4  A    between atoms: S_16  and  C_17
REMARK                            x       y       z     vdW  Elec       q    Type
REMARK                         _______ _______ _______ _____ _____    ______ ____
ROOT
ATOM      1  C   UNL     1       2.705   7.778  18.322  0.00  0.00    +0.000 A 
ATOM      2  N   UNL     1       2.137   7.808  19.534  0.00  0.00    +0.000 NA
ATOM      3  C   UNL     1       1.384   8.923  19.485  0.00  0.00    +0.000 A 
ATOM      4  C   UNL     1       1.457   9.499  18.268  0.00  0.00    +0.000 A 
ATOM      5  O   UNL     1       2.278   8.802  17.464  0.00  0.00    +0.000 OA
ATOM      6  C   UNL     1       0.652  10.699  18.082  0.00  0.00    +0.000 C 
ATOM      7  N   UNL     1       0.160  10.856  19.514  0.00  0.00    +0.000 NA
ATOM      8  C   UNL     1       0.497   9.661  20.386  0.00  0.00    +0.000 C 
ENDROOT
BRANCH   1  15
ATOM      9  C   UNL     1       0.995   2.021  18.931  0.00  0.00    +0.000 C 
ATOM     10  N   UNL     1       1.621   2.846  17.896  0.00  0.00    +0.000 NA
ATOM     11  C   UNL     1       3.012   2.424  17.669  0.00  0.00    +0.000 C 
ATOM     12  C   UNL     1       3.889   3.393  16.863  0.00  0.00    +0.000 C 
ATOM     13  C   UNL     1       4.539   4.478  17.729  0.00  0.00    +0.000 C 
ATOM     14  N   UNL     1       3.597   5.460  18.260  0.00  0.00    +0.000 N 
ATOM     15  C   UNL     1       3.692   6.807  17.837  0.00  0.00    +0.000 C 
ATOM     16  O   UNL     1       4.613   7.157  17.090  0.00  0.00    +0.000 OA
ATOM     17  C   UNL     1       2.500   4.918  19.073  0.00  0.00    +0.000 C 
ATOM     18  C   UNL     1       1.428   4.277  18.174  0.00  0.00    +0.000 C 
ENDBRANCH   1  15
BRANCH   7  19
ATOM     19  S   UNL     1      -1.240  11.693  19.826  0.00  0.00    +0.000 S 
ATOM     20  C   UNL     1      -0.818  13.374  19.400  0.00  0.00    +0.000 C 
ATOM     21  O   UNL     1      -2.239  11.236  18.892  0.00  0.00    +0.000 OA
ATOM     22  O   UNL     1      -1.458  11.650  21.253  0.00  0.00    +0.000 OA
ENDBRANCH   7  19
TORSDOF 2
ENDMDL
