MODEL 1
REMARK VINA RESULT:      -7.4      0.000      0.000
REMARK  Name = 
REMARK  10 active torsions:
REMARK  status: ('A' for Active; 'I' for Inactive)
REMARK    1  A    between atoms: C_1  and  C_2
REMARK    2  A    between atoms: C_2  and  C_3
REMARK    3  A    between atoms: C_3  and  C_4
REMARK    4  A    between atoms: C_4  and  C_5
REMARK    5  A    between atoms: C_10  and  C_11
REMARK    6  A    between atoms: C_14  and  O_15
REMARK    7  A    between atoms: O_15  and  C_16
REMARK    8  A    between atoms: C_19  and  C_20
REMARK    9  A    between atoms: N_21  and  N_22
REMARK   10  A    between atoms: C_23  and  C_25
REMARK                            x       y       z     vdW  Elec       q    Type
REMARK                         _______ _______ _______ _____ _____    ______ ____
ROOT
ATOM      1  C   UNL     1       2.089   5.732  19.995  0.00  0.00    +0.000 A 
ATOM      2  C   UNL     1       1.707   4.411  19.733  0.00  0.00    +0.000 A 
ATOM      3  C   UNL     1       2.283   3.675  18.693  0.00  0.00    +0.000 A 
ATOM      4  C   UNL     1       3.228   4.323  17.894  0.00  0.00    +0.000 A 
ATOM      5  N   UNL     1       3.917   3.870  16.797  0.00  0.00    +0.000 N 
ATOM      6  C   UNL     1       4.710   4.860  16.251  0.00  0.00    +0.000 A 
ATOM      7  C   UNL     1       4.591   5.967  17.090  0.00  0.00    +0.000 A 
ATOM      8  C   UNL     1       3.646   5.629  18.117  0.00  0.00    +0.000 A 
ATOM      9  C   UNL     1       3.077   6.334  19.198  0.00  0.00    +0.000 A 
ATOM     10  H   UNL     1       3.837   2.933  16.432  0.00  0.00    +0.000 HD
ENDROOT
BRANCH   6  11
ATOM     11  C   UNL     1       5.515   4.610  15.051  0.00  0.00    +0.000 A 
ATOM     12  C   UNL     1       4.987   3.875  13.980  0.00  0.00    +0.000 A 
ATOM     13  C   UNL     1       5.765   3.597  12.854  0.00  0.00    +0.000 A 
ATOM     14  C   UNL     1       7.070   4.076  12.761  0.00  0.00    +0.000 A 
ATOM     15  C   UNL     1       7.605   4.812  13.814  0.00  0.00    +0.000 A 
ATOM     16  C   UNL     1       6.835   5.066  14.956  0.00  0.00    +0.000 A 
BRANCH  14  17
ATOM     17  O   UNL     1       7.738   3.719  11.624  0.00  0.00    +0.000 OA
ATOM     18  C   UNL     1       7.420   2.435  11.098  0.00  0.00    +0.000 C 
ENDBRANCH  14  17
ENDBRANCH   6  11
BRANCH   7  19
ATOM     19  C   UNL     1       5.269   7.236  16.918  0.00  0.00    +0.000 C 
ATOM     20  N   UNL     1       6.464   7.368  17.394  0.00  0.00    +0.000 NA
BRANCH  20  21
ATOM     21  N   UNL     1       7.082   8.570  17.212  0.00  0.00    +0.000 N 
ATOM     22  C   UNL     1       8.162   8.880  18.028  0.00  0.00    +0.000 C 
ATOM     23  O   UNL     1       8.645   8.130  18.872  0.00  0.00    +0.000 OA
ATOM     24  H   UNL     1       6.661   9.253  16.596  0.00  0.00    +0.000 HD
BRANCH  22  25
ATOM     25  C   UNL     1       8.730  10.251  17.886  0.00  0.00    +0.000 A 
ATOM     26  C   UNL     1      10.115  10.399  18.067  0.00  0.00    +0.000 A 
ATOM     27  C   UNL     1      10.712  11.657  17.973  0.00  0.00    +0.000 A 
ATOM     28  C   UNL     1       9.927  12.770  17.687  0.00  0.00    +0.000 A 
ATOM     29 CL   UNL     1      10.655  14.325  17.588  0.00  0.00    +0.000 Cl
ATOM     30  C   UNL     1       8.555  12.633  17.477  0.00  0.00    +0.000 A 
ATOM     31  C   UNL     1       7.953  11.372  17.570  0.00  0.00    +0.000 A 
ENDBRANCH  22  25
ENDBRANCH  20  21
ENDBRANCH   7  19
BRANCH   1  32
ATOM     32  C   UNL     1       1.415   6.539  21.078  0.00  0.00    +0.000 C 
BRANCH  32  33
ATOM     33  C   UNL     1       1.596   8.048  20.902  0.00  0.00    +0.000 C 
BRANCH  33  35
ATOM     34  C   UNL     1      -0.366   9.602  21.082  0.00  0.00    +0.000 C 
ATOM     35  C   UNL     1       0.689   8.826  21.853  0.00  0.00    +0.000 C 
ENDBRANCH  33  35
ENDBRANCH  32  33
ENDBRANCH   1  32
TORSDOF 8
ENDMDL
MODEL 2
REMARK VINA RESULT:      -7.3      5.880     10.983
REMARK  Name = 
REMARK  10 active torsions:
REMARK  status: ('A' for Active; 'I' for Inactive)
REMARK    1  A    between atoms: C_1  and  C_2
REMARK    2  A    between atoms: C_2  and  C_3
REMARK    3  A    between atoms: C_3  and  C_4
REMARK    4  A    between atoms: C_4  and  C_5
REMARK    5  A    between atoms: C_10  and  C_11
REMARK    6  A    between atoms: C_14  and  O_15
REMARK    7  A    between atoms: O_15  and  C_16
REMARK    8  A    between atoms: C_19  and  C_20
REMARK    9  A    between atoms: N_21  and  N_22
REMARK   10  A    between atoms: C_23  and  C_25
REMARK                            x       y       z     vdW  Elec       q    Type
REMARK                         _______ _______ _______ _____ _____    ______ ____
ROOT
ATOM      1  C   UNL     1       3.624  15.006  19.105  0.00  0.00    +0.000 A 
ATOM      2  C   UNL     1       2.893  16.126  18.691  0.00  0.00    +0.000 A 
ATOM      3  C   UNL     1       1.500  16.090  18.575  0.00  0.00    +0.000 A 
ATOM      4  C   UNL     1       0.864  14.877  18.850  0.00  0.00    +0.000 A 
ATOM      5  N   UNL     1      -0.465  14.541  18.783  0.00  0.00    +0.000 N 
ATOM      6  C   UNL     1      -0.666  13.205  19.069  0.00  0.00    +0.000 A 
ATOM      7  C   UNL     1       0.579  12.687  19.423  0.00  0.00    +0.000 A 
ATOM      8  C   UNL     1       1.543  13.740  19.271  0.00  0.00    +0.000 A 
ATOM      9  C   UNL     1       2.944  13.817  19.416  0.00  0.00    +0.000 A 
ATOM     10  H   UNL     1      -1.196  15.192  18.539  0.00  0.00    +0.000 HD
ENDROOT
BRANCH   6  11
ATOM     11  C   UNL     1      -2.008  12.615  19.028  0.00  0.00    +0.000 A 
ATOM     12  C   UNL     1      -2.385  11.779  17.968  0.00  0.00    +0.000 A 
ATOM     13  C   UNL     1      -3.676  11.251  17.901  0.00  0.00    +0.000 A 
ATOM     14  C   UNL     1      -4.602  11.518  18.907  0.00  0.00    +0.000 A 
ATOM     15  C   UNL     1      -4.239  12.342  19.969  0.00  0.00    +0.000 A 
ATOM     16  C   UNL     1      -2.954  12.896  20.020  0.00  0.00    +0.000 A 
BRANCH  14  17
ATOM     17  O   UNL     1      -5.837  10.966  18.719  0.00  0.00    +0.000 OA
ATOM     18  C   UNL     1      -6.738  11.723  17.918  0.00  0.00    +0.000 C 
ENDBRANCH  14  17
ENDBRANCH   6  11
BRANCH   7  19
ATOM     19  C   UNL     1       0.842  11.320  19.825  0.00  0.00    +0.000 C 
ATOM     20  N   UNL     1       1.129  10.451  18.912  0.00  0.00    +0.000 NA
BRANCH  20  21
ATOM     21  N   UNL     1       1.378   9.173  19.318  0.00  0.00    +0.000 N 
ATOM     22  C   UNL     1       2.057   8.330  18.448  0.00  0.00    +0.000 C 
ATOM     23  O   UNL     1       2.504   8.662  17.354  0.00  0.00    +0.000 OA
ATOM     24  H   UNL     1       0.948   8.833  20.168  0.00  0.00    +0.000 HD
BRANCH  22  25
ATOM     25  C   UNL     1       2.199   6.909  18.874  0.00  0.00    +0.000 A 
ATOM     26  C   UNL     1       2.514   5.965  17.883  0.00  0.00    +0.000 A 
ATOM     27  C   UNL     1       2.638   4.613  18.205  0.00  0.00    +0.000 A 
ATOM     28  C   UNL     1       2.458   4.201  19.523  0.00  0.00    +0.000 A 
ATOM     29 CL   UNL     1       2.592   2.534  19.922  0.00  0.00    +0.000 Cl
ATOM     30  C   UNL     1       2.173   5.133  20.522  0.00  0.00    +0.000 A 
ATOM     31  C   UNL     1       2.048   6.490  20.202  0.00  0.00    +0.000 A 
ENDBRANCH  22  25
ENDBRANCH  20  21
ENDBRANCH   7  19
BRANCH   1  32
ATOM     32  C   UNL     1       5.132  15.036  19.163  0.00  0.00    +0.000 C 
BRANCH  32  33
ATOM     33  C   UNL     1       5.792  14.557  17.869  0.00  0.00    +0.000 C 
BRANCH  33  35
ATOM     34  C   UNL     1       7.398  16.385  18.479  0.00  0.00    +0.000 C 
ATOM     35  C   UNL     1       7.233  15.052  17.769  0.00  0.00    +0.000 C 
ENDBRANCH  33  35
ENDBRANCH  32  33
ENDBRANCH   1  32
TORSDOF 8
ENDMDL
MODEL 3
REMARK VINA RESULT:      -7.2      5.875     10.871
REMARK  Name = 
REMARK  10 active torsions:
REMARK  status: ('A' for Active; 'I' for Inactive)
REMARK    1  A    between atoms: C_1  and  C_2
REMARK    2  A    between atoms: C_2  and  C_3
REMARK    3  A    between atoms: C_3  and  C_4
REMARK    4  A    between atoms: C_4  and  C_5
REMARK    5  A    between atoms: C_10  and  C_11
REMARK    6  A    between atoms: C_14  and  O_15
REMARK    7  A    between atoms: O_15  and  C_16
REMARK    8  A    between atoms: C_19  and  C_20
REMARK    9  A    between atoms: N_21  and  N_22
REMARK   10  A    between atoms: C_23  and  C_25
REMARK                            x       y       z     vdW  Elec       q    Type
REMARK                         _______ _______ _______ _____ _____    ______ ____
ROOT
ATOM      1  C   UNL     1       3.401  14.964  19.449  0.00  0.00    +0.000 A 
ATOM      2  C   UNL     1       2.681  16.058  18.956  0.00  0.00    +0.000 A 
ATOM      3  C   UNL     1       1.318  15.962  18.655  0.00  0.00    +0.000 A 
ATOM      4  C   UNL     1       0.709  14.718  18.826  0.00  0.00    +0.000 A 
ATOM      5  N   UNL     1      -0.583  14.325  18.579  0.00  0.00    +0.000 N 
ATOM      6  C   UNL     1      -0.759  12.976  18.818  0.00  0.00    +0.000 A 
ATOM      7  C   UNL     1       0.452  12.507  19.328  0.00  0.00    +0.000 A 
ATOM      8  C   UNL     1       1.377  13.604  19.319  0.00  0.00    +0.000 A 
ATOM      9  C   UNL     1       2.742  13.740  19.652  0.00  0.00    +0.000 A 
ATOM     10  H   UNL     1      -1.305  14.947  18.248  0.00  0.00    +0.000 HD
ENDROOT
BRANCH   6  11
ATOM     11  C   UNL     1      -2.054  12.328  18.591  0.00  0.00    +0.000 A 
ATOM     12  C   UNL     1      -3.135  12.581  19.446  0.00  0.00    +0.000 A 
ATOM     13  C   UNL     1      -4.358  11.932  19.261  0.00  0.00    +0.000 A 
ATOM     14  C   UNL     1      -4.534  11.047  18.199  0.00  0.00    +0.000 A 
ATOM     15  C   UNL     1      -3.470  10.791  17.338  0.00  0.00    +0.000 A 
ATOM     16  C   UNL     1      -2.236  11.420  17.542  0.00  0.00    +0.000 A 
BRANCH  14  17
ATOM     17  O   UNL     1      -5.765  10.457  18.135  0.00  0.00    +0.000 OA
ATOM     18  C   UNL     1      -6.653  10.763  19.205  0.00  0.00    +0.000 C 
ENDBRANCH  14  17
ENDBRANCH   6  11
BRANCH   7  19
ATOM     19  C   UNL     1       0.722  11.145  19.744  0.00  0.00    +0.000 C 
ATOM     20  N   UNL     1       1.137  10.299  18.859  0.00  0.00    +0.000 NA
BRANCH  20  21
ATOM     21  N   UNL     1       1.390   9.026  19.278  0.00  0.00    +0.000 N 
ATOM     22  C   UNL     1       2.120   8.194  18.440  0.00  0.00    +0.000 C 
ATOM     23  O   UNL     1       2.608   8.532  17.365  0.00  0.00    +0.000 OA
ATOM     24  H   UNL     1       0.929   8.680  20.109  0.00  0.00    +0.000 HD
BRANCH  22  25
ATOM     25  C   UNL     1       2.267   6.776  18.874  0.00  0.00    +0.000 A 
ATOM     26  C   UNL     1       2.582   5.827  17.888  0.00  0.00    +0.000 A 
ATOM     27  C   UNL     1       2.711   4.477  18.218  0.00  0.00    +0.000 A 
ATOM     28  C   UNL     1       2.536   4.073  19.539  0.00  0.00    +0.000 A 
ATOM     29 CL   UNL     1       2.676   2.408  19.949  0.00  0.00    +0.000 Cl
ATOM     30  C   UNL     1       2.252   5.010  20.533  0.00  0.00    +0.000 A 
ATOM     31  C   UNL     1       2.121   6.365  20.205  0.00  0.00    +0.000 A 
ENDBRANCH  22  25
ENDBRANCH  20  21
ENDBRANCH   7  19
BRANCH   1  32
ATOM     32  C   UNL     1       4.885  15.059  19.708  0.00  0.00    +0.000 C 
BRANCH  32  33
ATOM     33  C   UNL     1       5.690  15.423  18.459  0.00  0.00    +0.000 C 
BRANCH  33  35
ATOM     34  C   UNL     1       8.075  16.069  18.024  0.00  0.00    +0.000 C 
ATOM     35  C   UNL     1       6.808  16.408  18.792  0.00  0.00    +0.000 C 
ENDBRANCH  33  35
ENDBRANCH  32  33
ENDBRANCH   1  32
TORSDOF 8
ENDMDL
MODEL 4
REMARK VINA RESULT:      -6.9      5.884     10.887
REMARK  Name = 
REMARK  10 active torsions:
REMARK  status: ('A' for Active; 'I' for Inactive)
REMARK    1  A    between atoms: C_1  and  C_2
REMARK    2  A    between atoms: C_2  and  C_3
REMARK    3  A    between atoms: C_3  and  C_4
REMARK    4  A    between atoms: C_4  and  C_5
REMARK    5  A    between atoms: C_10  and  C_11
REMARK    6  A    between atoms: C_14  and  O_15
REMARK    7  A    between atoms: O_15  and  C_16
REMARK    8  A    between atoms: C_19  and  C_20
REMARK    9  A    between atoms: N_21  and  N_22
REMARK   10  A    between atoms: C_23  and  C_25
REMARK                            x       y       z     vdW  Elec       q    Type
REMARK                         _______ _______ _______ _____ _____    ______ ____
ROOT
ATOM      1  C   UNL     1       3.370  14.527  18.433  0.00  0.00    +0.000 A 
ATOM      2  C   UNL     1       2.633  15.703  18.619  0.00  0.00    +0.000 A 
ATOM      3  C   UNL     1       1.245  15.677  18.787  0.00  0.00    +0.000 A 
ATOM      4  C   UNL     1       0.613  14.433  18.722  0.00  0.00    +0.000 A 
ATOM      5  N   UNL     1      -0.719  14.113  18.812  0.00  0.00    +0.000 N 
ATOM      6  C   UNL     1      -0.930  12.762  18.623  0.00  0.00    +0.000 A 
ATOM      7  C   UNL     1       0.331  12.180  18.498  0.00  0.00    +0.000 A 
ATOM      8  C   UNL     1       1.300  13.238  18.547  0.00  0.00    +0.000 A 
ATOM      9  C   UNL     1       2.704  13.291  18.420  0.00  0.00    +0.000 A 
ATOM     10  H   UNL     1      -1.448  14.790  18.979  0.00  0.00    +0.000 HD
ENDROOT
BRANCH   6  11
ATOM     11  C   UNL     1      -2.283  12.195  18.645  0.00  0.00    +0.000 A 
ATOM     12  C   UNL     1      -2.704  11.319  17.635  0.00  0.00    +0.000 A 
ATOM     13  C   UNL     1      -4.005  10.813  17.627  0.00  0.00    +0.000 A 
ATOM     14  C   UNL     1      -4.898  11.143  18.644  0.00  0.00    +0.000 A 
ATOM     15  C   UNL     1      -4.492  12.008  19.657  0.00  0.00    +0.000 A 
ATOM     16  C   UNL     1      -3.196  12.539  19.648  0.00  0.00    +0.000 A 
BRANCH  14  17
ATOM     17  O   UNL     1      -6.147  10.606  18.515  0.00  0.00    +0.000 OA
ATOM     18  C   UNL     1      -7.135  11.118  19.403  0.00  0.00    +0.000 C 
ENDBRANCH  14  17
ENDBRANCH   6  11
BRANCH   7  19
ATOM     19  C   UNL     1       0.596  10.768  18.307  0.00  0.00    +0.000 C 
ATOM     20  N   UNL     1       1.281  10.141  19.205  0.00  0.00    +0.000 NA
BRANCH  20  21
ATOM     21  N   UNL     1       1.510   8.811  19.004  0.00  0.00    +0.000 N 
ATOM     22  C   UNL     1       1.685   8.002  20.119  0.00  0.00    +0.000 C 
ATOM     23  O   UNL     1       1.594   8.379  21.283  0.00  0.00    +0.000 OA
ATOM     24  H   UNL     1       1.685   8.477  18.066  0.00  0.00    +0.000 HD
BRANCH  22  25
ATOM     25  C   UNL     1       2.058   6.582  19.857  0.00  0.00    +0.000 A 
ATOM     26  C   UNL     1       2.703   6.296  18.644  0.00  0.00    +0.000 A 
ATOM     27  C   UNL     1       3.060   4.986  18.321  0.00  0.00    +0.000 A 
ATOM     28  C   UNL     1       2.783   3.958  19.218  0.00  0.00    +0.000 A 
ATOM     29 CL   UNL     1       3.204   2.339  18.818  0.00  0.00    +0.000 Cl
ATOM     30  C   UNL     1       2.168   4.233  20.440  0.00  0.00    +0.000 A 
ATOM     31  C   UNL     1       1.809   5.546  20.766  0.00  0.00    +0.000 A 
ENDBRANCH  22  25
ENDBRANCH  20  21
ENDBRANCH   7  19
BRANCH   1  32
ATOM     32  C   UNL     1       4.859  14.571  18.187  0.00  0.00    +0.000 C 
BRANCH  32  33
ATOM     33  C   UNL     1       5.569  15.658  18.995  0.00  0.00    +0.000 C 
BRANCH  33  35
ATOM     34  C   UNL     1       8.055  15.405  19.221  0.00  0.00    +0.000 C 
ATOM     35  C   UNL     1       6.704  15.070  19.831  0.00  0.00    +0.000 C 
ENDBRANCH  33  35
ENDBRANCH  32  33
ENDBRANCH   1  32
TORSDOF 8
ENDMDL
MODEL 5
REMARK VINA RESULT:      -6.9      6.496     12.090
REMARK  Name = 
REMARK  10 active torsions:
REMARK  status: ('A' for Active; 'I' for Inactive)
REMARK    1  A    between atoms: C_1  and  C_2
REMARK    2  A    between atoms: C_2  and  C_3
REMARK    3  A    between atoms: C_3  and  C_4
REMARK    4  A    between atoms: C_4  and  C_5
REMARK    5  A    between atoms: C_10  and  C_11
REMARK    6  A    between atoms: C_14  and  O_15
REMARK    7  A    between atoms: O_15  and  C_16
REMARK    8  A    between atoms: C_19  and  C_20
REMARK    9  A    between atoms: N_21  and  N_22
REMARK   10  A    between atoms: C_23  and  C_25
REMARK                            x       y       z     vdW  Elec       q    Type
REMARK                         _______ _______ _______ _____ _____    ______ ____
ROOT
ATOM      1  C   UNL     1       2.209  16.060  18.109  0.00  0.00    +0.000 A 
ATOM      2  C   UNL     1       1.372  17.180  18.035  0.00  0.00    +0.000 A 
ATOM      3  C   UNL     1       0.095  17.178  18.603  0.00  0.00    +0.000 A 
ATOM      4  C   UNL     1      -0.335  15.998  19.214  0.00  0.00    +0.000 A 
ATOM      5  N   UNL     1      -1.533  15.697  19.811  0.00  0.00    +0.000 N 
ATOM      6  C   UNL     1      -1.576  14.382  20.231  0.00  0.00    +0.000 A 
ATOM      7  C   UNL     1      -0.315  13.846  19.972  0.00  0.00    +0.000 A 
ATOM      8  C   UNL     1       0.460  14.863  19.320  0.00  0.00    +0.000 A 
ATOM      9  C   UNL     1       1.759  14.907  18.772  0.00  0.00    +0.000 A 
ATOM     10  H   UNL     1      -2.291  16.356  19.912  0.00  0.00    +0.000 HD
ENDROOT
BRANCH   6  11
ATOM     11  C   UNL     1      -2.775  13.829  20.869  0.00  0.00    +0.000 A 
ATOM     12  C   UNL     1      -3.048  14.094  22.219  0.00  0.00    +0.000 A 
ATOM     13  C   UNL     1      -4.163  13.533  22.844  0.00  0.00    +0.000 A 
ATOM     14  C   UNL     1      -5.045  12.726  22.126  0.00  0.00    +0.000 A 
ATOM     15  C   UNL     1      -4.789  12.460  20.783  0.00  0.00    +0.000 A 
ATOM     16  C   UNL     1      -3.654  12.998  20.165  0.00  0.00    +0.000 A 
BRANCH  14  17
ATOM     17  O   UNL     1      -6.085  12.217  22.850  0.00  0.00    +0.000 OA
ATOM     18  C   UNL     1      -6.325  12.840  24.108  0.00  0.00    +0.000 C 
ENDBRANCH  14  17
ENDBRANCH   6  11
BRANCH   7  19
ATOM     19  C   UNL     1       0.105  12.492  20.272  0.00  0.00    +0.000 C 
ATOM     20  N   UNL     1       0.180  11.638  19.304  0.00  0.00    +0.000 NA
BRANCH  20  21
ATOM     21  N   UNL     1       0.584  10.372  19.614  0.00  0.00    +0.000 N 
ATOM     22  C   UNL     1       1.523   9.767  18.790  0.00  0.00    +0.000 C 
ATOM     23  O   UNL     1       2.066  10.303  17.829  0.00  0.00    +0.000 OA
ATOM     24  H   UNL     1       0.096   9.862  20.338  0.00  0.00    +0.000 HD
BRANCH  22  25
ATOM     25  C   UNL     1       1.845   8.341  19.086  0.00  0.00    +0.000 A 
ATOM     26  C   UNL     1       2.424   7.582  18.056  0.00  0.00    +0.000 A 
ATOM     27  C   UNL     1       2.730   6.235  18.254  0.00  0.00    +0.000 A 
ATOM     28  C   UNL     1       2.466   5.644  19.486  0.00  0.00    +0.000 A 
ATOM     29 CL   UNL     1       2.823   3.979  19.729  0.00  0.00    +0.000 Cl
ATOM     30  C   UNL     1       1.917   6.394  20.527  0.00  0.00    +0.000 A 
ATOM     31  C   UNL     1       1.610   7.746  20.332  0.00  0.00    +0.000 A 
ENDBRANCH  22  25
ENDBRANCH  20  21
ENDBRANCH   7  19
BRANCH   1  32
ATOM     32  C   UNL     1       3.560  16.050  17.435  0.00  0.00    +0.000 C 
BRANCH  32  33
ATOM     33  C   UNL     1       4.720  15.904  18.420  0.00  0.00    +0.000 C 
BRANCH  33  35
ATOM     34  C   UNL     1       6.960  14.845  18.816  0.00  0.00    +0.000 C 
ATOM     35  C   UNL     1       5.711  14.841  17.951  0.00  0.00    +0.000 C 
ENDBRANCH  33  35
ENDBRANCH  32  33
ENDBRANCH   1  32
TORSDOF 8
ENDMDL
MODEL 6
REMARK VINA RESULT:      -6.9      6.251     11.805
REMARK  Name = 
REMARK  10 active torsions:
REMARK  status: ('A' for Active; 'I' for Inactive)
REMARK    1  A    between atoms: C_1  and  C_2
REMARK    2  A    between atoms: C_2  and  C_3
REMARK    3  A    between atoms: C_3  and  C_4
REMARK    4  A    between atoms: C_4  and  C_5
REMARK    5  A    between atoms: C_10  and  C_11
REMARK    6  A    between atoms: C_14  and  O_15
REMARK    7  A    between atoms: O_15  and  C_16
REMARK    8  A    between atoms: C_19  and  C_20
REMARK    9  A    between atoms: N_21  and  N_22
REMARK   10  A    between atoms: C_23  and  C_25
REMARK                            x       y       z     vdW  Elec       q    Type
REMARK                         _______ _______ _______ _____ _____    ______ ____
ROOT
ATOM      1  C   UNL     1       2.774  15.390  18.190  0.00  0.00    +0.000 A 
ATOM      2  C   UNL     1       2.016  16.567  18.173  0.00  0.00    +0.000 A 
ATOM      3  C   UNL     1       0.779  16.650  18.820  0.00  0.00    +0.000 A 
ATOM      4  C   UNL     1       0.306  15.498  19.452  0.00  0.00    +0.000 A 
ATOM      5  N   UNL     1      -0.872  15.278  20.121  0.00  0.00    +0.000 N 
ATOM      6  C   UNL     1      -0.982  13.965  20.537  0.00  0.00    +0.000 A 
ATOM      7  C   UNL     1       0.219  13.343  20.198  0.00  0.00    +0.000 A 
ATOM      8  C   UNL     1       1.023  14.309  19.503  0.00  0.00    +0.000 A 
ATOM      9  C   UNL     1       2.285  14.266  18.875  0.00  0.00    +0.000 A 
ATOM     10  H   UNL     1      -1.573  15.987  20.272  0.00  0.00    +0.000 HD
ENDROOT
BRANCH   6  11
ATOM     11  C   UNL     1      -2.175  13.493  21.247  0.00  0.00    +0.000 A 
ATOM     12  C   UNL     1      -3.370  13.259  20.553  0.00  0.00    +0.000 A 
ATOM     13  C   UNL     1      -4.521  12.852  21.231  0.00  0.00    +0.000 A 
ATOM     14  C   UNL     1      -4.491  12.638  22.608  0.00  0.00    +0.000 A 
ATOM     15  C   UNL     1      -3.309  12.861  23.310  0.00  0.00    +0.000 A 
ATOM     16  C   UNL     1      -2.163  13.298  22.633  0.00  0.00    +0.000 A 
BRANCH  14  17
ATOM     17  O   UNL     1      -5.683  12.265  23.162  0.00  0.00    +0.000 OA
ATOM     18  C   UNL     1      -6.844  12.587  22.405  0.00  0.00    +0.000 C 
ENDBRANCH  14  17
ENDBRANCH   6  11
BRANCH   7  19
ATOM     19  C   UNL     1       0.560  11.961  20.466  0.00  0.00    +0.000 C 
ATOM     20  N   UNL     1       0.714  11.157  19.466  0.00  0.00    +0.000 NA
BRANCH  20  21
ATOM     21  N   UNL     1       1.041   9.862  19.746  0.00  0.00    +0.000 N 
ATOM     22  C   UNL     1       1.708   9.131  18.773  0.00  0.00    +0.000 C 
ATOM     23  O   UNL     1       2.080   9.575  17.690  0.00  0.00    +0.000 OA
ATOM     24  H   UNL     1       0.673   9.431  20.584  0.00  0.00    +0.000 HD
BRANCH  22  25
ATOM     25  C   UNL     1       1.935   7.687  19.065  0.00  0.00    +0.000 A 
ATOM     26  C   UNL     1       2.473   6.896  18.038  0.00  0.00    +0.000 A 
ATOM     27  C   UNL     1       2.690   5.531  18.233  0.00  0.00    +0.000 A 
ATOM     28  C   UNL     1       2.378   4.954  19.461  0.00  0.00    +0.000 A 
ATOM     29 CL   UNL     1       2.625   3.269  19.701  0.00  0.00    +0.000 Cl
ATOM     30  C   UNL     1       1.869   5.735  20.500  0.00  0.00    +0.000 A 
ATOM     31  C   UNL     1       1.651   7.104  20.307  0.00  0.00    +0.000 A 
ENDBRANCH  22  25
ENDBRANCH  20  21
ENDBRANCH   7  19
BRANCH   1  32
ATOM     32  C   UNL     1       4.077  15.290  17.433  0.00  0.00    +0.000 C 
BRANCH  32  33
ATOM     33  C   UNL     1       5.268  14.955  18.331  0.00  0.00    +0.000 C 
BRANCH  33  35
ATOM     34  C   UNL     1       5.490  15.779  20.691  0.00  0.00    +0.000 C 
ATOM     35  C   UNL     1       5.636  16.140  19.222  0.00  0.00    +0.000 C 
ENDBRANCH  33  35
ENDBRANCH  32  33
ENDBRANCH   1  32
TORSDOF 8
ENDMDL
MODEL 7
REMARK VINA RESULT:      -6.9      6.325     11.859
REMARK  Name = 
REMARK  10 active torsions:
REMARK  status: ('A' for Active; 'I' for Inactive)
REMARK    1  A    between atoms: C_1  and  C_2
REMARK    2  A    between atoms: C_2  and  C_3
REMARK    3  A    between atoms: C_3  and  C_4
REMARK    4  A    between atoms: C_4  and  C_5
REMARK    5  A    between atoms: C_10  and  C_11
REMARK    6  A    between atoms: C_14  and  O_15
REMARK    7  A    between atoms: O_15  and  C_16
REMARK    8  A    between atoms: C_19  and  C_20
REMARK    9  A    between atoms: N_21  and  N_22
REMARK   10  A    between atoms: C_23  and  C_25
REMARK                            x       y       z     vdW  Elec       q    Type
REMARK                         _______ _______ _______ _____ _____    ______ ____
ROOT
ATOM      1  C   UNL     1       2.597  15.684  18.216  0.00  0.00    +0.000 A 
ATOM      2  C   UNL     1       1.782  16.818  18.118  0.00  0.00    +0.000 A 
ATOM      3  C   UNL     1       0.481  16.830  18.631  0.00  0.00    +0.000 A 
ATOM      4  C   UNL     1       0.008  15.651  19.211  0.00  0.00    +0.000 A 
ATOM      5  N   UNL     1      -1.220  15.364  19.752  0.00  0.00    +0.000 N 
ATOM      6  C   UNL     1      -1.302  14.046  20.156  0.00  0.00    +0.000 A 
ATOM      7  C   UNL     1      -0.039  13.492  19.947  0.00  0.00    +0.000 A 
ATOM      8  C   UNL     1       0.779  14.503  19.339  0.00  0.00    +0.000 A 
ATOM      9  C   UNL     1       2.101  14.531  18.847  0.00  0.00    +0.000 A 
ATOM     10  H   UNL     1      -1.971  16.034  19.827  0.00  0.00    +0.000 HD
ENDROOT
BRANCH   6  11
ATOM     11  C   UNL     1      -2.535  13.506  20.737  0.00  0.00    +0.000 A 
ATOM     12  C   UNL     1      -3.594  13.105  19.911  0.00  0.00    +0.000 A 
ATOM     13  C   UNL     1      -4.787  12.632  20.461  0.00  0.00    +0.000 A 
ATOM     14  C   UNL     1      -4.933  12.519  21.842  0.00  0.00    +0.000 A 
ATOM     15  C   UNL     1      -3.887  12.909  22.675  0.00  0.00    +0.000 A 
ATOM     16  C   UNL     1      -2.702  13.411  22.123  0.00  0.00    +0.000 A 
BRANCH  14  17
ATOM     17  O   UNL     1      -6.152  12.067  22.261  0.00  0.00    +0.000 OA
ATOM     18  C   UNL     1      -6.746  12.792  23.333  0.00  0.00    +0.000 C 
ENDBRANCH  14  17
ENDBRANCH   6  11
BRANCH   7  19
ATOM     19  C   UNL     1       0.347  12.129  20.251  0.00  0.00    +0.000 C 
ATOM     20  N   UNL     1       0.641  11.337  19.273  0.00  0.00    +0.000 NA
BRANCH  20  21
ATOM     21  N   UNL     1       1.007  10.060  19.588  0.00  0.00    +0.000 N 
ATOM     22  C   UNL     1       1.722   9.334  18.646  0.00  0.00    +0.000 C 
ATOM     23  O   UNL     1       2.104   9.769  17.563  0.00  0.00    +0.000 OA
ATOM     24  H   UNL     1       0.635   9.633  20.426  0.00  0.00    +0.000 HD
BRANCH  22  25
ATOM     25  C   UNL     1       1.993   7.905  18.974  0.00  0.00    +0.000 A 
ATOM     26  C   UNL     1       1.664   7.464  20.265  0.00  0.00    +0.000 A 
ATOM     27  C   UNL     1       1.912   6.146  20.650  0.00  0.00    +0.000 A 
ATOM     28  C   UNL     1       2.482   5.260  19.740  0.00  0.00    +0.000 A 
ATOM     29 CL   UNL     1       2.807   3.640  20.214  0.00  0.00    +0.000 Cl
ATOM     30  C   UNL     1       2.787   5.678  18.444  0.00  0.00    +0.000 A 
ATOM     31  C   UNL     1       2.539   7.000  18.055  0.00  0.00    +0.000 A 
ENDBRANCH  22  25
ENDBRANCH  20  21
ENDBRANCH   7  19
BRANCH   1  32
ATOM     32  C   UNL     1       3.976  15.658  17.601  0.00  0.00    +0.000 C 
BRANCH  32  33
ATOM     33  C   UNL     1       5.039  16.313  18.484  0.00  0.00    +0.000 C 
BRANCH  33  35
ATOM     34  C   UNL     1       6.508  15.151  20.154  0.00  0.00    +0.000 C 
ATOM     35  C   UNL     1       6.240  15.389  18.677  0.00  0.00    +0.000 C 
ENDBRANCH  33  35
ENDBRANCH  32  33
ENDBRANCH   1  32
TORSDOF 8
ENDMDL
MODEL 8
REMARK VINA RESULT:      -6.8      5.700     10.796
REMARK  Name = 
REMARK  10 active torsions:
REMARK  status: ('A' for Active; 'I' for Inactive)
REMARK    1  A    between atoms: C_1  and  C_2
REMARK    2  A    between atoms: C_2  and  C_3
REMARK    3  A    between atoms: C_3  and  C_4
REMARK    4  A    between atoms: C_4  and  C_5
REMARK    5  A    between atoms: C_10  and  C_11
REMARK    6  A    between atoms: C_14  and  O_15
REMARK    7  A    between atoms: O_15  and  C_16
REMARK    8  A    between atoms: C_19  and  C_20
REMARK    9  A    between atoms: N_21  and  N_22
REMARK   10  A    between atoms: C_23  and  C_25
REMARK                            x       y       z     vdW  Elec       q    Type
REMARK                         _______ _______ _______ _____ _____    ______ ____
ROOT
ATOM      1  C   UNL     1       4.619  14.894  18.283  0.00  0.00    +0.000 A 
ATOM      2  C   UNL     1       3.901  16.084  18.449  0.00  0.00    +0.000 A 
ATOM      3  C   UNL     1       2.516  16.084  18.642  0.00  0.00    +0.000 A 
ATOM      4  C   UNL     1       1.865  14.848  18.622  0.00  0.00    +0.000 A 
ATOM      5  N   UNL     1       0.532  14.550  18.744  0.00  0.00    +0.000 N 
ATOM      6  C   UNL     1       0.297  13.197  18.596  0.00  0.00    +0.000 A 
ATOM      7  C   UNL     1       1.548  12.594  18.465  0.00  0.00    +0.000 A 
ATOM      8  C   UNL     1       2.533  13.639  18.469  0.00  0.00    +0.000 A 
ATOM      9  C   UNL     1       3.935  13.668  18.316  0.00  0.00    +0.000 A 
ATOM     10  H   UNL     1      -0.185  15.242  18.905  0.00  0.00    +0.000 HD
ENDROOT
BRANCH   6  11
ATOM     11  C   UNL     1      -1.062  12.652  18.657  0.00  0.00    +0.000 A 
ATOM     12  C   UNL     1      -1.587  11.927  17.578  0.00  0.00    +0.000 A 
ATOM     13  C   UNL     1      -2.897  11.444  17.613  0.00  0.00    +0.000 A 
ATOM     14  C   UNL     1      -3.694  11.645  18.739  0.00  0.00    +0.000 A 
ATOM     15  C   UNL     1      -3.184  12.359  19.820  0.00  0.00    +0.000 A 
ATOM     16  C   UNL     1      -1.880  12.868  19.772  0.00  0.00    +0.000 A 
BRANCH  14  17
ATOM     17  O   UNL     1      -4.963  11.148  18.646  0.00  0.00    +0.000 OA
ATOM     18  C   UNL     1      -5.800  11.765  17.673  0.00  0.00    +0.000 C 
ENDBRANCH  14  17
ENDBRANCH   6  11
BRANCH   7  19
ATOM     19  C   UNL     1       1.789  11.174  18.310  0.00  0.00    +0.000 C 
ATOM     20  N   UNL     1       1.201  10.355  19.118  0.00  0.00    +0.000 NA
BRANCH  20  21
ATOM     21  N   UNL     1       1.441   9.022  18.946  0.00  0.00    +0.000 N 
ATOM     22  C   UNL     1       1.681   8.250  20.074  0.00  0.00    +0.000 C 
ATOM     23  O   UNL     1       1.640   8.661  21.230  0.00  0.00    +0.000 OA
ATOM     24  H   UNL     1       1.575   8.663  18.010  0.00  0.00    +0.000 HD
BRANCH  22  25
ATOM     25  C   UNL     1       2.063   6.829  19.837  0.00  0.00    +0.000 A 
ATOM     26  C   UNL     1       1.630   5.877  20.774  0.00  0.00    +0.000 A 
ATOM     27  C   UNL     1       1.970   4.532  20.629  0.00  0.00    +0.000 A 
ATOM     28  C   UNL     1       2.738   4.131  19.539  0.00  0.00    +0.000 A 
ATOM     29 CL   UNL     1       3.176   2.477  19.365  0.00  0.00    +0.000 Cl
ATOM     30  C   UNL     1       3.150   5.061  18.585  0.00  0.00    +0.000 A 
ATOM     31  C   UNL     1       2.810   6.412  18.727  0.00  0.00    +0.000 A 
ENDBRANCH  22  25
ENDBRANCH  20  21
ENDBRANCH   7  19
BRANCH   1  32
ATOM     32  C   UNL     1       6.104  14.909  18.010  0.00  0.00    +0.000 C 
BRANCH  32  33
ATOM     33  C   UNL     1       6.947  14.986  19.283  0.00  0.00    +0.000 C 
BRANCH  33  35
ATOM     34  C   UNL     1       7.665  17.284  18.575  0.00  0.00    +0.000 C 
ATOM     35  C   UNL     1       8.129  15.937  19.104  0.00  0.00    +0.000 C 
ENDBRANCH  33  35
ENDBRANCH  32  33
ENDBRANCH   1  32
TORSDOF 8
ENDMDL
MODEL 9
REMARK VINA RESULT:      -6.8      4.768      8.881
REMARK  Name = 
REMARK  10 active torsions:
REMARK  status: ('A' for Active; 'I' for Inactive)
REMARK    1  A    between atoms: C_1  and  C_2
REMARK    2  A    between atoms: C_2  and  C_3
REMARK    3  A    between atoms: C_3  and  C_4
REMARK    4  A    between atoms: C_4  and  C_5
REMARK    5  A    between atoms: C_10  and  C_11
REMARK    6  A    between atoms: C_14  and  O_15
REMARK    7  A    between atoms: O_15  and  C_16
REMARK    8  A    between atoms: C_19  and  C_20
REMARK    9  A    between atoms: N_21  and  N_22
REMARK   10  A    between atoms: C_23  and  C_25
REMARK                            x       y       z     vdW  Elec       q    Type
REMARK                         _______ _______ _______ _____ _____    ______ ____
ROOT
ATOM      1  C   UNL     1       4.681   5.918  16.396  0.00  0.00    +0.000 A 
ATOM      2  C   UNL     1       4.356   4.825  17.208  0.00  0.00    +0.000 A 
ATOM      3  C   UNL     1       3.472   4.949  18.284  0.00  0.00    +0.000 A 
ATOM      4  C   UNL     1       2.953   6.219  18.545  0.00  0.00    +0.000 A 
ATOM      5  N   UNL     1       2.107   6.640  19.541  0.00  0.00    +0.000 N 
ATOM      6  C   UNL     1       1.895   8.004  19.484  0.00  0.00    +0.000 A 
ATOM      7  C   UNL     1       2.562   8.458  18.347  0.00  0.00    +0.000 A 
ATOM      8  C   UNL     1       3.238   7.333  17.766  0.00  0.00    +0.000 A 
ATOM      9  C   UNL     1       4.103   7.170  16.663  0.00  0.00    +0.000 A 
ATOM     10  H   UNL     1       1.708   6.026  20.235  0.00  0.00    +0.000 HD
ENDROOT
BRANCH   6  11
ATOM     11  C   UNL     1       1.048   8.681  20.471  0.00  0.00    +0.000 A 
ATOM     12  C   UNL     1       1.353   8.611  21.838  0.00  0.00    +0.000 A 
ATOM     13  C   UNL     1       0.524   9.216  22.785  0.00  0.00    +0.000 A 
ATOM     14  C   UNL     1      -0.603   9.930  22.384  0.00  0.00    +0.000 A 
ATOM     15  C   UNL     1      -0.915  10.013  21.030  0.00  0.00    +0.000 A 
ATOM     16  C   UNL     1      -0.100   9.380  20.083  0.00  0.00    +0.000 A 
BRANCH  14  17
ATOM     17  O   UNL     1      -1.347  10.457  23.402  0.00  0.00    +0.000 OA
ATOM     18  C   UNL     1      -1.810  11.788  23.204  0.00  0.00    +0.000 C 
ENDBRANCH  14  17
ENDBRANCH   6  11
BRANCH   7  19
ATOM     19  C   UNL     1       2.594   9.829  17.877  0.00  0.00    +0.000 C 
ATOM     20  N   UNL     1       1.965  10.730  18.557  0.00  0.00    +0.000 NA
BRANCH  20  21
ATOM     21  N   UNL     1       2.016  12.013  18.096  0.00  0.00    +0.000 N 
ATOM     22  C   UNL     1       2.144  13.037  19.025  0.00  0.00    +0.000 C 
ATOM     23  O   UNL     1       2.273  12.877  20.235  0.00  0.00    +0.000 OA
ATOM     24  H   UNL     1       1.821  12.195  17.121  0.00  0.00    +0.000 HD
BRANCH  22  25
ATOM     25  C   UNL     1       2.069  14.428  18.495  0.00  0.00    +0.000 A 
ATOM     26  C   UNL     1       0.896  15.156  18.752  0.00  0.00    +0.000 A 
ATOM     27  C   UNL     1       0.746  16.455  18.266  0.00  0.00    +0.000 A 
ATOM     28  C   UNL     1       1.775  17.036  17.530  0.00  0.00    +0.000 A 
ATOM     29 CL   UNL     1       1.588  18.631  16.912  0.00  0.00    +0.000 Cl
ATOM     30  C   UNL     1       2.958  16.335  17.292  0.00  0.00    +0.000 A 
ATOM     31  C   UNL     1       3.111  15.031  17.778  0.00  0.00    +0.000 A 
ENDBRANCH  22  25
ENDBRANCH  20  21
ENDBRANCH   7  19
BRANCH   1  32
ATOM     32  C   UNL     1       5.687   5.788  15.278  0.00  0.00    +0.000 C 
BRANCH  32  33
ATOM     33  C   UNL     1       5.971   4.336  14.893  0.00  0.00    +0.000 C 
BRANCH  33  35
ATOM     34  C   UNL     1       6.261   3.459  12.560  0.00  0.00    +0.000 C 
ATOM     35  C   UNL     1       5.265   3.964  13.591  0.00  0.00    +0.000 C 
ENDBRANCH  33  35
ENDBRANCH  32  33
ENDBRANCH   1  32
TORSDOF 8
ENDMDL
