MODEL 1
REMARK VINA RESULT:      -6.1      0.000      0.000
REMARK  Name = 
REMARK  6 active torsions:
REMARK  status: ('A' for Active; 'I' for Inactive)
REMARK    1  A    between atoms: C_1  and  C_2
REMARK    2  A    between atoms: C_2  and  C_3
REMARK    3  A    between atoms: C_3  and  C_4
REMARK    4  A    between atoms: C_4  and  N_5
REMARK    5  A    between atoms: C_10  and  S_11
REMARK    6  A    between atoms: C_13  and  O_14
REMARK                            x       y       z     vdW  Elec       q    Type
REMARK                         _______ _______ _______ _____ _____    ______ ____
ROOT
ATOM      1  N   UNL     1       4.726   5.089  16.033  0.00  0.00    +0.000 NA
ATOM      2  C   UNL     1       4.926   6.134  17.047  0.00  0.00    +0.000 C 
ATOM      3  C   UNL     1       3.785   6.086  18.076  0.00  0.00    +0.000 C 
ATOM      4  C   UNL     1       3.530   4.689  18.581  0.00  0.00    +0.000 A 
ATOM      5  N   UNL     1       2.775   4.552  19.696  0.00  0.00    +0.000 NA
ATOM      6  C   UNL     1       2.525   3.293  20.101  0.00  0.00    +0.000 A 
ATOM      7  N   UNL     1       2.971   2.176  19.507  0.00  0.00    +0.000 NA
ATOM      8  C   UNL     1       3.706   2.381  18.415  0.00  0.00    +0.000 A 
ATOM      9  C   UNL     1       4.015   3.607  17.878  0.00  0.00    +0.000 A 
ATOM     10  C   UNL     1       4.857   3.758  16.652  0.00  0.00    +0.000 C 
ENDROOT
BRANCH   6  11
ATOM     11  S   UNL     1       1.518   3.106  21.543  0.00  0.00    +0.000 S 
ATOM     12  H   UNL     1       1.431   4.422  21.756  0.00  0.00    +0.000 HD
ENDBRANCH   6  11
BRANCH   8  13
ATOM     13  O   UNL     1       4.153   1.233  17.843  0.00  0.00    +0.000 OA
ATOM     14  H   UNL     1       4.501   0.767  18.624  0.00  0.00    +0.000 HD
ENDBRANCH   8  13
BRANCH   1  15
ATOM     15  C   UNL     1       5.625   5.253  14.883  0.00  0.00    +0.000 C 
BRANCH  15  16
ATOM     16  C   UNL     1       6.311   3.946  14.448  0.00  0.00    +0.000 C 
BRANCH  16  18
ATOM     17  C   UNL     1       5.232   3.440  12.221  0.00  0.00    +0.000 C 
ATOM     18  C   UNL     1       6.511   3.851  12.931  0.00  0.00    +0.000 C 
ENDBRANCH  16  18
ENDBRANCH  15  16
ENDBRANCH   1  15
TORSDOF 5
ENDMDL
MODEL 2
REMARK VINA RESULT:      -6.0      3.447      6.230
REMARK  Name = 
REMARK  6 active torsions:
REMARK  status: ('A' for Active; 'I' for Inactive)
REMARK    1  A    between atoms: C_1  and  C_2
REMARK    2  A    between atoms: C_2  and  C_3
REMARK    3  A    between atoms: C_3  and  C_4
REMARK    4  A    between atoms: C_4  and  N_5
REMARK    5  A    between atoms: C_10  and  S_11
REMARK    6  A    between atoms: C_13  and  O_14
REMARK                            x       y       z     vdW  Elec       q    Type
REMARK                         _______ _______ _______ _____ _____    ______ ____
ROOT
ATOM      1  N   UNL     1       3.750   4.768  18.860  0.00  0.00    +0.000 NA
ATOM      2  C   UNL     1       3.665   3.423  18.273  0.00  0.00    +0.000 C 
ATOM      3  C   UNL     1       3.950   3.496  16.764  0.00  0.00    +0.000 C 
ATOM      4  C   UNL     1       5.189   4.296  16.454  0.00  0.00    +0.000 A 
ATOM      5  N   UNL     1       5.715   4.183  15.212  0.00  0.00    +0.000 NA
ATOM      6  C   UNL     1       6.795   4.942  14.946  0.00  0.00    +0.000 A 
ATOM      7  N   UNL     1       7.395   5.778  15.806  0.00  0.00    +0.000 NA
ATOM      8  C   UNL     1       6.826   5.843  17.009  0.00  0.00    +0.000 A 
ATOM      9  C   UNL     1       5.710   5.147  17.404  0.00  0.00    +0.000 A 
ATOM     10  C   UNL     1       5.135   5.264  18.779  0.00  0.00    +0.000 C 
ENDROOT
BRANCH   6  11
ATOM     11  S   UNL     1       7.473   4.819  13.318  0.00  0.00    +0.000 S 
ATOM     12  H   UNL     1       8.129   3.685  13.585  0.00  0.00    +0.000 HD
ENDBRANCH   6  11
BRANCH   8  13
ATOM     13  O   UNL     1       7.463   6.689  17.861  0.00  0.00    +0.000 OA
ATOM     14  H   UNL     1       7.077   7.540  17.592  0.00  0.00    +0.000 HD
ENDBRANCH   8  13
BRANCH   1  15
ATOM     15  C   UNL     1       3.229   4.807  20.233  0.00  0.00    +0.000 C 
BRANCH  15  16
ATOM     16  C   UNL     1       1.696   4.920  20.306  0.00  0.00    +0.000 C 
BRANCH  16  18
ATOM     17  C   UNL     1       1.893   2.741  21.567  0.00  0.00    +0.000 C 
ATOM     18  C   UNL     1       1.016   3.596  20.668  0.00  0.00    +0.000 C 
ENDBRANCH  16  18
ENDBRANCH  15  16
ENDBRANCH   1  15
TORSDOF 5
ENDMDL
MODEL 3
REMARK VINA RESULT:      -5.9      1.075      1.292
REMARK  Name = 
REMARK  6 active torsions:
REMARK  status: ('A' for Active; 'I' for Inactive)
REMARK    1  A    between atoms: C_1  and  C_2
REMARK    2  A    between atoms: C_2  and  C_3
REMARK    3  A    between atoms: C_3  and  C_4
REMARK    4  A    between atoms: C_4  and  N_5
REMARK    5  A    between atoms: C_10  and  S_11
REMARK    6  A    between atoms: C_13  and  O_14
REMARK                            x       y       z     vdW  Elec       q    Type
REMARK                         _______ _______ _______ _____ _____    ______ ____
ROOT
ATOM      1  N   UNL     1       5.676   4.644  15.279  0.00  0.00    +0.000 NA
ATOM      2  C   UNL     1       5.915   5.892  16.019  0.00  0.00    +0.000 C 
ATOM      3  C   UNL     1       4.645   6.291  16.788  0.00  0.00    +0.000 C 
ATOM      4  C   UNL     1       4.063   5.139  17.567  0.00  0.00    +0.000 A 
ATOM      5  N   UNL     1       3.139   5.425  18.514  0.00  0.00    +0.000 NA
ATOM      6  C   UNL     1       2.603   4.375  19.164  0.00  0.00    +0.000 A 
ATOM      7  N   UNL     1       2.916   3.086  18.965  0.00  0.00    +0.000 NA
ATOM      8  C   UNL     1       3.830   2.875  18.019  0.00  0.00    +0.000 A 
ATOM      9  C   UNL     1       4.437   3.848  17.262  0.00  0.00    +0.000 A 
ATOM     10  C   UNL     1       5.465   3.534  16.224  0.00  0.00    +0.000 C 
ENDROOT
BRANCH   6  11
ATOM     11  S   UNL     1       1.376   4.738  20.386  0.00  0.00    +0.000 S 
ATOM     12  H   UNL     1       0.622   5.445  19.540  0.00  0.00    +0.000 HD
ENDBRANCH   6  11
BRANCH   8  13
ATOM     13  O   UNL     1       4.136   1.563  17.848  0.00  0.00    +0.000 OA
ATOM     14  H   UNL     1       4.267   1.532  16.884  0.00  0.00    +0.000 HD
ENDBRANCH   8  13
BRANCH   1  15
ATOM     15  C   UNL     1       6.751   4.355  14.319  0.00  0.00    +0.000 C 
BRANCH  15  16
ATOM     16  C   UNL     1       6.301   4.441  12.850  0.00  0.00    +0.000 C 
BRANCH  16  18
ATOM     17  C   UNL     1       4.444   3.286  11.585  0.00  0.00    +0.000 C 
ATOM     18  C   UNL     1       5.768   3.109  12.309  0.00  0.00    +0.000 C 
ENDBRANCH  16  18
ENDBRANCH  15  16
ENDBRANCH   1  15
TORSDOF 5
ENDMDL
MODEL 4
REMARK VINA RESULT:      -5.8      2.821      3.718
REMARK  Name = 
REMARK  6 active torsions:
REMARK  status: ('A' for Active; 'I' for Inactive)
REMARK    1  A    between atoms: C_1  and  C_2
REMARK    2  A    between atoms: C_2  and  C_3
REMARK    3  A    between atoms: C_3  and  C_4
REMARK    4  A    between atoms: C_4  and  N_5
REMARK    5  A    between atoms: C_10  and  S_11
REMARK    6  A    between atoms: C_13  and  O_14
REMARK                            x       y       z     vdW  Elec       q    Type
REMARK                         _______ _______ _______ _____ _____    ______ ____
ROOT
ATOM      1  N   UNL     1       6.220   5.674  17.649  0.00  0.00    +0.000 NA
ATOM      2  C   UNL     1       5.176   6.706  17.741  0.00  0.00    +0.000 C 
ATOM      3  C   UNL     1       3.806   6.090  17.412  0.00  0.00    +0.000 C 
ATOM      4  C   UNL     1       3.562   4.807  18.164  0.00  0.00    +0.000 A 
ATOM      5  N   UNL     1       2.295   4.332  18.200  0.00  0.00    +0.000 NA
ATOM      6  C   UNL     1       2.110   3.162  18.840  0.00  0.00    +0.000 A 
ATOM      7  N   UNL     1       3.064   2.444  19.450  0.00  0.00    +0.000 NA
ATOM      8  C   UNL     1       4.288   2.966  19.375  0.00  0.00    +0.000 A 
ATOM      9  C   UNL     1       4.621   4.134  18.734  0.00  0.00    +0.000 A 
ATOM     10  C   UNL     1       6.019   4.663  18.702  0.00  0.00    +0.000 C 
ENDROOT
BRANCH   6  11
ATOM     11  S   UNL     1       0.461   2.523  18.871  0.00  0.00    +0.000 S 
ATOM     12  H   UNL     1      -0.053   3.587  18.247  0.00  0.00    +0.000 HD
ENDBRANCH   6  11
BRANCH   8  13
ATOM     13  O   UNL     1       5.231   2.223  20.013  0.00  0.00    +0.000 OA
ATOM     14  H   UNL     1       4.667   1.645  20.556  0.00  0.00    +0.000 HD
ENDBRANCH   8  13
BRANCH   1  15
ATOM     15  C   UNL     1       7.571   6.249  17.687  0.00  0.00    +0.000 C 
BRANCH  15  16
ATOM     16  C   UNL     1       7.593   7.779  17.524  0.00  0.00    +0.000 C 
BRANCH  16  18
ATOM     17  C   UNL     1       8.656   9.960  18.227  0.00  0.00    +0.000 C 
ATOM     18  C   UNL     1       8.544   8.471  18.507  0.00  0.00    +0.000 C 
ENDBRANCH  16  18
ENDBRANCH  15  16
ENDBRANCH   1  15
TORSDOF 5
ENDMDL
MODEL 5
REMARK VINA RESULT:      -5.8      1.046      1.264
REMARK  Name = 
REMARK  6 active torsions:
REMARK  status: ('A' for Active; 'I' for Inactive)
REMARK    1  A    between atoms: C_1  and  C_2
REMARK    2  A    between atoms: C_2  and  C_3
REMARK    3  A    between atoms: C_3  and  C_4
REMARK    4  A    between atoms: C_4  and  N_5
REMARK    5  A    between atoms: C_10  and  S_11
REMARK    6  A    between atoms: C_13  and  O_14
REMARK                            x       y       z     vdW  Elec       q    Type
REMARK                         _______ _______ _______ _____ _____    ______ ____
ROOT
ATOM      1  N   UNL     1       5.462   4.963  15.467  0.00  0.00    +0.000 NA
ATOM      2  C   UNL     1       5.614   6.156  16.313  0.00  0.00    +0.000 C 
ATOM      3  C   UNL     1       4.321   6.395  17.111  0.00  0.00    +0.000 C 
ATOM      4  C   UNL     1       3.827   5.141  17.785  0.00  0.00    +0.000 A 
ATOM      5  N   UNL     1       2.888   5.276  18.751  0.00  0.00    +0.000 NA
ATOM      6  C   UNL     1       2.431   4.138  19.308  0.00  0.00    +0.000 A 
ATOM      7  N   UNL     1       2.836   2.898  18.998  0.00  0.00    +0.000 NA
ATOM      8  C   UNL     1       3.759   2.836  18.039  0.00  0.00    +0.000 A 
ATOM      9  C   UNL     1       4.291   3.911  17.371  0.00  0.00    +0.000 A 
ATOM     10  C   UNL     1       5.335   3.762  16.312  0.00  0.00    +0.000 C 
ENDROOT
BRANCH   6  11
ATOM     11  S   UNL     1       1.187   4.305  20.553  0.00  0.00    +0.000 S 
ATOM     12  H   UNL     1       1.317   3.043  20.971  0.00  0.00    +0.000 HD
ENDBRANCH   6  11
BRANCH   8  13
ATOM     13  O   UNL     1       4.158   1.568  17.756  0.00  0.00    +0.000 OA
ATOM     14  H   UNL     1       3.809   1.467  16.853  0.00  0.00    +0.000 HD
ENDBRANCH   8  13
BRANCH   1  15
ATOM     15  C   UNL     1       6.551   4.836  14.488  0.00  0.00    +0.000 C 
BRANCH  15  16
ATOM     16  C   UNL     1       6.250   3.832  13.361  0.00  0.00    +0.000 C 
BRANCH  16  18
ATOM     17  C   UNL     1       7.834   5.407  12.182  0.00  0.00    +0.000 C 
ATOM     18  C   UNL     1       7.058   4.104  12.088  0.00  0.00    +0.000 C 
ENDBRANCH  16  18
ENDBRANCH  15  16
ENDBRANCH   1  15
TORSDOF 5
ENDMDL
MODEL 6
REMARK VINA RESULT:      -5.8      3.794      5.736
REMARK  Name = 
REMARK  6 active torsions:
REMARK  status: ('A' for Active; 'I' for Inactive)
REMARK    1  A    between atoms: C_1  and  C_2
REMARK    2  A    between atoms: C_2  and  C_3
REMARK    3  A    between atoms: C_3  and  C_4
REMARK    4  A    between atoms: C_4  and  N_5
REMARK    5  A    between atoms: C_10  and  S_11
REMARK    6  A    between atoms: C_13  and  O_14
REMARK                            x       y       z     vdW  Elec       q    Type
REMARK                         _______ _______ _______ _____ _____    ______ ____
ROOT
ATOM      1  N   UNL     1       4.560   4.254  17.942  0.00  0.00    +0.000 NA
ATOM      2  C   UNL     1       4.540   4.738  16.554  0.00  0.00    +0.000 C 
ATOM      3  C   UNL     1       4.889   6.235  16.521  0.00  0.00    +0.000 C 
ATOM      4  C   UNL     1       6.118   6.553  17.334  0.00  0.00    +0.000 A 
ATOM      5  N   UNL     1       6.702   7.759  17.144  0.00  0.00    +0.000 NA
ATOM      6  C   UNL     1       7.771   8.036  17.914  0.00  0.00    +0.000 A 
ATOM      7  N   UNL     1       8.308   7.219  18.832  0.00  0.00    +0.000 NA
ATOM      8  C   UNL     1       7.684   6.050  18.970  0.00  0.00    +0.000 A 
ATOM      9  C   UNL     1       6.572   5.649  18.272  0.00  0.00    +0.000 A 
ATOM     10  C   UNL     1       5.933   4.314  18.474  0.00  0.00    +0.000 C 
ENDROOT
BRANCH   6  11
ATOM     11  S   UNL     1       8.525   9.620  17.689  0.00  0.00    +0.000 S 
ATOM     12  H   UNL     1       7.705   9.963  16.691  0.00  0.00    +0.000 HD
ENDBRANCH   6  11
BRANCH   8  13
ATOM     13  O   UNL     1       8.258   5.239  19.898  0.00  0.00    +0.000 OA
ATOM     14  H   UNL     1       8.258   4.391  19.420  0.00  0.00    +0.000 HD
ENDBRANCH   8  13
BRANCH   1  15
ATOM     15  C   UNL     1       3.977   2.911  18.069  0.00  0.00    +0.000 C 
BRANCH  15  16
ATOM     16  C   UNL     1       2.526   2.821  17.565  0.00  0.00    +0.000 C 
BRANCH  16  18
ATOM     17  C   UNL     1       1.111   3.377  19.582  0.00  0.00    +0.000 C 
ATOM     18  C   UNL     1       1.557   2.284  18.625  0.00  0.00    +0.000 C 
ENDBRANCH  16  18
ENDBRANCH  15  16
ENDBRANCH   1  15
TORSDOF 5
ENDMDL
MODEL 7
REMARK VINA RESULT:      -5.8      1.000      1.019
REMARK  Name = 
REMARK  6 active torsions:
REMARK  status: ('A' for Active; 'I' for Inactive)
REMARK    1  A    between atoms: C_1  and  C_2
REMARK    2  A    between atoms: C_2  and  C_3
REMARK    3  A    between atoms: C_3  and  C_4
REMARK    4  A    between atoms: C_4  and  N_5
REMARK    5  A    between atoms: C_10  and  S_11
REMARK    6  A    between atoms: C_13  and  O_14
REMARK                            x       y       z     vdW  Elec       q    Type
REMARK                         _______ _______ _______ _____ _____    ______ ____
ROOT
ATOM      1  N   UNL     1       4.917   5.194  16.602  0.00  0.00    +0.000 NA
ATOM      2  C   UNL     1       5.769   5.383  17.785  0.00  0.00    +0.000 C 
ATOM      3  C   UNL     1       4.898   5.427  19.051  0.00  0.00    +0.000 C 
ATOM      4  C   UNL     1       3.906   4.293  19.102  0.00  0.00    +0.000 A 
ATOM      5  N   UNL     1       3.299   4.042  20.285  0.00  0.00    +0.000 NA
ATOM      6  C   UNL     1       2.386   3.053  20.294  0.00  0.00    +0.000 A 
ATOM      7  N   UNL     1       2.042   2.295  19.242  0.00  0.00    +0.000 NA
ATOM      8  C   UNL     1       2.675   2.596  18.108  0.00  0.00    +0.000 A 
ATOM      9  C   UNL     1       3.607   3.593  17.953  0.00  0.00    +0.000 A 
ATOM     10  C   UNL     1       4.284   3.864  16.648  0.00  0.00    +0.000 C 
ENDROOT
BRANCH   6  11
ATOM     11  S   UNL     1       1.571   2.735  21.831  0.00  0.00    +0.000 S 
ATOM     12  H   UNL     1       2.683   2.905  22.552  0.00  0.00    +0.000 HD
ENDBRANCH   6  11
BRANCH   8  13
ATOM     13  O   UNL     1       2.316   1.803  17.064  0.00  0.00    +0.000 OA
ATOM     14  H   UNL     1       2.880   2.168  16.360  0.00  0.00    +0.000 HD
ENDBRANCH   8  13
BRANCH   1  15
ATOM     15  C   UNL     1       5.653   5.411  15.349  0.00  0.00    +0.000 C 
BRANCH  15  16
ATOM     16  C   UNL     1       6.062   4.106  14.642  0.00  0.00    +0.000 C 
BRANCH  16  18
ATOM     17  C   UNL     1       6.425   3.367  12.255  0.00  0.00    +0.000 C 
ATOM     18  C   UNL     1       5.441   3.962  13.248  0.00  0.00    +0.000 C 
ENDBRANCH  16  18
ENDBRANCH  15  16
ENDBRANCH   1  15
TORSDOF 5
ENDMDL
MODEL 8
REMARK VINA RESULT:      -5.8      1.426      1.512
REMARK  Name = 
REMARK  6 active torsions:
REMARK  status: ('A' for Active; 'I' for Inactive)
REMARK    1  A    between atoms: C_1  and  C_2
REMARK    2  A    between atoms: C_2  and  C_3
REMARK    3  A    between atoms: C_3  and  C_4
REMARK    4  A    between atoms: C_4  and  N_5
REMARK    5  A    between atoms: C_10  and  S_11
REMARK    6  A    between atoms: C_13  and  O_14
REMARK                            x       y       z     vdW  Elec       q    Type
REMARK                         _______ _______ _______ _____ _____    ______ ____
ROOT
ATOM      1  N   UNL     1       5.905   4.998  16.071  0.00  0.00    +0.000 NA
ATOM      2  C   UNL     1       6.849   4.670  17.150  0.00  0.00    +0.000 C 
ATOM      3  C   UNL     1       6.205   4.972  18.513  0.00  0.00    +0.000 C 
ATOM      4  C   UNL     1       4.816   4.399  18.628  0.00  0.00    +0.000 A 
ATOM      5  N   UNL     1       4.266   4.329  19.862  0.00  0.00    +0.000 NA
ATOM      6  C   UNL     1       3.007   3.854  19.933  0.00  0.00    +0.000 A 
ATOM      7  N   UNL     1       2.269   3.437  18.895  0.00  0.00    +0.000 NA
ATOM      8  C   UNL     1       2.868   3.535  17.709  0.00  0.00    +0.000 A 
ATOM      9  C   UNL     1       4.134   4.023  17.490  0.00  0.00    +0.000 A 
ATOM     10  C   UNL     1       4.745   4.092  16.128  0.00  0.00    +0.000 C 
ENDROOT
BRANCH   6  11
ATOM     11  S   UNL     1       2.273   3.782  21.540  0.00  0.00    +0.000 S 
ATOM     12  H   UNL     1       1.044   4.038  21.082  0.00  0.00    +0.000 HD
ENDBRANCH   6  11
BRANCH   8  13
ATOM     13  O   UNL     1       2.101   3.093  16.678  0.00  0.00    +0.000 OA
ATOM     14  H   UNL     1       1.636   3.913  16.435  0.00  0.00    +0.000 HD
ENDBRANCH   8  13
BRANCH   1  15
ATOM     15  C   UNL     1       6.549   4.988  14.750  0.00  0.00    +0.000 C 
BRANCH  15  16
ATOM     16  C   UNL     1       6.383   3.656  13.996  0.00  0.00    +0.000 C 
BRANCH  16  18
ATOM     17  C   UNL     1       5.105   3.271  11.852  0.00  0.00    +0.000 C 
ATOM     18  C   UNL     1       6.375   3.829  12.474  0.00  0.00    +0.000 C 
ENDBRANCH  16  18
ENDBRANCH  15  16
ENDBRANCH   1  15
TORSDOF 5
ENDMDL
MODEL 9
REMARK VINA RESULT:      -5.8      1.350      1.391
REMARK  Name = 
REMARK  6 active torsions:
REMARK  status: ('A' for Active; 'I' for Inactive)
REMARK    1  A    between atoms: C_1  and  C_2
REMARK    2  A    between atoms: C_2  and  C_3
REMARK    3  A    between atoms: C_3  and  C_4
REMARK    4  A    between atoms: C_4  and  N_5
REMARK    5  A    between atoms: C_10  and  S_11
REMARK    6  A    between atoms: C_13  and  O_14
REMARK                            x       y       z     vdW  Elec       q    Type
REMARK                         _______ _______ _______ _____ _____    ______ ____
ROOT
ATOM      1  N   UNL     1       5.989   5.083  16.205  0.00  0.00    +0.000 NA
ATOM      2  C   UNL     1       5.570   6.456  16.523  0.00  0.00    +0.000 C 
ATOM      3  C   UNL     1       4.116   6.453  17.022  0.00  0.00    +0.000 C 
ATOM      4  C   UNL     1       3.877   5.408  18.080  0.00  0.00    +0.000 A 
ATOM      5  N   UNL     1       2.741   5.501  18.811  0.00  0.00    +0.000 NA
ATOM      6  C   UNL     1       2.530   4.530  19.719  0.00  0.00    +0.000 A 
ATOM      7  N   UNL     1       3.351   3.499  19.969  0.00  0.00    +0.000 NA
ATOM      8  C   UNL     1       4.449   3.466  19.214  0.00  0.00    +0.000 A 
ATOM      9  C   UNL     1       4.775   4.373  18.236  0.00  0.00    +0.000 A 
ATOM     10  C   UNL     1       6.034   4.275  17.437  0.00  0.00    +0.000 C 
ENDROOT
BRANCH   6  11
ATOM     11  S   UNL     1       1.036   4.632  20.660  0.00  0.00    +0.000 S 
ATOM     12  H   UNL     1       1.328   5.840  21.150  0.00  0.00    +0.000 HD
ENDBRANCH   6  11
BRANCH   8  13
ATOM     13  O   UNL     1       5.266   2.418  19.498  0.00  0.00    +0.000 OA
ATOM     14  H   UNL     1       5.670   2.724  20.329  0.00  0.00    +0.000 HD
ENDBRANCH   8  13
BRANCH   1  15
ATOM     15  C   UNL     1       7.264   5.048  15.476  0.00  0.00    +0.000 C 
BRANCH  15  16
ATOM     16  C   UNL     1       7.103   4.781  13.969  0.00  0.00    +0.000 C 
BRANCH  16  18
ATOM     17  C   UNL     1       6.001   3.259  12.281  0.00  0.00    +0.000 C 
ATOM     18  C   UNL     1       5.876   3.923  13.642  0.00  0.00    +0.000 C 
ENDBRANCH  16  18
ENDBRANCH  15  16
ENDBRANCH   1  15
TORSDOF 5
ENDMDL
