MODEL 1
REMARK VINA RESULT:      -6.1      0.000      0.000
REMARK  Name = 
REMARK  24 active torsions:
REMARK  status: ('A' for Active; 'I' for Inactive)
REMARK    1  A    between atoms: C_1  and  C_2
REMARK    2  A    between atoms: C_2  and  C_3
REMARK    3  A    between atoms: C_3  and  C_4
REMARK    4  A    between atoms: C_4  and  C_5
REMARK    5  A    between atoms: C_5  and  C_6
REMARK    6  A    between atoms: C_6  and  C_7
REMARK    7  A    between atoms: C_7  and  C_8
REMARK    8  A    between atoms: C_8  and  C_9
REMARK    9  A    between atoms: C_9  and  C_10
REMARK   10  A    between atoms: C_10  and  C_11
REMARK   11  A    between atoms: C_11  and  C_12
REMARK   12  A    between atoms: C_12  and  C_13
REMARK   13  A    between atoms: C_13  and  C_14
REMARK   14  A    between atoms: C_14  and  C_15
REMARK   15  A    between atoms: C_15  and  C_16
REMARK   16  A    between atoms: C_19  and  C_20
REMARK   17  A    between atoms: C_20  and  O_21
REMARK   18  A    between atoms: O_21  and  C_22
REMARK   19  A    between atoms: C_22  and  C_24
REMARK   20  A    between atoms: C_24  and  C_25
REMARK   21  A    between atoms: C_25  and  C_26
REMARK   22  A    between atoms: C_26  and  C_27
REMARK   23  A    between atoms: C_27  and  C_28
REMARK   24  A    between atoms: C_28  and  N_29
REMARK                            x       y       z     vdW  Elec       q    Type
REMARK                         _______ _______ _______ _____ _____    ______ ____
ROOT
ATOM      1  C   UNL     1       5.414   4.984  16.568  0.00  0.00    +0.000 C 
ATOM      2  C   UNL     1       4.285   5.821  17.151  0.00  0.00    +0.000 C 
ATOM      3  C   UNL     1       3.249   4.787  17.510  0.00  0.00    +0.000 C 
ATOM      4  C   UNL     1       4.102   3.597  17.914  0.00  0.00    +0.000 C 
ATOM      5  O   UNL     1       5.319   3.677  17.165  0.00  0.00    +0.000 OA
ENDROOT
BRANCH   4   6
ATOM      6  C   UNL     1       3.426   2.258  17.653  0.00  0.00    +0.000 C 
BRANCH   6   7
ATOM      7  O   UNL     1       3.052   1.622  18.878  0.00  0.00    +0.000 OA
BRANCH   7   8
ATOM      8  C   UNL     1       1.857   2.039  19.379  0.00  0.00    +0.000 C 
ATOM      9  O   UNL     1       0.814   2.182  18.741  0.00  0.00    +0.000 OA
BRANCH   8  10
ATOM     10  C   UNL     1       1.988   2.439  20.823  0.00  0.00    +0.000 C 
BRANCH  10  11
ATOM     11  C   UNL     1       1.197   3.707  21.125  0.00  0.00    +0.000 C 
BRANCH  11  12
ATOM     12  C   UNL     1       1.535   4.852  20.169  0.00  0.00    +0.000 C 
BRANCH  12  13
ATOM     13  C   UNL     1       1.773   6.145  20.942  0.00  0.00    +0.000 C 
BRANCH  13  14
ATOM     14  C   UNL     1       1.997   7.320  19.997  0.00  0.00    +0.000 C 
BRANCH  14  15
ATOM     15  N   UNL     1       1.200   8.480  20.407  0.00  0.00    +0.000 N 
ATOM     16  C   UNL     1       0.539   8.531  21.621  0.00  0.00    +0.000 A 
ATOM     17  C   UNL     1      -0.161   9.705  21.779  0.00  0.00    +0.000 A 
ATOM     18  S   UNL     1       0.048  10.709  20.399  0.00  0.00    +0.000 S 
ATOM     19  C   UNL     1       1.055   9.548  19.643  0.00  0.00    +0.000 A 
ENDBRANCH  14  15
ENDBRANCH  13  14
ENDBRANCH  12  13
ENDBRANCH  11  12
ENDBRANCH  10  11
ENDBRANCH   8  10
ENDBRANCH   7   8
ENDBRANCH   6   7
ENDBRANCH   4   6
BRANCH   1  20
ATOM     20  C   UNL     1       6.785   5.610  16.823  0.00  0.00    +0.000 C 
BRANCH  20  21
ATOM     21  C   UNL     1       6.678   7.069  17.249  0.00  0.00    +0.000 C 
BRANCH  21  22
ATOM     22  C   UNL     1       7.908   7.497  18.036  0.00  0.00    +0.000 C 
BRANCH  22  23
ATOM     23  C   UNL     1       8.214   8.958  17.748  0.00  0.00    +0.000 C 
BRANCH  23  24
ATOM     24  C   UNL     1       9.080   9.539  18.848  0.00  0.00    +0.000 C 
BRANCH  24  25
ATOM     25  C   UNL     1       9.099  11.053  18.747  0.00  0.00    +0.000 C 
BRANCH  25  26
ATOM     26  C   UNL     1      10.278  11.496  17.901  0.00  0.00    +0.000 C 
BRANCH  26  27
ATOM     27  C   UNL     1      10.141  12.966  17.551  0.00  0.00    +0.000 C 
BRANCH  27  28
ATOM     28  C   UNL     1      11.351  13.424  16.759  0.00  0.00    +0.000 C 
BRANCH  28  29
ATOM     29  C   UNL     1      11.790  14.798  17.230  0.00  0.00    +0.000 C 
BRANCH  29  30
ATOM     30  C   UNL     1      10.579  15.633  17.609  0.00  0.00    +0.000 C 
BRANCH  30  31
ATOM     31  C   UNL     1      10.967  16.687  18.635  0.00  0.00    +0.000 C 
BRANCH  31  32
ATOM     32  C   UNL     1      10.265  16.419  19.957  0.00  0.00    +0.000 C 
BRANCH  32  34
ATOM     33  C   UNL     1      10.244  14.093  20.876  0.00  0.00    +0.000 C 
ATOM     34  C   UNL     1      11.030  15.387  20.775  0.00  0.00    +0.000 C 
ENDBRANCH  32  34
ENDBRANCH  31  32
ENDBRANCH  30  31
ENDBRANCH  29  30
ENDBRANCH  28  29
ENDBRANCH  27  28
ENDBRANCH  26  27
ENDBRANCH  25  26
ENDBRANCH  24  25
ENDBRANCH  23  24
ENDBRANCH  22  23
ENDBRANCH  21  22
ENDBRANCH  20  21
ENDBRANCH   1  20
TORSDOF 23
ENDMDL
MODEL 2
REMARK VINA RESULT:      -6.0      4.245     10.416
REMARK  Name = 
REMARK  24 active torsions:
REMARK  status: ('A' for Active; 'I' for Inactive)
REMARK    1  A    between atoms: C_1  and  C_2
REMARK    2  A    between atoms: C_2  and  C_3
REMARK    3  A    between atoms: C_3  and  C_4
REMARK    4  A    between atoms: C_4  and  C_5
REMARK    5  A    between atoms: C_5  and  C_6
REMARK    6  A    between atoms: C_6  and  C_7
REMARK    7  A    between atoms: C_7  and  C_8
REMARK    8  A    between atoms: C_8  and  C_9
REMARK    9  A    between atoms: C_9  and  C_10
REMARK   10  A    between atoms: C_10  and  C_11
REMARK   11  A    between atoms: C_11  and  C_12
REMARK   12  A    between atoms: C_12  and  C_13
REMARK   13  A    between atoms: C_13  and  C_14
REMARK   14  A    between atoms: C_14  and  C_15
REMARK   15  A    between atoms: C_15  and  C_16
REMARK   16  A    between atoms: C_19  and  C_20
REMARK   17  A    between atoms: C_20  and  O_21
REMARK   18  A    between atoms: O_21  and  C_22
REMARK   19  A    between atoms: C_22  and  C_24
REMARK   20  A    between atoms: C_24  and  C_25
REMARK   21  A    between atoms: C_25  and  C_26
REMARK   22  A    between atoms: C_26  and  C_27
REMARK   23  A    between atoms: C_27  and  C_28
REMARK   24  A    between atoms: C_28  and  N_29
REMARK                            x       y       z     vdW  Elec       q    Type
REMARK                         _______ _______ _______ _____ _____    ______ ____
ROOT
ATOM      1  C   UNL     1       3.910   5.497  18.462  0.00  0.00    +0.000 C 
ATOM      2  C   UNL     1       3.717   4.293  17.552  0.00  0.00    +0.000 C 
ATOM      3  C   UNL     1       5.080   4.112  16.938  0.00  0.00    +0.000 C 
ATOM      4  C   UNL     1       6.005   4.545  18.061  0.00  0.00    +0.000 C 
ATOM      5  O   UNL     1       5.301   5.523  18.833  0.00  0.00    +0.000 OA
ENDROOT
BRANCH   4   6
ATOM      6  C   UNL     1       7.319   5.133  17.564  0.00  0.00    +0.000 C 
BRANCH   6   7
ATOM      7  O   UNL     1       7.774   6.180  18.425  0.00  0.00    +0.000 OA
BRANCH   7   8
ATOM      8  C   UNL     1       7.784   7.411  17.846  0.00  0.00    +0.000 C 
ATOM      9  O   UNL     1       7.292   7.703  16.755  0.00  0.00    +0.000 OA
BRANCH   8  10
ATOM     10  C   UNL     1       8.598   8.382  18.655  0.00  0.00    +0.000 C 
BRANCH  10  11
ATOM     11  C   UNL     1       8.522   9.792  18.081  0.00  0.00    +0.000 C 
BRANCH  11  12
ATOM     12  C   UNL     1       9.445  10.772  18.806  0.00  0.00    +0.000 C 
BRANCH  12  13
ATOM     13  C   UNL     1      10.276  11.568  17.804  0.00  0.00    +0.000 C 
BRANCH  13  14
ATOM     14  C   UNL     1      11.166  12.585  18.509  0.00  0.00    +0.000 C 
BRANCH  14  15
ATOM     15  N   UNL     1      10.893  13.942  18.028  0.00  0.00    +0.000 N 
ATOM     16  C   UNL     1       9.670  14.561  18.216  0.00  0.00    +0.000 A 
ATOM     17  C   UNL     1       9.637  15.819  17.662  0.00  0.00    +0.000 A 
ATOM     18  S   UNL     1      11.151  16.185  16.934  0.00  0.00    +0.000 S 
ATOM     19  C   UNL     1      11.791  14.660  17.378  0.00  0.00    +0.000 A 
ENDBRANCH  14  15
ENDBRANCH  13  14
ENDBRANCH  12  13
ENDBRANCH  11  12
ENDBRANCH  10  11
ENDBRANCH   8  10
ENDBRANCH   7   8
ENDBRANCH   6   7
ENDBRANCH   4   6
BRANCH   1  20
ATOM     20  C   UNL     1       3.010   5.436  19.697  0.00  0.00    +0.000 C 
BRANCH  20  21
ATOM     21  C   UNL     1       2.298   6.759  19.952  0.00  0.00    +0.000 C 
BRANCH  21  22
ATOM     22  C   UNL     1       2.442   7.691  18.757  0.00  0.00    +0.000 C 
BRANCH  22  23
ATOM     23  C   UNL     1       1.247   8.629  18.695  0.00  0.00    +0.000 C 
BRANCH  23  24
ATOM     24  C   UNL     1       1.678   9.996  18.203  0.00  0.00    +0.000 C 
BRANCH  24  25
ATOM     25  C   UNL     1       0.740  11.060  18.742  0.00  0.00    +0.000 C 
BRANCH  25  26
ATOM     26  C   UNL     1      -0.676  10.517  18.795  0.00  0.00    +0.000 C 
BRANCH  26  27
ATOM     27  C   UNL     1      -1.465  11.009  17.597  0.00  0.00    +0.000 C 
BRANCH  27  28
ATOM     28  C   UNL     1      -2.793  10.280  17.517  0.00  0.00    +0.000 C 
BRANCH  28  29
ATOM     29  C   UNL     1      -3.642  10.867  16.403  0.00  0.00    +0.000 C 
BRANCH  29  30
ATOM     30  C   UNL     1      -4.935  11.426  16.971  0.00  0.00    +0.000 C 
BRANCH  30  31
ATOM     31  C   UNL     1      -4.959  11.262  18.483  0.00  0.00    +0.000 C 
BRANCH  31  32
ATOM     32  C   UNL     1      -5.434  12.546  19.145  0.00  0.00    +0.000 C 
BRANCH  32  34
ATOM     33  C   UNL     1      -3.244  12.734  20.337  0.00  0.00    +0.000 C 
ATOM     34  C   UNL     1      -4.753  12.743  20.493  0.00  0.00    +0.000 C 
ENDBRANCH  32  34
ENDBRANCH  31  32
ENDBRANCH  30  31
ENDBRANCH  29  30
ENDBRANCH  28  29
ENDBRANCH  27  28
ENDBRANCH  26  27
ENDBRANCH  25  26
ENDBRANCH  24  25
ENDBRANCH  23  24
ENDBRANCH  22  23
ENDBRANCH  21  22
ENDBRANCH  20  21
ENDBRANCH   1  20
TORSDOF 23
ENDMDL
MODEL 3
REMARK VINA RESULT:      -6.0      4.968     10.145
REMARK  Name = 
REMARK  24 active torsions:
REMARK  status: ('A' for Active; 'I' for Inactive)
REMARK    1  A    between atoms: C_1  and  C_2
REMARK    2  A    between atoms: C_2  and  C_3
REMARK    3  A    between atoms: C_3  and  C_4
REMARK    4  A    between atoms: C_4  and  C_5
REMARK    5  A    between atoms: C_5  and  C_6
REMARK    6  A    between atoms: C_6  and  C_7
REMARK    7  A    between atoms: C_7  and  C_8
REMARK    8  A    between atoms: C_8  and  C_9
REMARK    9  A    between atoms: C_9  and  C_10
REMARK   10  A    between atoms: C_10  and  C_11
REMARK   11  A    between atoms: C_11  and  C_12
REMARK   12  A    between atoms: C_12  and  C_13
REMARK   13  A    between atoms: C_13  and  C_14
REMARK   14  A    between atoms: C_14  and  C_15
REMARK   15  A    between atoms: C_15  and  C_16
REMARK   16  A    between atoms: C_19  and  C_20
REMARK   17  A    between atoms: C_20  and  O_21
REMARK   18  A    between atoms: O_21  and  C_22
REMARK   19  A    between atoms: C_22  and  C_24
REMARK   20  A    between atoms: C_24  and  C_25
REMARK   21  A    between atoms: C_25  and  C_26
REMARK   22  A    between atoms: C_26  and  C_27
REMARK   23  A    between atoms: C_27  and  C_28
REMARK   24  A    between atoms: C_28  and  N_29
REMARK                            x       y       z     vdW  Elec       q    Type
REMARK                         _______ _______ _______ _____ _____    ______ ____
ROOT
ATOM      1  C   UNL     1       0.925   9.313  21.873  0.00  0.00    +0.000 C 
ATOM      2  C   UNL     1      -0.158   9.436  22.933  0.00  0.00    +0.000 C 
ATOM      3  C   UNL     1      -0.592  10.873  22.806  0.00  0.00    +0.000 C 
ATOM      4  C   UNL     1      -0.428  11.135  21.319  0.00  0.00    +0.000 C 
ATOM      5  O   UNL     1       0.634  10.293  20.859  0.00  0.00    +0.000 OA
ENDROOT
BRANCH   4   6
ATOM      6  C   UNL     1      -0.107  12.588  20.997  0.00  0.00    +0.000 C 
BRANCH   6   7
ATOM      7  O   UNL     1       1.005  12.684  20.103  0.00  0.00    +0.000 OA
BRANCH   7   8
ATOM      8  C   UNL     1       0.688  13.171  18.872  0.00  0.00    +0.000 C 
ATOM      9  O   UNL     1      -0.449  13.349  18.433  0.00  0.00    +0.000 OA
BRANCH   8  10
ATOM     10  C   UNL     1       1.921  13.356  18.031  0.00  0.00    +0.000 C 
BRANCH  10  11
ATOM     11  C   UNL     1       3.123  13.748  18.881  0.00  0.00    +0.000 C 
BRANCH  11  12
ATOM     12  C   UNL     1       4.039  14.750  18.176  0.00  0.00    +0.000 C 
BRANCH  12  13
ATOM     13  C   UNL     1       3.236  15.941  17.662  0.00  0.00    +0.000 C 
BRANCH  13  14
ATOM     14  C   UNL     1       2.956  16.942  18.778  0.00  0.00    +0.000 C 
BRANCH  14  15
ATOM     15  N   UNL     1       1.577  16.818  19.258  0.00  0.00    +0.000 N 
ATOM     16  C   UNL     1       1.278  16.461  20.561  0.00  0.00    +0.000 A 
ATOM     17  C   UNL     1      -0.079  16.387  20.777  0.00  0.00    +0.000 A 
ATOM     18  S   UNL     1      -0.930  16.781  19.336  0.00  0.00    +0.000 S 
ATOM     19  C   UNL     1       0.532  17.032  18.480  0.00  0.00    +0.000 A 
ENDBRANCH  14  15
ENDBRANCH  13  14
ENDBRANCH  12  13
ENDBRANCH  11  12
ENDBRANCH  10  11
ENDBRANCH   8  10
ENDBRANCH   7   8
ENDBRANCH   6   7
ENDBRANCH   4   6
BRANCH   1  20
ATOM     20  C   UNL     1       0.990   7.905  21.277  0.00  0.00    +0.000 C 
BRANCH  20  21
ATOM     21  C   UNL     1       1.978   7.819  20.120  0.00  0.00    +0.000 C 
BRANCH  21  22
ATOM     22  C   UNL     1       2.303   6.369  19.791  0.00  0.00    +0.000 C 
BRANCH  22  23
ATOM     23  C   UNL     1       1.475   5.449  20.673  0.00  0.00    +0.000 C 
BRANCH  23  24
ATOM     24  C   UNL     1       2.367   4.420  21.340  0.00  0.00    +0.000 C 
BRANCH  24  25
ATOM     25  C   UNL     1       2.474   3.184  20.466  0.00  0.00    +0.000 C 
BRANCH  25  26
ATOM     26  C   UNL     1       1.120   2.864  19.861  0.00  0.00    +0.000 C 
BRANCH  26  27
ATOM     27  C   UNL     1       1.193   2.951  18.349  0.00  0.00    +0.000 C 
BRANCH  27  28
ATOM     28  C   UNL     1       2.586   2.580  17.876  0.00  0.00    +0.000 C 
BRANCH  28  29
ATOM     29  C   UNL     1       3.206   3.744  17.124  0.00  0.00    +0.000 C 
BRANCH  29  30
ATOM     30  C   UNL     1       4.697   3.814  17.408  0.00  0.00    +0.000 C 
BRANCH  30  31
ATOM     31  C   UNL     1       5.105   5.246  17.723  0.00  0.00    +0.000 C 
BRANCH  31  32
ATOM     32  C   UNL     1       5.806   5.308  19.072  0.00  0.00    +0.000 C 
BRANCH  32  34
ATOM     33  C   UNL     1       7.461   6.706  17.823  0.00  0.00    +0.000 C 
ATOM     34  C   UNL     1       7.280   5.650  18.898  0.00  0.00    +0.000 C 
ENDBRANCH  32  34
ENDBRANCH  31  32
ENDBRANCH  30  31
ENDBRANCH  29  30
ENDBRANCH  28  29
ENDBRANCH  27  28
ENDBRANCH  26  27
ENDBRANCH  25  26
ENDBRANCH  24  25
ENDBRANCH  23  24
ENDBRANCH  22  23
ENDBRANCH  21  22
ENDBRANCH  20  21
ENDBRANCH   1  20
TORSDOF 23
ENDMDL
MODEL 4
REMARK VINA RESULT:      -5.9      1.776      2.833
REMARK  Name = 
REMARK  24 active torsions:
REMARK  status: ('A' for Active; 'I' for Inactive)
REMARK    1  A    between atoms: C_1  and  C_2
REMARK    2  A    between atoms: C_2  and  C_3
REMARK    3  A    between atoms: C_3  and  C_4
REMARK    4  A    between atoms: C_4  and  C_5
REMARK    5  A    between atoms: C_5  and  C_6
REMARK    6  A    between atoms: C_6  and  C_7
REMARK    7  A    between atoms: C_7  and  C_8
REMARK    8  A    between atoms: C_8  and  C_9
REMARK    9  A    between atoms: C_9  and  C_10
REMARK   10  A    between atoms: C_10  and  C_11
REMARK   11  A    between atoms: C_11  and  C_12
REMARK   12  A    between atoms: C_12  and  C_13
REMARK   13  A    between atoms: C_13  and  C_14
REMARK   14  A    between atoms: C_14  and  C_15
REMARK   15  A    between atoms: C_15  and  C_16
REMARK   16  A    between atoms: C_19  and  C_20
REMARK   17  A    between atoms: C_20  and  O_21
REMARK   18  A    between atoms: O_21  and  C_22
REMARK   19  A    between atoms: C_22  and  C_24
REMARK   20  A    between atoms: C_24  and  C_25
REMARK   21  A    between atoms: C_25  and  C_26
REMARK   22  A    between atoms: C_26  and  C_27
REMARK   23  A    between atoms: C_27  and  C_28
REMARK   24  A    between atoms: C_28  and  N_29
REMARK                            x       y       z     vdW  Elec       q    Type
REMARK                         _______ _______ _______ _____ _____    ______ ____
ROOT
ATOM      1  C   UNL     1       6.258   6.539  17.867  0.00  0.00    +0.000 C 
ATOM      2  C   UNL     1       6.685   5.597  18.982  0.00  0.00    +0.000 C 
ATOM      3  C   UNL     1       5.655   4.500  18.910  0.00  0.00    +0.000 C 
ATOM      4  C   UNL     1       5.353   4.432  17.423  0.00  0.00    +0.000 C 
ATOM      5  O   UNL     1       5.557   5.745  16.892  0.00  0.00    +0.000 OA
ENDROOT
BRANCH   4   6
ATOM      6  C   UNL     1       3.934   3.970  17.120  0.00  0.00    +0.000 C 
BRANCH   6   7
ATOM      7  O   UNL     1       2.982   4.992  17.424  0.00  0.00    +0.000 OA
BRANCH   7   8
ATOM      8  C   UNL     1       1.963   4.581  18.227  0.00  0.00    +0.000 C 
ATOM      9  O   UNL     1       1.149   3.694  17.969  0.00  0.00    +0.000 OA
BRANCH   8  10
ATOM     10  C   UNL     1       1.860   5.445  19.454  0.00  0.00    +0.000 C 
BRANCH  10  11
ATOM     11  C   UNL     1       2.572   6.779  19.258  0.00  0.00    +0.000 C 
BRANCH  11  12
ATOM     12  C   UNL     1       2.113   7.841  20.259  0.00  0.00    +0.000 C 
BRANCH  12  13
ATOM     13  C   UNL     1       0.723   7.510  20.794  0.00  0.00    +0.000 C 
BRANCH  13  14
ATOM     14  C   UNL     1       0.128   8.690  21.553  0.00  0.00    +0.000 C 
BRANCH  14  15
ATOM     15  N   UNL     1       0.104   9.893  20.715  0.00  0.00    +0.000 N 
ATOM     16  C   UNL     1      -0.652   9.974  19.560  0.00  0.00    +0.000 A 
ATOM     17  C   UNL     1      -0.500  11.186  18.927  0.00  0.00    +0.000 A 
ATOM     18  S   UNL     1       0.580  12.186  19.816  0.00  0.00    +0.000 S 
ATOM     19  C   UNL     1       0.808  10.973  21.003  0.00  0.00    +0.000 A 
ENDBRANCH  14  15
ENDBRANCH  13  14
ENDBRANCH  12  13
ENDBRANCH  11  12
ENDBRANCH  10  11
ENDBRANCH   8  10
ENDBRANCH   7   8
ENDBRANCH   6   7
ENDBRANCH   4   6
BRANCH   1  20
ATOM     20  C   UNL     1       7.449   7.262  17.236  0.00  0.00    +0.000 C 
BRANCH  20  21
ATOM     21  C   UNL     1       8.265   8.029  18.270  0.00  0.00    +0.000 C 
BRANCH  21  22
ATOM     22  C   UNL     1       8.229   9.524  17.990  0.00  0.00    +0.000 C 
BRANCH  22  23
ATOM     23  C   UNL     1       9.037  10.260  19.047  0.00  0.00    +0.000 C 
BRANCH  23  24
ATOM     24  C   UNL     1      10.277  10.871  18.426  0.00  0.00    +0.000 C 
BRANCH  24  25
ATOM     25  C   UNL     1      11.082  11.597  19.488  0.00  0.00    +0.000 C 
BRANCH  25  26
ATOM     26  C   UNL     1      10.258  11.733  20.754  0.00  0.00    +0.000 C 
BRANCH  26  27
ATOM     27  C   UNL     1      10.218  13.184  21.195  0.00  0.00    +0.000 C 
BRANCH  27  28
ATOM     28  C   UNL     1      11.003  14.042  20.220  0.00  0.00    +0.000 C 
BRANCH  28  29
ATOM     29  C   UNL     1      10.502  15.474  20.270  0.00  0.00    +0.000 C 
BRANCH  29  30
ATOM     30  C   UNL     1       9.419  15.686  19.226  0.00  0.00    +0.000 C 
BRANCH  30  31
ATOM     31  C   UNL     1       9.560  14.663  18.108  0.00  0.00    +0.000 C 
BRANCH  31  32
ATOM     32  C   UNL     1       8.268  13.876  17.949  0.00  0.00    +0.000 C 
BRANCH  32  34
ATOM     33  C   UNL     1       5.978  14.875  17.841  0.00  0.00    +0.000 C 
ATOM     34  C   UNL     1       7.142  14.520  18.747  0.00  0.00    +0.000 C 
ENDBRANCH  32  34
ENDBRANCH  31  32
ENDBRANCH  30  31
ENDBRANCH  29  30
ENDBRANCH  28  29
ENDBRANCH  27  28
ENDBRANCH  26  27
ENDBRANCH  25  26
ENDBRANCH  24  25
ENDBRANCH  23  24
ENDBRANCH  22  23
ENDBRANCH  21  22
ENDBRANCH  20  21
ENDBRANCH   1  20
TORSDOF 23
ENDMDL
MODEL 5
REMARK VINA RESULT:      -5.8      5.120     10.987
REMARK  Name = 
REMARK  24 active torsions:
REMARK  status: ('A' for Active; 'I' for Inactive)
REMARK    1  A    between atoms: C_1  and  C_2
REMARK    2  A    between atoms: C_2  and  C_3
REMARK    3  A    between atoms: C_3  and  C_4
REMARK    4  A    between atoms: C_4  and  C_5
REMARK    5  A    between atoms: C_5  and  C_6
REMARK    6  A    between atoms: C_6  and  C_7
REMARK    7  A    between atoms: C_7  and  C_8
REMARK    8  A    between atoms: C_8  and  C_9
REMARK    9  A    between atoms: C_9  and  C_10
REMARK   10  A    between atoms: C_10  and  C_11
REMARK   11  A    between atoms: C_11  and  C_12
REMARK   12  A    between atoms: C_12  and  C_13
REMARK   13  A    between atoms: C_13  and  C_14
REMARK   14  A    between atoms: C_14  and  C_15
REMARK   15  A    between atoms: C_15  and  C_16
REMARK   16  A    between atoms: C_19  and  C_20
REMARK   17  A    between atoms: C_20  and  O_21
REMARK   18  A    between atoms: O_21  and  C_22
REMARK   19  A    between atoms: C_22  and  C_24
REMARK   20  A    between atoms: C_24  and  C_25
REMARK   21  A    between atoms: C_25  and  C_26
REMARK   22  A    between atoms: C_26  and  C_27
REMARK   23  A    between atoms: C_27  and  C_28
REMARK   24  A    between atoms: C_28  and  N_29
REMARK                            x       y       z     vdW  Elec       q    Type
REMARK                         _______ _______ _______ _____ _____    ______ ____
ROOT
ATOM      1  C   UNL     1       1.001  10.412  19.265  0.00  0.00    +0.000 C 
ATOM      2  C   UNL     1       0.005  10.074  20.364  0.00  0.00    +0.000 C 
ATOM      3  C   UNL     1      -0.411  11.429  20.873  0.00  0.00    +0.000 C 
ATOM      4  C   UNL     1      -0.357  12.280  19.616  0.00  0.00    +0.000 C 
ATOM      5  O   UNL     1       0.650  11.718  18.769  0.00  0.00    +0.000 OA
ENDROOT
BRANCH   4   6
ATOM      6  C   UNL     1      -0.036  13.742  19.893  0.00  0.00    +0.000 C 
BRANCH   6   7
ATOM      7  O   UNL     1       1.069  14.187  19.102  0.00  0.00    +0.000 OA
BRANCH   7   8
ATOM      8  C   UNL     1       1.066  15.524  18.845  0.00  0.00    +0.000 C 
ATOM      9  O   UNL     1       0.074  16.215  18.609  0.00  0.00    +0.000 OA
BRANCH   8  10
ATOM     10  C   UNL     1       2.469  16.059  18.757  0.00  0.00    +0.000 C 
BRANCH  10  11
ATOM     11  C   UNL     1       3.239  15.420  17.607  0.00  0.00    +0.000 C 
BRANCH  11  12
ATOM     12  C   UNL     1       4.750  15.417  17.844  0.00  0.00    +0.000 C 
BRANCH  12  13
ATOM     13  C   UNL     1       5.063  15.149  19.313  0.00  0.00    +0.000 C 
BRANCH  13  14
ATOM     14  C   UNL     1       6.170  16.068  19.818  0.00  0.00    +0.000 C 
BRANCH  14  15
ATOM     15  N   UNL     1       7.446  15.756  19.168  0.00  0.00    +0.000 N 
ATOM     16  C   UNL     1       8.110  16.668  18.368  0.00  0.00    +0.000 A 
ATOM     17  C   UNL     1       9.273  16.149  17.848  0.00  0.00    +0.000 A 
ATOM     18  S   UNL     1       9.497  14.534  18.395  0.00  0.00    +0.000 S 
ATOM     19  C   UNL     1       8.041  14.584  19.297  0.00  0.00    +0.000 A 
ENDBRANCH  14  15
ENDBRANCH  13  14
ENDBRANCH  12  13
ENDBRANCH  11  12
ENDBRANCH  10  11
ENDBRANCH   8  10
ENDBRANCH   7   8
ENDBRANCH   6   7
ENDBRANCH   4   6
BRANCH   1  20
ATOM     20  C   UNL     1       0.994   9.375  18.142  0.00  0.00    +0.000 C 
BRANCH  20  21
ATOM     21  C   UNL     1       2.388   8.826  17.861  0.00  0.00    +0.000 C 
BRANCH  21  22
ATOM     22  C   UNL     1       2.442   7.327  18.116  0.00  0.00    +0.000 C 
BRANCH  22  23
ATOM     23  C   UNL     1       2.335   7.059  19.608  0.00  0.00    +0.000 C 
BRANCH  23  24
ATOM     24  C   UNL     1       2.577   5.591  19.896  0.00  0.00    +0.000 C 
BRANCH  24  25
ATOM     25  C   UNL     1       1.460   5.043  20.765  0.00  0.00    +0.000 C 
BRANCH  25  26
ATOM     26  C   UNL     1       1.029   3.683  20.249  0.00  0.00    +0.000 C 
BRANCH  26  27
ATOM     27  C   UNL     1       1.303   3.581  18.761  0.00  0.00    +0.000 C 
BRANCH  27  28
ATOM     28  C   UNL     1       1.842   2.203  18.427  0.00  0.00    +0.000 C 
BRANCH  28  29
ATOM     29  C   UNL     1       3.192   2.325  17.743  0.00  0.00    +0.000 C 
BRANCH  29  30
ATOM     30  C   UNL     1       3.308   3.673  17.053  0.00  0.00    +0.000 C 
BRANCH  30  31
ATOM     31  C   UNL     1       4.709   4.237  17.234  0.00  0.00    +0.000 C 
BRANCH  31  32
ATOM     32  C   UNL     1       5.007   5.267  16.155  0.00  0.00    +0.000 C 
BRANCH  32  34
ATOM     33  C   UNL     1       6.346   6.072  18.107  0.00  0.00    +0.000 C 
ATOM     34  C   UNL     1       5.847   6.408  16.714  0.00  0.00    +0.000 C 
ENDBRANCH  32  34
ENDBRANCH  31  32
ENDBRANCH  30  31
ENDBRANCH  29  30
ENDBRANCH  28  29
ENDBRANCH  27  28
ENDBRANCH  26  27
ENDBRANCH  25  26
ENDBRANCH  24  25
ENDBRANCH  23  24
ENDBRANCH  22  23
ENDBRANCH  21  22
ENDBRANCH  20  21
ENDBRANCH   1  20
TORSDOF 23
ENDMDL
MODEL 6
REMARK VINA RESULT:      -5.8      6.139     10.151
REMARK  Name = 
REMARK  24 active torsions:
REMARK  status: ('A' for Active; 'I' for Inactive)
REMARK    1  A    between atoms: C_1  and  C_2
REMARK    2  A    between atoms: C_2  and  C_3
REMARK    3  A    between atoms: C_3  and  C_4
REMARK    4  A    between atoms: C_4  and  C_5
REMARK    5  A    between atoms: C_5  and  C_6
REMARK    6  A    between atoms: C_6  and  C_7
REMARK    7  A    between atoms: C_7  and  C_8
REMARK    8  A    between atoms: C_8  and  C_9
REMARK    9  A    between atoms: C_9  and  C_10
REMARK   10  A    between atoms: C_10  and  C_11
REMARK   11  A    between atoms: C_11  and  C_12
REMARK   12  A    between atoms: C_12  and  C_13
REMARK   13  A    between atoms: C_13  and  C_14
REMARK   14  A    between atoms: C_14  and  C_15
REMARK   15  A    between atoms: C_15  and  C_16
REMARK   16  A    between atoms: C_19  and  C_20
REMARK   17  A    between atoms: C_20  and  O_21
REMARK   18  A    between atoms: O_21  and  C_22
REMARK   19  A    between atoms: C_22  and  C_24
REMARK   20  A    between atoms: C_24  and  C_25
REMARK   21  A    between atoms: C_25  and  C_26
REMARK   22  A    between atoms: C_26  and  C_27
REMARK   23  A    between atoms: C_27  and  C_28
REMARK   24  A    between atoms: C_28  and  N_29
REMARK                            x       y       z     vdW  Elec       q    Type
REMARK                         _______ _______ _______ _____ _____    ______ ____
ROOT
ATOM      1  C   UNL     1       1.609   8.826  20.939  0.00  0.00    +0.000 C 
ATOM      2  C   UNL     1       1.656   8.626  19.431  0.00  0.00    +0.000 C 
ATOM      3  C   UNL     1       2.011   7.169  19.294  0.00  0.00    +0.000 C 
ATOM      4  C   UNL     1       1.321   6.550  20.497  0.00  0.00    +0.000 C 
ATOM      5  O   UNL     1       1.281   7.550  21.520  0.00  0.00    +0.000 OA
ENDROOT
BRANCH   4   6
ATOM      6  C   UNL     1       2.027   5.308  21.021  0.00  0.00    +0.000 C 
BRANCH   6   7
ATOM      7  O   UNL     1       1.266   4.128  20.749  0.00  0.00    +0.000 OA
BRANCH   7   8
ATOM      8  C   UNL     1       1.895   2.970  21.090  0.00  0.00    +0.000 C 
ATOM      9  O   UNL     1       2.440   2.731  22.168  0.00  0.00    +0.000 OA
BRANCH   8  10
ATOM     10  C   UNL     1       1.961   2.028  19.920  0.00  0.00    +0.000 C 
BRANCH  10  11
ATOM     11  C   UNL     1       1.283   2.618  18.689  0.00  0.00    +0.000 C 
BRANCH  11  12
ATOM     12  C   UNL     1       2.273   2.921  17.563  0.00  0.00    +0.000 C 
BRANCH  12  13
ATOM     13  C   UNL     1       3.708   2.714  18.039  0.00  0.00    +0.000 C 
BRANCH  13  14
ATOM     14  C   UNL     1       4.387   4.045  18.342  0.00  0.00    +0.000 C 
BRANCH  14  15
ATOM     15  N   UNL     1       4.895   4.664  17.115  0.00  0.00    +0.000 N 
ATOM     16  C   UNL     1       4.804   6.025  16.882  0.00  0.00    +0.000 A 
ATOM     17  C   UNL     1       5.326   6.374  15.658  0.00  0.00    +0.000 A 
ATOM     18  S   UNL     1       5.926   4.981  14.850  0.00  0.00    +0.000 S 
ATOM     19  C   UNL     1       5.466   3.966  16.151  0.00  0.00    +0.000 A 
ENDBRANCH  14  15
ENDBRANCH  13  14
ENDBRANCH  12  13
ENDBRANCH  11  12
ENDBRANCH  10  11
ENDBRANCH   8  10
ENDBRANCH   7   8
ENDBRANCH   6   7
ENDBRANCH   4   6
BRANCH   1  20
ATOM     20  C   UNL     1       0.596   9.896  21.347  0.00  0.00    +0.000 C 
BRANCH  20  21
ATOM     21  C   UNL     1       0.098   9.698  22.774  0.00  0.00    +0.000 C 
BRANCH  21  22
ATOM     22  C   UNL     1      -1.095  10.598  23.062  0.00  0.00    +0.000 C 
BRANCH  22  23
ATOM     23  C   UNL     1      -1.437  11.403  21.819  0.00  0.00    +0.000 C 
BRANCH  23  24
ATOM     24  C   UNL     1      -2.520  12.417  22.134  0.00  0.00    +0.000 C 
BRANCH  24  25
ATOM     25  C   UNL     1      -2.555  13.487  21.058  0.00  0.00    +0.000 C 
BRANCH  25  26
ATOM     26  C   UNL     1      -3.983  13.704  20.597  0.00  0.00    +0.000 C 
BRANCH  26  27
ATOM     27  C   UNL     1      -4.936  12.905  21.465  0.00  0.00    +0.000 C 
BRANCH  27  28
ATOM     28  C   UNL     1      -5.778  11.986  20.600  0.00  0.00    +0.000 C 
BRANCH  28  29
ATOM     29  C   UNL     1      -5.478  12.234  19.133  0.00  0.00    +0.000 C 
BRANCH  29  30
ATOM     30  C   UNL     1      -5.666  10.954  18.337  0.00  0.00    +0.000 C 
BRANCH  30  31
ATOM     31  C   UNL     1      -4.319  10.415  17.883  0.00  0.00    +0.000 C 
BRANCH  31  32
ATOM     32  C   UNL     1      -3.552  11.486  17.122  0.00  0.00    +0.000 C 
BRANCH  32  34
ATOM     33  C   UNL     1      -1.734  10.468  18.505  0.00  0.00    +0.000 C 
ATOM     34  C   UNL     1      -2.173  11.698  17.733  0.00  0.00    +0.000 C 
ENDBRANCH  32  34
ENDBRANCH  31  32
ENDBRANCH  30  31
ENDBRANCH  29  30
ENDBRANCH  28  29
ENDBRANCH  27  28
ENDBRANCH  26  27
ENDBRANCH  25  26
ENDBRANCH  24  25
ENDBRANCH  23  24
ENDBRANCH  22  23
ENDBRANCH  21  22
ENDBRANCH  20  21
ENDBRANCH   1  20
TORSDOF 23
ENDMDL
MODEL 7
REMARK VINA RESULT:      -5.8      1.607      2.226
REMARK  Name = 
REMARK  24 active torsions:
REMARK  status: ('A' for Active; 'I' for Inactive)
REMARK    1  A    between atoms: C_1  and  C_2
REMARK    2  A    between atoms: C_2  and  C_3
REMARK    3  A    between atoms: C_3  and  C_4
REMARK    4  A    between atoms: C_4  and  C_5
REMARK    5  A    between atoms: C_5  and  C_6
REMARK    6  A    between atoms: C_6  and  C_7
REMARK    7  A    between atoms: C_7  and  C_8
REMARK    8  A    between atoms: C_8  and  C_9
REMARK    9  A    between atoms: C_9  and  C_10
REMARK   10  A    between atoms: C_10  and  C_11
REMARK   11  A    between atoms: C_11  and  C_12
REMARK   12  A    between atoms: C_12  and  C_13
REMARK   13  A    between atoms: C_13  and  C_14
REMARK   14  A    between atoms: C_14  and  C_15
REMARK   15  A    between atoms: C_15  and  C_16
REMARK   16  A    between atoms: C_19  and  C_20
REMARK   17  A    between atoms: C_20  and  O_21
REMARK   18  A    between atoms: O_21  and  C_22
REMARK   19  A    between atoms: C_22  and  C_24
REMARK   20  A    between atoms: C_24  and  C_25
REMARK   21  A    between atoms: C_25  and  C_26
REMARK   22  A    between atoms: C_26  and  C_27
REMARK   23  A    between atoms: C_27  and  C_28
REMARK   24  A    between atoms: C_28  and  N_29
REMARK                            x       y       z     vdW  Elec       q    Type
REMARK                         _______ _______ _______ _____ _____    ______ ____
ROOT
ATOM      1  C   UNL     1       5.364   6.202  18.040  0.00  0.00    +0.000 C 
ATOM      2  C   UNL     1       6.131   5.308  19.003  0.00  0.00    +0.000 C 
ATOM      3  C   UNL     1       5.292   4.058  19.044  0.00  0.00    +0.000 C 
ATOM      4  C   UNL     1       4.739   3.989  17.631  0.00  0.00    +0.000 C 
ATOM      5  O   UNL     1       4.632   5.334  17.154  0.00  0.00    +0.000 OA
ENDROOT
BRANCH   4   6
ATOM      6  C   UNL     1       3.380   3.307  17.551  0.00  0.00    +0.000 C 
BRANCH   6   7
ATOM      7  O   UNL     1       2.911   2.936  18.850  0.00  0.00    +0.000 OA
BRANCH   7   8
ATOM      8  C   UNL     1       1.727   3.509  19.198  0.00  0.00    +0.000 C 
ATOM      9  O   UNL     1       0.683   2.912  19.463  0.00  0.00    +0.000 OA
BRANCH   8  10
ATOM     10  C   UNL     1       1.802   5.007  19.099  0.00  0.00    +0.000 C 
BRANCH  10  11
ATOM     11  C   UNL     1       1.762   5.662  20.475  0.00  0.00    +0.000 C 
BRANCH  11  12
ATOM     12  C   UNL     1       1.959   7.177  20.410  0.00  0.00    +0.000 C 
BRANCH  12  13
ATOM     13  C   UNL     1       0.888   7.892  21.228  0.00  0.00    +0.000 C 
BRANCH  13  14
ATOM     14  C   UNL     1       1.316   9.314  21.574  0.00  0.00    +0.000 C 
BRANCH  14  15
ATOM     15  N   UNL     1       0.619  10.290  20.731  0.00  0.00    +0.000 N 
ATOM     16  C   UNL     1       1.039  11.604  20.621  0.00  0.00    +0.000 A 
ATOM     17  C   UNL     1       0.221  12.339  19.793  0.00  0.00    +0.000 A 
ATOM     18  S   UNL     1      -1.039  11.347  19.174  0.00  0.00    +0.000 S 
ATOM     19  C   UNL     1      -0.456   9.983  20.028  0.00  0.00    +0.000 A 
ENDBRANCH  14  15
ENDBRANCH  13  14
ENDBRANCH  12  13
ENDBRANCH  11  12
ENDBRANCH  10  11
ENDBRANCH   8  10
ENDBRANCH   7   8
ENDBRANCH   6   7
ENDBRANCH   4   6
BRANCH   1  20
ATOM     20  C   UNL     1       6.291   7.134  17.258  0.00  0.00    +0.000 C 
BRANCH  20  21
ATOM     21  C   UNL     1       7.666   7.248  17.904  0.00  0.00    +0.000 C 
BRANCH  21  22
ATOM     22  C   UNL     1       8.396   8.490  17.413  0.00  0.00    +0.000 C 
BRANCH  22  23
ATOM     23  C   UNL     1       7.971   9.691  18.241  0.00  0.00    +0.000 C 
BRANCH  23  24
ATOM     24  C   UNL     1       9.178  10.318  18.911  0.00  0.00    +0.000 C 
BRANCH  24  25
ATOM     25  C   UNL     1       9.948  11.157  17.908  0.00  0.00    +0.000 C 
BRANCH  25  26
ATOM     26  C   UNL     1      11.306  11.521  18.478  0.00  0.00    +0.000 C 
BRANCH  26  27
ATOM     27  C   UNL     1      11.916  12.658  17.681  0.00  0.00    +0.000 C 
BRANCH  27  28
ATOM     28  C   UNL     1      10.864  13.715  17.399  0.00  0.00    +0.000 C 
BRANCH  28  29
ATOM     29  C   UNL     1      11.197  14.991  18.150  0.00  0.00    +0.000 C 
BRANCH  29  30
ATOM     30  C   UNL     1      10.446  15.033  19.470  0.00  0.00    +0.000 C 
BRANCH  30  31
ATOM     31  C   UNL     1       9.074  14.393  19.314  0.00  0.00    +0.000 C 
BRANCH  31  32
ATOM     32  C   UNL     1       8.009  15.467  19.151  0.00  0.00    +0.000 C 
BRANCH  32  34
ATOM     33  C   UNL     1       7.220  13.745  17.519  0.00  0.00    +0.000 C 
ATOM     34  C   UNL     1       7.171  15.211  17.905  0.00  0.00    +0.000 C 
ENDBRANCH  32  34
ENDBRANCH  31  32
ENDBRANCH  30  31
ENDBRANCH  29  30
ENDBRANCH  28  29
ENDBRANCH  27  28
ENDBRANCH  26  27
ENDBRANCH  25  26
ENDBRANCH  24  25
ENDBRANCH  23  24
ENDBRANCH  22  23
ENDBRANCH  21  22
ENDBRANCH  20  21
ENDBRANCH   1  20
TORSDOF 23
ENDMDL
MODEL 8
REMARK VINA RESULT:      -5.8      5.587      8.960
REMARK  Name = 
REMARK  24 active torsions:
REMARK  status: ('A' for Active; 'I' for Inactive)
REMARK    1  A    between atoms: C_1  and  C_2
REMARK    2  A    between atoms: C_2  and  C_3
REMARK    3  A    between atoms: C_3  and  C_4
REMARK    4  A    between atoms: C_4  and  C_5
REMARK    5  A    between atoms: C_5  and  C_6
REMARK    6  A    between atoms: C_6  and  C_7
REMARK    7  A    between atoms: C_7  and  C_8
REMARK    8  A    between atoms: C_8  and  C_9
REMARK    9  A    between atoms: C_9  and  C_10
REMARK   10  A    between atoms: C_10  and  C_11
REMARK   11  A    between atoms: C_11  and  C_12
REMARK   12  A    between atoms: C_12  and  C_13
REMARK   13  A    between atoms: C_13  and  C_14
REMARK   14  A    between atoms: C_14  and  C_15
REMARK   15  A    between atoms: C_15  and  C_16
REMARK   16  A    between atoms: C_19  and  C_20
REMARK   17  A    between atoms: C_20  and  O_21
REMARK   18  A    between atoms: O_21  and  C_22
REMARK   19  A    between atoms: C_22  and  C_24
REMARK   20  A    between atoms: C_24  and  C_25
REMARK   21  A    between atoms: C_25  and  C_26
REMARK   22  A    between atoms: C_26  and  C_27
REMARK   23  A    between atoms: C_27  and  C_28
REMARK   24  A    between atoms: C_28  and  N_29
REMARK                            x       y       z     vdW  Elec       q    Type
REMARK                         _______ _______ _______ _____ _____    ______ ____
ROOT
ATOM      1  C   UNL     1       6.448   6.308  18.597  0.00  0.00    +0.000 C 
ATOM      2  C   UNL     1       5.585   5.186  19.155  0.00  0.00    +0.000 C 
ATOM      3  C   UNL     1       4.192   5.749  19.053  0.00  0.00    +0.000 C 
ATOM      4  C   UNL     1       4.273   6.597  17.795  0.00  0.00    +0.000 C 
ATOM      5  O   UNL     1       5.624   7.056  17.684  0.00  0.00    +0.000 OA
ENDROOT
BRANCH   4   6
ATOM      6  C   UNL     1       3.326   7.789  17.812  0.00  0.00    +0.000 C 
BRANCH   6   7
ATOM      7  O   UNL     1       2.149   7.502  18.573  0.00  0.00    +0.000 OA
BRANCH   7   8
ATOM      8  C   UNL     1       1.593   8.593  19.168  0.00  0.00    +0.000 C 
ATOM      9  O   UNL     1       1.489   8.784  20.380  0.00  0.00    +0.000 OA
BRANCH   8  10
ATOM     10  C   UNL     1       0.985   9.513  18.145  0.00  0.00    +0.000 C 
BRANCH  10  11
ATOM     11  C   UNL     1      -0.344  10.083  18.626  0.00  0.00    +0.000 C 
BRANCH  11  12
ATOM     12  C   UNL     1      -1.377  10.189  17.504  0.00  0.00    +0.000 C 
BRANCH  12  13
ATOM     13  C   UNL     1      -2.074  11.546  17.541  0.00  0.00    +0.000 C 
BRANCH  13  14
ATOM     14  C   UNL     1      -2.109  12.109  18.957  0.00  0.00    +0.000 C 
BRANCH  14  15
ATOM     15  N   UNL     1      -3.489  12.227  19.439  0.00  0.00    +0.000 N 
ATOM     16  C   UNL     1      -4.570  11.779  18.701  0.00  0.00    +0.000 A 
ATOM     17  C   UNL     1      -5.764  12.014  19.342  0.00  0.00    +0.000 A 
ATOM     18  S   UNL     1      -5.484  12.779  20.856  0.00  0.00    +0.000 S 
ATOM     19  C   UNL     1      -3.790  12.773  20.603  0.00  0.00    +0.000 A 
ENDBRANCH  14  15
ENDBRANCH  13  14
ENDBRANCH  12  13
ENDBRANCH  11  12
ENDBRANCH  10  11
ENDBRANCH   8  10
ENDBRANCH   7   8
ENDBRANCH   6   7
ENDBRANCH   4   6
BRANCH   1  20
ATOM     20  C   UNL     1       7.702   5.777  17.900  0.00  0.00    +0.000 C 
BRANCH  20  21
ATOM     21  C   UNL     1       7.411   4.533  17.069  0.00  0.00    +0.000 C 
BRANCH  21  22
ATOM     22  C   UNL     1       7.283   4.884  15.593  0.00  0.00    +0.000 C 
BRANCH  22  23
ATOM     23  C   UNL     1       5.814   4.920  15.204  0.00  0.00    +0.000 C 
BRANCH  23  24
ATOM     24  C   UNL     1       5.224   3.525  15.259  0.00  0.00    +0.000 C 
BRANCH  24  25
ATOM     25  C   UNL     1       4.012   3.512  16.172  0.00  0.00    +0.000 C 
BRANCH  25  26
ATOM     26  C   UNL     1       4.169   2.427  17.220  0.00  0.00    +0.000 C 
BRANCH  26  27
ATOM     27  C   UNL     1       2.838   2.164  17.899  0.00  0.00    +0.000 C 
BRANCH  27  28
ATOM     28  C   UNL     1       1.963   3.400  17.819  0.00  0.00    +0.000 C 
BRANCH  28  29
ATOM     29  C   UNL     1       0.583   3.097  18.372  0.00  0.00    +0.000 C 
BRANCH  29  30
ATOM     30  C   UNL     1       0.634   3.009  19.888  0.00  0.00    +0.000 C 
BRANCH  30  31
ATOM     31  C   UNL     1       1.109   4.330  20.475  0.00  0.00    +0.000 C 
BRANCH  31  32
ATOM     32  C   UNL     1       2.291   4.098  21.404  0.00  0.00    +0.000 C 
BRANCH  32  34
ATOM     33  C   UNL     1       4.023   2.350  20.959  0.00  0.00    +0.000 C 
ATOM     34  C   UNL     1       2.627   2.615  21.490  0.00  0.00    +0.000 C 
ENDBRANCH  32  34
ENDBRANCH  31  32
ENDBRANCH  30  31
ENDBRANCH  29  30
ENDBRANCH  28  29
ENDBRANCH  27  28
ENDBRANCH  26  27
ENDBRANCH  25  26
ENDBRANCH  24  25
ENDBRANCH  23  24
ENDBRANCH  22  23
ENDBRANCH  21  22
ENDBRANCH  20  21
ENDBRANCH   1  20
TORSDOF 23
ENDMDL
MODEL 9
REMARK VINA RESULT:      -5.8      5.828      9.066
REMARK  Name = 
REMARK  24 active torsions:
REMARK  status: ('A' for Active; 'I' for Inactive)
REMARK    1  A    between atoms: C_1  and  C_2
REMARK    2  A    between atoms: C_2  and  C_3
REMARK    3  A    between atoms: C_3  and  C_4
REMARK    4  A    between atoms: C_4  and  C_5
REMARK    5  A    between atoms: C_5  and  C_6
REMARK    6  A    between atoms: C_6  and  C_7
REMARK    7  A    between atoms: C_7  and  C_8
REMARK    8  A    between atoms: C_8  and  C_9
REMARK    9  A    between atoms: C_9  and  C_10
REMARK   10  A    between atoms: C_10  and  C_11
REMARK   11  A    between atoms: C_11  and  C_12
REMARK   12  A    between atoms: C_12  and  C_13
REMARK   13  A    between atoms: C_13  and  C_14
REMARK   14  A    between atoms: C_14  and  C_15
REMARK   15  A    between atoms: C_15  and  C_16
REMARK   16  A    between atoms: C_19  and  C_20
REMARK   17  A    between atoms: C_20  and  O_21
REMARK   18  A    between atoms: O_21  and  C_22
REMARK   19  A    between atoms: C_22  and  C_24
REMARK   20  A    between atoms: C_24  and  C_25
REMARK   21  A    between atoms: C_25  and  C_26
REMARK   22  A    between atoms: C_26  and  C_27
REMARK   23  A    between atoms: C_27  and  C_28
REMARK   24  A    between atoms: C_28  and  N_29
REMARK                            x       y       z     vdW  Elec       q    Type
REMARK                         _______ _______ _______ _____ _____    ______ ____
ROOT
ATOM      1  C   UNL     1       2.460   7.306  19.253  0.00  0.00    +0.000 C 
ATOM      2  C   UNL     1       1.808   6.851  20.550  0.00  0.00    +0.000 C 
ATOM      3  C   UNL     1       1.289   8.137  21.137  0.00  0.00    +0.000 C 
ATOM      4  C   UNL     1       0.915   8.934  19.899  0.00  0.00    +0.000 C 
ATOM      5  O   UNL     1       1.789   8.513  18.847  0.00  0.00    +0.000 OA
ENDROOT
BRANCH   4   6
ATOM      6  C   UNL     1       1.034  10.439  20.095  0.00  0.00    +0.000 C 
BRANCH   6   7
ATOM      7  O   UNL     1       0.903  11.133  18.851  0.00  0.00    +0.000 OA
BRANCH   7   8
ATOM      8  C   UNL     1       0.242  12.320  18.944  0.00  0.00    +0.000 C 
ATOM      9  O   UNL     1       0.761  13.430  19.065  0.00  0.00    +0.000 OA
BRANCH   8  10
ATOM     10  C   UNL     1      -1.245  12.106  19.012  0.00  0.00    +0.000 C 
BRANCH  10  11
ATOM     11  C   UNL     1      -1.805  11.649  17.670  0.00  0.00    +0.000 C 
BRANCH  11  12
ATOM     12  C   UNL     1      -2.297  10.201  17.701  0.00  0.00    +0.000 C 
BRANCH  12  13
ATOM     13  C   UNL     1      -3.805  10.143  17.480  0.00  0.00    +0.000 C 
BRANCH  13  14
ATOM     14  C   UNL     1      -4.414  11.540  17.452  0.00  0.00    +0.000 C 
BRANCH  14  15
ATOM     15  N   UNL     1      -5.423  11.693  18.504  0.00  0.00    +0.000 N 
ATOM     16  C   UNL     1      -6.370  10.720  18.767  0.00  0.00    +0.000 A 
ATOM     17  C   UNL     1      -7.224  11.091  19.780  0.00  0.00    +0.000 A 
ATOM     18  S   UNL     1      -6.796  12.646  20.375  0.00  0.00    +0.000 S 
ATOM     19  C   UNL     1      -5.498  12.771  19.265  0.00  0.00    +0.000 A 
ENDBRANCH  14  15
ENDBRANCH  13  14
ENDBRANCH  12  13
ENDBRANCH  11  12
ENDBRANCH  10  11
ENDBRANCH   8  10
ENDBRANCH   7   8
ENDBRANCH   6   7
ENDBRANCH   4   6
BRANCH   1  20
ATOM     20  C   UNL     1       2.380   6.237  18.162  0.00  0.00    +0.000 C 
BRANCH  20  21
ATOM     21  C   UNL     1       1.694   4.968  18.654  0.00  0.00    +0.000 C 
BRANCH  21  22
ATOM     22  C   UNL     1       1.641   3.918  17.553  0.00  0.00    +0.000 C 
BRANCH  22  23
ATOM     23  C   UNL     1       2.426   2.690  17.983  0.00  0.00    +0.000 C 
BRANCH  23  24
ATOM     24  C   UNL     1       3.909   3.001  18.013  0.00  0.00    +0.000 C 
BRANCH  24  25
ATOM     25  C   UNL     1       4.360   3.232  19.444  0.00  0.00    +0.000 C 
BRANCH  25  26
ATOM     26  C   UNL     1       5.716   3.911  19.452  0.00  0.00    +0.000 C 
BRANCH  26  27
ATOM     27  C   UNL     1       5.562   5.382  19.119  0.00  0.00    +0.000 C 
BRANCH  27  28
ATOM     28  C   UNL     1       6.688   5.827  18.205  0.00  0.00    +0.000 C 
BRANCH  28  29
ATOM     29  C   UNL     1       6.134   6.660  17.064  0.00  0.00    +0.000 C 
BRANCH  29  30
ATOM     30  C   UNL     1       5.299   5.791  16.139  0.00  0.00    +0.000 C 
BRANCH  30  31
ATOM     31  C   UNL     1       5.959   5.692  14.773  0.00  0.00    +0.000 C 
BRANCH  31  32
ATOM     32  C   UNL     1       6.246   4.237  14.431  0.00  0.00    +0.000 C 
BRANCH  32  34
ATOM     33  C   UNL     1       6.103   3.152  12.183  0.00  0.00    +0.000 C 
ATOM     34  C   UNL     1       5.312   3.747  13.333  0.00  0.00    +0.000 C 
ENDBRANCH  32  34
ENDBRANCH  31  32
ENDBRANCH  30  31
ENDBRANCH  29  30
ENDBRANCH  28  29
ENDBRANCH  27  28
ENDBRANCH  26  27
ENDBRANCH  25  26
ENDBRANCH  24  25
ENDBRANCH  23  24
ENDBRANCH  22  23
ENDBRANCH  21  22
ENDBRANCH  20  21
ENDBRANCH   1  20
TORSDOF 23
ENDMDL
