MODEL 1
REMARK VINA RESULT:      -6.2      0.000      0.000
REMARK  Name = 
REMARK  11 active torsions:
REMARK  status: ('A' for Active; 'I' for Inactive)
REMARK    1  A    between atoms: C_1  and  O_2
REMARK    2  A    between atoms: O_2  and  C_3
REMARK    3  A    between atoms: C_3  and  C_4
REMARK    4  A    between atoms: C_4  and  C_5
REMARK    5  A    between atoms: C_4  and  N_14
REMARK    6  A    between atoms: C_5  and  O_6
REMARK    7  A    between atoms: O_6  and  C_7
REMARK    8  A    between atoms: C_11  and  C_12
REMARK    9  A    between atoms: N_14  and  C_15
REMARK   10  A    between atoms: C_15  and  C_16
REMARK   11  A    between atoms: C_15  and  C_17
REMARK                            x       y       z     vdW  Elec       q    Type
REMARK                         _______ _______ _______ _____ _____    ______ ____
ROOT
ATOM      1  C   UNL     1       7.028   5.189  18.084  0.00  0.00    +0.000 C 
ENDROOT
BRANCH   1   2
ATOM      2  N   UNL     1       6.895   4.308  16.902  0.00  0.00    +0.000 NA
ATOM      3  H   UNL     1       6.253   3.516  17.144  0.00  0.00    +0.000 HD
BRANCH   2   4
ATOM      4  C   UNL     1       6.398   4.953  15.663  0.00  0.00    +0.000 C 
ATOM      5  C   UNL     1       7.351   4.756  14.472  0.00  0.00    +0.000 C 
ATOM      6  C   UNL     1       5.023   4.372  15.312  0.00  0.00    +0.000 C 
ENDBRANCH   2   4
ENDBRANCH   1   2
BRANCH   1   7
ATOM      7  C   UNL     1       7.101   6.693  17.688  0.00  0.00    +0.000 C 
BRANCH   7   9
ATOM      8  C   UNL     1       8.158   8.748  17.978  0.00  0.00    +0.000 C 
ATOM      9  O   UNL     1       8.150   7.383  18.343  0.00  0.00    +0.000 OA
ENDBRANCH   7   9
ENDBRANCH   1   7
BRANCH   1  10
ATOM     10  C   UNL     1       5.834   4.981  19.035  0.00  0.00    +0.000 C 
BRANCH  10  11
ATOM     11  O   UNL     1       5.514   3.643  19.174  0.00  0.00    +0.000 OA
BRANCH  11  12
ATOM     12  C   UNL     1       4.243   3.154  19.116  0.00  0.00    +0.000 A 
ATOM     13  C   UNL     1       3.692   2.630  17.926  0.00  0.00    +0.000 A 
ATOM     14  C   UNL     1       2.384   2.147  17.905  0.00  0.00    +0.000 A 
ATOM     15  C   UNL     1       1.605   2.179  19.062  0.00  0.00    +0.000 A 
ATOM     16  C   UNL     1       2.133   2.696  20.252  0.00  0.00    +0.000 A 
ATOM     17  C   UNL     1       1.300   2.739  21.498  0.00  0.00    +0.000 C 
ATOM     18  C   UNL     1       3.452   3.180  20.274  0.00  0.00    +0.000 A 
ENDBRANCH  11  12
ENDBRANCH  10  11
ENDBRANCH   1  10
TORSDOF 7
ENDMDL
MODEL 2
REMARK VINA RESULT:      -6.1      2.484      6.161
REMARK  Name = 
REMARK  11 active torsions:
REMARK  status: ('A' for Active; 'I' for Inactive)
REMARK    1  A    between atoms: C_1  and  O_2
REMARK    2  A    between atoms: O_2  and  C_3
REMARK    3  A    between atoms: C_3  and  C_4
REMARK    4  A    between atoms: C_4  and  C_5
REMARK    5  A    between atoms: C_4  and  N_14
REMARK    6  A    between atoms: C_5  and  O_6
REMARK    7  A    between atoms: O_6  and  C_7
REMARK    8  A    between atoms: C_11  and  C_12
REMARK    9  A    between atoms: N_14  and  C_15
REMARK   10  A    between atoms: C_15  and  C_16
REMARK   11  A    between atoms: C_15  and  C_17
REMARK                            x       y       z     vdW  Elec       q    Type
REMARK                         _______ _______ _______ _____ _____    ______ ____
ROOT
ATOM      1  C   UNL     1       2.255   3.291  18.628  0.00  0.00    +0.000 C 
ENDROOT
BRANCH   1   2
ATOM      2  N   UNL     1       0.973   3.376  19.362  0.00  0.00    +0.000 NA
ATOM      3  H   UNL     1       0.494   2.446  19.312  0.00  0.00    +0.000 HD
BRANCH   2   4
ATOM      4  C   UNL     1       1.064   3.780  20.786  0.00  0.00    +0.000 C 
ATOM      5  C   UNL     1       1.435   2.608  21.709  0.00  0.00    +0.000 C 
ATOM      6  C   UNL     1       2.115   4.887  20.927  0.00  0.00    +0.000 C 
ENDBRANCH   2   4
ENDBRANCH   1   2
BRANCH   1   7
ATOM      7  C   UNL     1       2.557   1.844  18.141  0.00  0.00    +0.000 C 
BRANCH   7   9
ATOM      8  C   UNL     1       4.330   2.139  19.622  0.00  0.00    +0.000 C 
ATOM      9  O   UNL     1       3.842   1.390  18.529  0.00  0.00    +0.000 OA
ENDBRANCH   7   9
ENDBRANCH   1   7
BRANCH   1  10
ATOM     10  C   UNL     1       2.230   4.233  17.409  0.00  0.00    +0.000 C 
BRANCH  10  11
ATOM     11  O   UNL     1       3.163   5.248  17.525  0.00  0.00    +0.000 OA
BRANCH  11  12
ATOM     12  C   UNL     1       4.484   5.105  17.220  0.00  0.00    +0.000 A 
ATOM     13  C   UNL     1       4.932   4.246  16.192  0.00  0.00    +0.000 A 
ATOM     14  C   UNL     1       6.293   4.121  15.917  0.00  0.00    +0.000 A 
ATOM     15  C   UNL     1       7.229   4.845  16.658  0.00  0.00    +0.000 A 
ATOM     16  C   UNL     1       6.805   5.701  17.683  0.00  0.00    +0.000 A 
ATOM     17  C   UNL     1       7.805   6.477  18.486  0.00  0.00    +0.000 C 
ATOM     18  C   UNL     1       5.433   5.829  17.958  0.00  0.00    +0.000 A 
ENDBRANCH  11  12
ENDBRANCH  10  11
ENDBRANCH   1  10
TORSDOF 7
ENDMDL
MODEL 3
REMARK VINA RESULT:      -6.1      1.718      3.056
REMARK  Name = 
REMARK  11 active torsions:
REMARK  status: ('A' for Active; 'I' for Inactive)
REMARK    1  A    between atoms: C_1  and  O_2
REMARK    2  A    between atoms: O_2  and  C_3
REMARK    3  A    between atoms: C_3  and  C_4
REMARK    4  A    between atoms: C_4  and  C_5
REMARK    5  A    between atoms: C_4  and  N_14
REMARK    6  A    between atoms: C_5  and  O_6
REMARK    7  A    between atoms: O_6  and  C_7
REMARK    8  A    between atoms: C_11  and  C_12
REMARK    9  A    between atoms: N_14  and  C_15
REMARK   10  A    between atoms: C_15  and  C_16
REMARK   11  A    between atoms: C_15  and  C_17
REMARK                            x       y       z     vdW  Elec       q    Type
REMARK                         _______ _______ _______ _____ _____    ______ ____
ROOT
ATOM      1  C   UNL     1       5.171   5.340  16.424  0.00  0.00    +0.000 C 
ENDROOT
BRANCH   1   2
ATOM      2  N   UNL     1       5.718   6.221  17.480  0.00  0.00    +0.000 NA
ATOM      3  H   UNL     1       5.387   5.874  18.412  0.00  0.00    +0.000 HD
BRANCH   2   4
ATOM      4  C   UNL     1       7.195   6.343  17.524  0.00  0.00    +0.000 C 
ATOM      5  C   UNL     1       7.668   7.805  17.474  0.00  0.00    +0.000 C 
ATOM      6  C   UNL     1       7.716   5.686  18.807  0.00  0.00    +0.000 C 
ENDBRANCH   2   4
ENDBRANCH   1   2
BRANCH   1   7
ATOM      7  C   UNL     1       6.045   5.358  15.136  0.00  0.00    +0.000 C 
BRANCH   7   9
ATOM      8  C   UNL     1       6.281   3.834  13.389  0.00  0.00    +0.000 C 
ATOM      9  O   UNL     1       6.502   4.068  14.765  0.00  0.00    +0.000 OA
ENDBRANCH   7   9
ENDBRANCH   1   7
BRANCH   1  10
ATOM     10  C   UNL     1       5.074   3.892  16.941  0.00  0.00    +0.000 C 
BRANCH  10  11
ATOM     11  O   UNL     1       4.687   3.845  18.267  0.00  0.00    +0.000 OA
BRANCH  11  12
ATOM     12  C   UNL     1       3.421   3.553  18.681  0.00  0.00    +0.000 A 
ATOM     13  C   UNL     1       2.318   3.568  17.800  0.00  0.00    +0.000 A 
ATOM     14  C   UNL     1       1.036   3.272  18.264  0.00  0.00    +0.000 A 
ATOM     15  C   UNL     1       0.832   2.961  19.609  0.00  0.00    +0.000 A 
ATOM     16  C   UNL     1       1.913   2.943  20.500  0.00  0.00    +0.000 A 
ATOM     17  C   UNL     1       1.699   2.614  21.947  0.00  0.00    +0.000 C 
ATOM     18  C   UNL     1       3.205   3.237  20.031  0.00  0.00    +0.000 A 
ENDBRANCH  11  12
ENDBRANCH  10  11
ENDBRANCH   1  10
TORSDOF 7
ENDMDL
MODEL 4
REMARK VINA RESULT:      -6.1      2.014      3.512
REMARK  Name = 
REMARK  11 active torsions:
REMARK  status: ('A' for Active; 'I' for Inactive)
REMARK    1  A    between atoms: C_1  and  O_2
REMARK    2  A    between atoms: O_2  and  C_3
REMARK    3  A    between atoms: C_3  and  C_4
REMARK    4  A    between atoms: C_4  and  C_5
REMARK    5  A    between atoms: C_4  and  N_14
REMARK    6  A    between atoms: C_5  and  O_6
REMARK    7  A    between atoms: O_6  and  C_7
REMARK    8  A    between atoms: C_11  and  C_12
REMARK    9  A    between atoms: N_14  and  C_15
REMARK   10  A    between atoms: C_15  and  C_16
REMARK   11  A    between atoms: C_15  and  C_17
REMARK                            x       y       z     vdW  Elec       q    Type
REMARK                         _______ _______ _______ _____ _____    ______ ____
ROOT
ATOM      1  C   UNL     1       6.099   5.075  16.099  0.00  0.00    +0.000 C 
ENDROOT
BRANCH   1   2
ATOM      2  N   UNL     1       6.962   4.884  17.286  0.00  0.00    +0.000 NA
ATOM      3  H   UNL     1       7.936   4.673  16.963  0.00  0.00    +0.000 HD
BRANCH   2   4
ATOM      4  C   UNL     1       7.019   6.020  18.238  0.00  0.00    +0.000 C 
ATOM      5  C   UNL     1       7.913   5.727  19.454  0.00  0.00    +0.000 C 
ATOM      6  C   UNL     1       7.547   7.260  17.508  0.00  0.00    +0.000 C 
ENDBRANCH   2   4
ENDBRANCH   1   2
BRANCH   1   7
ATOM      7  C   UNL     1       6.305   3.955  15.038  0.00  0.00    +0.000 C 
BRANCH   7   9
ATOM      8  C   UNL     1       6.127   3.520  12.757  0.00  0.00    +0.000 C 
ATOM      9  O   UNL     1       5.533   4.159  13.867  0.00  0.00    +0.000 OA
ENDBRANCH   7   9
ENDBRANCH   1   7
BRANCH   1  10
ATOM     10  C   UNL     1       4.617   5.096  16.522  0.00  0.00    +0.000 C 
BRANCH  10  11
ATOM     11  O   UNL     1       4.175   3.843  16.905  0.00  0.00    +0.000 OA
BRANCH  11  12
ATOM     12  C   UNL     1       3.167   3.631  17.799  0.00  0.00    +0.000 A 
ATOM     13  C   UNL     1       2.367   2.468  17.770  0.00  0.00    +0.000 A 
ATOM     14  C   UNL     1       1.339   2.293  18.697  0.00  0.00    +0.000 A 
ATOM     15  C   UNL     1       1.091   3.270  19.662  0.00  0.00    +0.000 A 
ATOM     16  C   UNL     1       1.872   4.432  19.705  0.00  0.00    +0.000 A 
ATOM     17  C   UNL     1       1.607   5.488  20.737  0.00  0.00    +0.000 C 
ATOM     18  C   UNL     1       2.910   4.606  18.773  0.00  0.00    +0.000 A 
ENDBRANCH  11  12
ENDBRANCH  10  11
ENDBRANCH   1  10
TORSDOF 7
ENDMDL
MODEL 5
REMARK VINA RESULT:      -6.0      1.826      3.253
REMARK  Name = 
REMARK  11 active torsions:
REMARK  status: ('A' for Active; 'I' for Inactive)
REMARK    1  A    between atoms: C_1  and  O_2
REMARK    2  A    between atoms: O_2  and  C_3
REMARK    3  A    between atoms: C_3  and  C_4
REMARK    4  A    between atoms: C_4  and  C_5
REMARK    5  A    between atoms: C_4  and  N_14
REMARK    6  A    between atoms: C_5  and  O_6
REMARK    7  A    between atoms: O_6  and  C_7
REMARK    8  A    between atoms: C_11  and  C_12
REMARK    9  A    between atoms: N_14  and  C_15
REMARK   10  A    between atoms: C_15  and  C_16
REMARK   11  A    between atoms: C_15  and  C_17
REMARK                            x       y       z     vdW  Elec       q    Type
REMARK                         _______ _______ _______ _____ _____    ______ ____
ROOT
ATOM      1  C   UNL     1       5.918   5.006  16.263  0.00  0.00    +0.000 C 
ENDROOT
BRANCH   1   2
ATOM      2  N   UNL     1       6.990   4.939  17.281  0.00  0.00    +0.000 NA
ATOM      3  H   UNL     1       7.914   4.867  16.793  0.00  0.00    +0.000 HD
BRANCH   2   4
ATOM      4  C   UNL     1       7.051   6.072  18.235  0.00  0.00    +0.000 C 
ATOM      5  C   UNL     1       7.945   5.773  19.451  0.00  0.00    +0.000 C 
ATOM      6  C   UNL     1       7.585   7.312  17.509  0.00  0.00    +0.000 C 
ENDBRANCH   2   4
ENDBRANCH   1   2
BRANCH   1   7
ATOM      7  C   UNL     1       6.435   4.636  14.842  0.00  0.00    +0.000 C 
BRANCH   7   9
ATOM      8  C   UNL     1       7.848   5.230  13.088  0.00  0.00    +0.000 C 
ATOM      9  O   UNL     1       7.587   5.372  14.469  0.00  0.00    +0.000 OA
ENDBRANCH   7   9
ENDBRANCH   1   7
BRANCH   1  10
ATOM     10  C   UNL     1       4.770   4.049  16.641  0.00  0.00    +0.000 C 
BRANCH  10  11
ATOM     11  O   UNL     1       4.753   3.778  17.996  0.00  0.00    +0.000 OA
BRANCH  11  12
ATOM     12  C   UNL     1       3.786   4.222  18.849  0.00  0.00    +0.000 A 
ATOM     13  C   UNL     1       3.375   5.572  18.883  0.00  0.00    +0.000 A 
ATOM     14  C   UNL     1       2.389   5.990  19.777  0.00  0.00    +0.000 A 
ATOM     15  C   UNL     1       1.800   5.074  20.650  0.00  0.00    +0.000 A 
ATOM     16  C   UNL     1       2.196   3.731  20.633  0.00  0.00    +0.000 A 
ATOM     17  C   UNL     1       1.571   2.742  21.572  0.00  0.00    +0.000 C 
ATOM     18  C   UNL     1       3.187   3.310  19.730  0.00  0.00    +0.000 A 
ENDBRANCH  11  12
ENDBRANCH  10  11
ENDBRANCH   1  10
TORSDOF 7
ENDMDL
MODEL 6
REMARK VINA RESULT:      -6.0      1.780      2.003
REMARK  Name = 
REMARK  11 active torsions:
REMARK  status: ('A' for Active; 'I' for Inactive)
REMARK    1  A    between atoms: C_1  and  O_2
REMARK    2  A    between atoms: O_2  and  C_3
REMARK    3  A    between atoms: C_3  and  C_4
REMARK    4  A    between atoms: C_4  and  C_5
REMARK    5  A    between atoms: C_4  and  N_14
REMARK    6  A    between atoms: C_5  and  O_6
REMARK    7  A    between atoms: O_6  and  C_7
REMARK    8  A    between atoms: C_11  and  C_12
REMARK    9  A    between atoms: N_14  and  C_15
REMARK   10  A    between atoms: C_15  and  C_16
REMARK   11  A    between atoms: C_15  and  C_17
REMARK                            x       y       z     vdW  Elec       q    Type
REMARK                         _______ _______ _______ _____ _____    ______ ____
ROOT
ATOM      1  C   UNL     1       5.717   5.644  16.640  0.00  0.00    +0.000 C 
ENDROOT
BRANCH   1   2
ATOM      2  N   UNL     1       5.904   5.792  15.179  0.00  0.00    +0.000 NA
ATOM      3  H   UNL     1       6.400   6.695  14.993  0.00  0.00    +0.000 HD
BRANCH   2   4
ATOM      4  C   UNL     1       6.649   4.701  14.507  0.00  0.00    +0.000 C 
ATOM      5  C   UNL     1       5.733   3.778  13.685  0.00  0.00    +0.000 C 
ATOM      6  C   UNL     1       7.710   5.312  13.584  0.00  0.00    +0.000 C 
ENDBRANCH   2   4
ENDBRANCH   1   2
BRANCH   1   7
ATOM      7  C   UNL     1       6.979   6.081  17.439  0.00  0.00    +0.000 C 
BRANCH   7   9
ATOM      8  C   UNL     1       7.816   8.247  17.628  0.00  0.00    +0.000 C 
ATOM      9  O   UNL     1       7.708   7.111  16.795  0.00  0.00    +0.000 OA
ENDBRANCH   7   9
ENDBRANCH   1   7
BRANCH   1  10
ATOM     10  C   UNL     1       4.515   6.488  17.107  0.00  0.00    +0.000 C 
BRANCH  10  11
ATOM     11  O   UNL     1       4.123   6.158  18.391  0.00  0.00    +0.000 OA
BRANCH  11  12
ATOM     12  C   UNL     1       3.195   5.203  18.683  0.00  0.00    +0.000 A 
ATOM     13  C   UNL     1       2.321   4.679  17.705  0.00  0.00    +0.000 A 
ATOM     14  C   UNL     1       1.378   3.709  18.045  0.00  0.00    +0.000 A 
ATOM     15  C   UNL     1       1.288   3.248  19.359  0.00  0.00    +0.000 A 
ATOM     16  C   UNL     1       2.145   3.756  20.344  0.00  0.00    +0.000 A 
ATOM     17  C   UNL     1       2.051   3.268  21.759  0.00  0.00    +0.000 C 
ATOM     18  C   UNL     1       3.097   4.731  20.000  0.00  0.00    +0.000 A 
ENDBRANCH  11  12
ENDBRANCH  10  11
ENDBRANCH   1  10
TORSDOF 7
ENDMDL
MODEL 7
REMARK VINA RESULT:      -6.0      2.486      3.853
REMARK  Name = 
REMARK  11 active torsions:
REMARK  status: ('A' for Active; 'I' for Inactive)
REMARK    1  A    between atoms: C_1  and  O_2
REMARK    2  A    between atoms: O_2  and  C_3
REMARK    3  A    between atoms: C_3  and  C_4
REMARK    4  A    between atoms: C_4  and  C_5
REMARK    5  A    between atoms: C_4  and  N_14
REMARK    6  A    between atoms: C_5  and  O_6
REMARK    7  A    between atoms: O_6  and  C_7
REMARK    8  A    between atoms: C_11  and  C_12
REMARK    9  A    between atoms: N_14  and  C_15
REMARK   10  A    between atoms: C_15  and  C_16
REMARK   11  A    between atoms: C_15  and  C_17
REMARK                            x       y       z     vdW  Elec       q    Type
REMARK                         _______ _______ _______ _____ _____    ______ ____
ROOT
ATOM      1  C   UNL     1       6.153   4.774  16.148  0.00  0.00    +0.000 C 
ENDROOT
BRANCH   1   2
ATOM      2  N   UNL     1       7.315   5.007  17.034  0.00  0.00    +0.000 NA
ATOM      3  H   UNL     1       8.141   5.265  16.444  0.00  0.00    +0.000 HD
BRANCH   2   4
ATOM      4  C   UNL     1       7.139   6.047  18.076  0.00  0.00    +0.000 C 
ATOM      5  C   UNL     1       7.988   5.776  19.330  0.00  0.00    +0.000 C 
ATOM      6  C   UNL     1       7.521   7.412  17.492  0.00  0.00    +0.000 C 
ENDBRANCH   2   4
ENDBRANCH   1   2
BRANCH   1   7
ATOM      7  C   UNL     1       6.496   3.815  14.970  0.00  0.00    +0.000 C 
BRANCH   7   9
ATOM      8  C   UNL     1       6.067   3.526  12.699  0.00  0.00    +0.000 C 
ATOM      9  O   UNL     1       6.422   4.451  13.706  0.00  0.00    +0.000 OA
ENDBRANCH   7   9
ENDBRANCH   1   7
BRANCH   1  10
ATOM     10  C   UNL     1       4.985   4.173  16.955  0.00  0.00    +0.000 C 
BRANCH  10  11
ATOM     11  O   UNL     1       3.906   5.035  17.017  0.00  0.00    +0.000 OA
BRANCH  11  12
ATOM     12  C   UNL     1       3.186   5.274  18.149  0.00  0.00    +0.000 A 
ATOM     13  C   UNL     1       3.034   6.572  18.686  0.00  0.00    +0.000 A 
ATOM     14  C   UNL     1       2.297   6.773  19.852  0.00  0.00    +0.000 A 
ATOM     15  C   UNL     1       1.702   5.692  20.503  0.00  0.00    +0.000 A 
ATOM     16  C   UNL     1       1.843   4.396  19.988  0.00  0.00    +0.000 A 
ATOM     17  C   UNL     1       1.211   3.229  20.685  0.00  0.00    +0.000 C 
ATOM     18  C   UNL     1       2.584   4.194  18.810  0.00  0.00    +0.000 A 
ENDBRANCH  11  12
ENDBRANCH  10  11
ENDBRANCH   1  10
TORSDOF 7
ENDMDL
MODEL 8
REMARK VINA RESULT:      -6.0      1.944      2.393
REMARK  Name = 
REMARK  11 active torsions:
REMARK  status: ('A' for Active; 'I' for Inactive)
REMARK    1  A    between atoms: C_1  and  O_2
REMARK    2  A    between atoms: O_2  and  C_3
REMARK    3  A    between atoms: C_3  and  C_4
REMARK    4  A    between atoms: C_4  and  C_5
REMARK    5  A    between atoms: C_4  and  N_14
REMARK    6  A    between atoms: C_5  and  O_6
REMARK    7  A    between atoms: O_6  and  C_7
REMARK    8  A    between atoms: C_11  and  C_12
REMARK    9  A    between atoms: N_14  and  C_15
REMARK   10  A    between atoms: C_15  and  C_16
REMARK   11  A    between atoms: C_15  and  C_17
REMARK                            x       y       z     vdW  Elec       q    Type
REMARK                         _______ _______ _______ _____ _____    ______ ____
ROOT
ATOM      1  C   UNL     1       6.057   4.590  15.873  0.00  0.00    +0.000 C 
ENDROOT
BRANCH   1   2
ATOM      2  N   UNL     1       5.503   4.465  14.507  0.00  0.00    +0.000 NA
ATOM      3  H   UNL     1       5.211   5.414  14.174  0.00  0.00    +0.000 HD
BRANCH   2   4
ATOM      4  C   UNL     1       6.405   3.869  13.492  0.00  0.00    +0.000 C 
ATOM      5  C   UNL     1       5.647   3.351  12.259  0.00  0.00    +0.000 C 
ATOM      6  C   UNL     1       7.428   4.922  13.050  0.00  0.00    +0.000 C 
ENDBRANCH   2   4
ENDBRANCH   1   2
BRANCH   1   7
ATOM      7  C   UNL     1       6.100   6.069  16.356  0.00  0.00    +0.000 C 
BRANCH   7   9
ATOM      8  C   UNL     1       7.638   7.034  17.815  0.00  0.00    +0.000 C 
ATOM      9  O   UNL     1       7.421   6.561  16.501  0.00  0.00    +0.000 OA
ENDBRANCH   7   9
ENDBRANCH   1   7
BRANCH   1  10
ATOM     10  C   UNL     1       5.211   3.766  16.864  0.00  0.00    +0.000 C 
BRANCH  10  11
ATOM     11  O   UNL     1       3.861   4.041  16.738  0.00  0.00    +0.000 OA
BRANCH  11  12
ATOM     12  C   UNL     1       2.944   3.820  17.722  0.00  0.00    +0.000 A 
ATOM     13  C   UNL     1       2.188   2.630  17.793  0.00  0.00    +0.000 A 
ATOM     14  C   UNL     1       1.252   2.445  18.811  0.00  0.00    +0.000 A 
ATOM     15  C   UNL     1       1.053   3.440  19.770  0.00  0.00    +0.000 A 
ATOM     16  C   UNL     1       1.792   4.629  19.715  0.00  0.00    +0.000 A 
ATOM     17  C   UNL     1       1.579   5.704  20.739  0.00  0.00    +0.000 C 
ATOM     18  C   UNL     1       2.737   4.812  18.691  0.00  0.00    +0.000 A 
ENDBRANCH  11  12
ENDBRANCH  10  11
ENDBRANCH   1  10
TORSDOF 7
ENDMDL
MODEL 9
REMARK VINA RESULT:      -6.0      1.355      1.355
REMARK  Name = 
REMARK  11 active torsions:
REMARK  status: ('A' for Active; 'I' for Inactive)
REMARK    1  A    between atoms: C_1  and  O_2
REMARK    2  A    between atoms: O_2  and  C_3
REMARK    3  A    between atoms: C_3  and  C_4
REMARK    4  A    between atoms: C_4  and  C_5
REMARK    5  A    between atoms: C_4  and  N_14
REMARK    6  A    between atoms: C_5  and  O_6
REMARK    7  A    between atoms: O_6  and  C_7
REMARK    8  A    between atoms: C_11  and  C_12
REMARK    9  A    between atoms: N_14  and  C_15
REMARK   10  A    between atoms: C_15  and  C_16
REMARK   11  A    between atoms: C_15  and  C_17
REMARK                            x       y       z     vdW  Elec       q    Type
REMARK                         _______ _______ _______ _____ _____    ______ ____
ROOT
ATOM      1  C   UNL     1       6.738   5.600  17.673  0.00  0.00    +0.000 C 
ENDROOT
BRANCH   1   2
ATOM      2  N   UNL     1       5.814   6.058  16.611  0.00  0.00    +0.000 NA
ATOM      3  H   UNL     1       6.055   7.045  16.359  0.00  0.00    +0.000 HD
BRANCH   2   4
ATOM      4  C   UNL     1       5.798   5.247  15.370  0.00  0.00    +0.000 C 
ATOM      5  C   UNL     1       7.207   5.009  14.801  0.00  0.00    +0.000 C 
ATOM      6  C   UNL     1       5.136   3.895  15.662  0.00  0.00    +0.000 C 
ENDBRANCH   2   4
ENDBRANCH   1   2
BRANCH   1   7
ATOM      7  C   UNL     1       7.672   6.742  18.169  0.00  0.00    +0.000 C 
BRANCH   7   9
ATOM      8  C   UNL     1       8.163   9.006  17.930  0.00  0.00    +0.000 C 
ATOM      9  O   UNL     1       7.729   7.836  17.270  0.00  0.00    +0.000 OA
ENDBRANCH   7   9
ENDBRANCH   1   7
BRANCH   1  10
ATOM     10  C   UNL     1       5.938   5.054  18.871  0.00  0.00    +0.000 C 
BRANCH  10  11
ATOM     11  O   UNL     1       4.685   5.633  18.958  0.00  0.00    +0.000 OA
BRANCH  11  12
ATOM     12  C   UNL     1       3.521   4.925  19.001  0.00  0.00    +0.000 A 
ATOM     13  C   UNL     1       2.637   4.861  17.901  0.00  0.00    +0.000 A 
ATOM     14  C   UNL     1       1.450   4.134  17.988  0.00  0.00    +0.000 A 
ATOM     15  C   UNL     1       1.123   3.462  19.167  0.00  0.00    +0.000 A 
ATOM     16  C   UNL     1       1.985   3.515  20.270  0.00  0.00    +0.000 A 
ATOM     17  C   UNL     1       1.637   2.800  21.541  0.00  0.00    +0.000 C 
ATOM     18  C   UNL     1       3.183   4.246  20.181  0.00  0.00    +0.000 A 
ENDBRANCH  11  12
ENDBRANCH  10  11
ENDBRANCH   1  10
TORSDOF 7
ENDMDL
