MODEL 1
REMARK VINA RESULT:      -7.8      0.000      0.000
REMARK  Name = 
REMARK  15 active torsions:
REMARK  status: ('A' for Active; 'I' for Inactive)
REMARK    1  A    between atoms: C_1  and  C_2
REMARK    2  A    between atoms: C_2  and  C_3
REMARK    3  A    between atoms: C_2  and  C_4
REMARK    4  A    between atoms: C_4  and  C_5
REMARK    5  A    between atoms: C_8  and  C_9
REMARK    6  A    between atoms: C_9  and  C_10
REMARK    7  A    between atoms: C_9  and  C_11
REMARK    8  A    between atoms: N_13  and  C_14
REMARK    9  A    between atoms: C_14  and  C_15
REMARK   10  A    between atoms: C_15  and  C_16
REMARK   11  A    between atoms: C_16  and  C_17
REMARK   12  A    between atoms: C_17  and  O_18
REMARK   13  A    between atoms: O_18  and  C_19
REMARK   14  A    between atoms: C_22  and  S_23
REMARK   15  A    between atoms: S_23  and  N_24
REMARK                            x       y       z     vdW  Elec       q    Type
REMARK                         _______ _______ _______ _____ _____    ______ ____
ROOT
ATOM      1  C   UNL     1       1.941   5.193  20.329  0.00  0.00    +0.000 C 
ENDROOT
BRANCH   1   4
ATOM      2  C   UNL     1       1.943   7.608  20.067  0.00  0.00    +0.000 C 
ATOM      3  O   UNL     1       2.660   7.517  19.070  0.00  0.00    +0.000 OA
ATOM      4  N   UNL     1       1.516   6.498  20.771  0.00  0.00    +0.000 N 
ATOM      5  H   UNL     1       0.795   6.595  21.475  0.00  0.00    +0.000 HD
BRANCH   2   6
ATOM      6  C   UNL     1       1.553   8.966  20.639  0.00  0.00    +0.000 C 
ATOM      7  C   UNL     1       1.231   8.836  22.129  0.00  0.00    +0.000 C 
BRANCH   6  11
ATOM      8  C   UNL     1      -1.406  11.022  18.221  0.00  0.00    +0.000 A 
ATOM      9  C   UNL     1      -0.429  10.210  17.633  0.00  0.00    +0.000 A 
ATOM     10  C   UNL     1       0.497   9.532  18.426  0.00  0.00    +0.000 A 
ATOM     11  C   UNL     1       0.488   9.676  19.823  0.00  0.00    +0.000 A 
ATOM     12  C   UNL     1      -0.496  10.486  20.404  0.00  0.00    +0.000 A 
ATOM     13  C   UNL     1      -1.429  11.156  19.612  0.00  0.00    +0.000 A 
BRANCH   8  14
ATOM     14  C   UNL     1      -2.466  11.685  17.375  0.00  0.00    +0.000 C 
BRANCH  14  16
ATOM     15  C   UNL     1      -3.060  10.324  15.307  0.00  0.00    +0.000 C 
ATOM     16  C   UNL     1      -3.440  10.667  16.750  0.00  0.00    +0.000 C 
ATOM     17  C   UNL     1      -3.488   9.393  17.595  0.00  0.00    +0.000 C 
ENDBRANCH  14  16
ENDBRANCH   8  14
ENDBRANCH   6  11
ENDBRANCH   2   6
ENDBRANCH   1   4
BRANCH   1  18
ATOM     18  C   UNL     1       0.874   4.107  20.453  0.00  0.00    +0.000 C 
BRANCH  18  19
ATOM     19  C   UNL     1       1.457   2.799  21.010  0.00  0.00    +0.000 C 
BRANCH  19  20
ATOM     20  C   UNL     1       2.974   2.732  20.841  0.00  0.00    +0.000 C 
BRANCH  20  21
ATOM     21  O   UNL     1       3.310   2.201  19.561  0.00  0.00    +0.000 OA
BRANCH  21  22
ATOM     22  C   UNL     1       4.084   3.034  18.791  0.00  0.00    +0.000 A 
ATOM     23  C   UNL     1       3.721   3.100  17.444  0.00  0.00    +0.000 A 
ATOM     24  C   UNL     1       4.448   3.894  16.555  0.00  0.00    +0.000 A 
ATOM     25  C   UNL     1       5.527   4.646  17.027  0.00  0.00    +0.000 A 
ATOM     26  C   UNL     1       5.890   4.602  18.373  0.00  0.00    +0.000 A 
ATOM     27  C   UNL     1       5.162   3.800  19.253  0.00  0.00    +0.000 A 
BRANCH  25  28
ATOM     28  S   UNL     1       6.468   5.635  15.907  0.00  0.00    +0.000 S 
ATOM     29  O   UNL     1       7.532   4.837  15.347  0.00  0.00    +0.000 OA
ATOM     30  O   UNL     1       5.569   6.418  15.087  0.00  0.00    +0.000 OA
BRANCH  28  31
ATOM     31  N   UNL     1       7.203   6.720  16.954  0.00  0.00    +0.000 NA
ATOM     32  H   UNL     1       7.220   6.335  17.898  0.00  0.00    +0.000 HD
ATOM     33  H   UNL     1       8.120   6.982  16.593  0.00  0.00    +0.000 HD
ENDBRANCH  28  31
ENDBRANCH  25  28
ENDBRANCH  21  22
ENDBRANCH  20  21
ENDBRANCH  19  20
ENDBRANCH  18  19
ENDBRANCH   1  18
TORSDOF 12
ENDMDL
MODEL 2
REMARK VINA RESULT:      -7.7      5.661      8.927
REMARK  Name = 
REMARK  15 active torsions:
REMARK  status: ('A' for Active; 'I' for Inactive)
REMARK    1  A    between atoms: C_1  and  C_2
REMARK    2  A    between atoms: C_2  and  C_3
REMARK    3  A    between atoms: C_2  and  C_4
REMARK    4  A    between atoms: C_4  and  C_5
REMARK    5  A    between atoms: C_8  and  C_9
REMARK    6  A    between atoms: C_9  and  C_10
REMARK    7  A    between atoms: C_9  and  C_11
REMARK    8  A    between atoms: N_13  and  C_14
REMARK    9  A    between atoms: C_14  and  C_15
REMARK   10  A    between atoms: C_15  and  C_16
REMARK   11  A    between atoms: C_16  and  C_17
REMARK   12  A    between atoms: C_17  and  O_18
REMARK   13  A    between atoms: O_18  and  C_19
REMARK   14  A    between atoms: C_22  and  S_23
REMARK   15  A    between atoms: S_23  and  N_24
REMARK                            x       y       z     vdW  Elec       q    Type
REMARK                         _______ _______ _______ _____ _____    ______ ____
ROOT
ATOM      1  C   UNL     1       8.026   4.865  18.517  0.00  0.00    +0.000 C 
ENDROOT
BRANCH   1   4
ATOM      2  C   UNL     1       6.893   4.269  16.453  0.00  0.00    +0.000 C 
ATOM      3  O   UNL     1       7.802   4.769  15.789  0.00  0.00    +0.000 OA
ATOM      4  N   UNL     1       6.911   4.257  17.834  0.00  0.00    +0.000 N 
ATOM      5  H   UNL     1       6.242   3.691  18.342  0.00  0.00    +0.000 HD
BRANCH   2   6
ATOM      6  C   UNL     1       5.643   3.708  15.785  0.00  0.00    +0.000 C 
ATOM      7  C   UNL     1       5.404   4.407  14.445  0.00  0.00    +0.000 C 
BRANCH   6  11
ATOM      8  C   UNL     1       2.228   3.722  18.463  0.00  0.00    +0.000 A 
ATOM      9  C   UNL     1       2.685   4.903  17.867  0.00  0.00    +0.000 A 
ATOM     10  C   UNL     1       3.766   4.877  16.986  0.00  0.00    +0.000 A 
ATOM     11  C   UNL     1       4.436   3.676  16.704  0.00  0.00    +0.000 A 
ATOM     12  C   UNL     1       3.969   2.497  17.300  0.00  0.00    +0.000 A 
ATOM     13  C   UNL     1       2.882   2.520  18.174  0.00  0.00    +0.000 A 
BRANCH   8  14
ATOM     14  C   UNL     1       1.004   3.728  19.346  0.00  0.00    +0.000 C 
BRANCH  14  16
ATOM     15  C   UNL     1       1.960   2.770  21.502  0.00  0.00    +0.000 C 
ATOM     16  C   UNL     1       1.348   3.999  20.824  0.00  0.00    +0.000 C 
ATOM     17  C   UNL     1       2.303   5.188  20.936  0.00  0.00    +0.000 C 
ENDBRANCH  14  16
ENDBRANCH   8  14
ENDBRANCH   6  11
ENDBRANCH   2   6
ENDBRANCH   1   4
BRANCH   1  18
ATOM     18  C   UNL     1       7.725   6.234  19.123  0.00  0.00    +0.000 C 
BRANCH  18  19
ATOM     19  C   UNL     1       7.897   7.361  18.093  0.00  0.00    +0.000 C 
BRANCH  19  20
ATOM     20  C   UNL     1       8.513   8.613  18.714  0.00  0.00    +0.000 C 
BRANCH  20  21
ATOM     21  O   UNL     1       8.660   9.636  17.731  0.00  0.00    +0.000 OA
BRANCH  21  22
ATOM     22  C   UNL     1       8.956  10.874  18.247  0.00  0.00    +0.000 A 
ATOM     23  C   UNL     1       9.649  10.858  19.459  0.00  0.00    +0.000 A 
ATOM     24  C   UNL     1       9.987  12.054  20.096  0.00  0.00    +0.000 A 
ATOM     25  C   UNL     1       9.650  13.272  19.498  0.00  0.00    +0.000 A 
ATOM     26  C   UNL     1       8.973  13.302  18.279  0.00  0.00    +0.000 A 
ATOM     27  C   UNL     1       8.634  12.101  17.653  0.00  0.00    +0.000 A 
BRANCH  25  28
ATOM     28  S   UNL     1      10.051  14.789  20.306  0.00  0.00    +0.000 S 
ATOM     29  O   UNL     1      11.412  15.150  19.991  0.00  0.00    +0.000 OA
ATOM     30  O   UNL     1       8.949  15.715  20.164  0.00  0.00    +0.000 OA
BRANCH  28  31
ATOM     31  N   UNL     1      10.057  14.320  21.916  0.00  0.00    +0.000 NA
ATOM     32  H   UNL     1      10.913  13.804  22.125  0.00  0.00    +0.000 HD
ATOM     33  H   UNL     1       9.901  15.130  22.514  0.00  0.00    +0.000 HD
ENDBRANCH  28  31
ENDBRANCH  25  28
ENDBRANCH  21  22
ENDBRANCH  20  21
ENDBRANCH  19  20
ENDBRANCH  18  19
ENDBRANCH   1  18
TORSDOF 12
ENDMDL
MODEL 3
REMARK VINA RESULT:      -7.5      6.402      9.440
REMARK  Name = 
REMARK  15 active torsions:
REMARK  status: ('A' for Active; 'I' for Inactive)
REMARK    1  A    between atoms: C_1  and  C_2
REMARK    2  A    between atoms: C_2  and  C_3
REMARK    3  A    between atoms: C_2  and  C_4
REMARK    4  A    between atoms: C_4  and  C_5
REMARK    5  A    between atoms: C_8  and  C_9
REMARK    6  A    between atoms: C_9  and  C_10
REMARK    7  A    between atoms: C_9  and  C_11
REMARK    8  A    between atoms: N_13  and  C_14
REMARK    9  A    between atoms: C_14  and  C_15
REMARK   10  A    between atoms: C_15  and  C_16
REMARK   11  A    between atoms: C_16  and  C_17
REMARK   12  A    between atoms: C_17  and  O_18
REMARK   13  A    between atoms: O_18  and  C_19
REMARK   14  A    between atoms: C_22  and  S_23
REMARK   15  A    between atoms: S_23  and  N_24
REMARK                            x       y       z     vdW  Elec       q    Type
REMARK                         _______ _______ _______ _____ _____    ______ ____
ROOT
ATOM      1  C   UNL     1       7.705   7.009  16.590  0.00  0.00    +0.000 C 
ENDROOT
BRANCH   1   4
ATOM      2  C   UNL     1       6.738   4.781  16.617  0.00  0.00    +0.000 C 
ATOM      3  O   UNL     1       7.591   4.402  17.421  0.00  0.00    +0.000 OA
ATOM      4  N   UNL     1       6.701   6.078  16.141  0.00  0.00    +0.000 N 
ATOM      5  H   UNL     1       5.893   6.401  15.621  0.00  0.00    +0.000 HD
BRANCH   2   6
ATOM      6  C   UNL     1       5.719   3.813  16.030  0.00  0.00    +0.000 C 
ATOM      7  C   UNL     1       5.463   4.147  14.558  0.00  0.00    +0.000 C 
BRANCH   6  11
ATOM      8  C   UNL     1       2.158   3.535  18.495  0.00  0.00    +0.000 A 
ATOM      9  C   UNL     1       2.548   4.750  17.921  0.00  0.00    +0.000 A 
ATOM     10  C   UNL     1       3.679   4.817  17.107  0.00  0.00    +0.000 A 
ATOM     11  C   UNL     1       4.465   3.677  16.874  0.00  0.00    +0.000 A 
ATOM     12  C   UNL     1       4.065   2.463  17.446  0.00  0.00    +0.000 A 
ATOM     13  C   UNL     1       2.928   2.393  18.253  0.00  0.00    +0.000 A 
BRANCH   8  14
ATOM     14  C   UNL     1       0.886   3.437  19.301  0.00  0.00    +0.000 C 
BRANCH  14  16
ATOM     15  C   UNL     1       1.672   2.536  21.550  0.00  0.00    +0.000 C 
ATOM     16  C   UNL     1       1.114   3.746  20.795  0.00  0.00    +0.000 C 
ATOM     17  C   UNL     1       2.056   4.939  20.951  0.00  0.00    +0.000 C 
ENDBRANCH  14  16
ENDBRANCH   8  14
ENDBRANCH   6  11
ENDBRANCH   2   6
ENDBRANCH   1   4
BRANCH   1  18
ATOM     18  C   UNL     1       7.276   7.882  17.767  0.00  0.00    +0.000 C 
BRANCH  18  19
ATOM     19  C   UNL     1       8.486   8.446  18.528  0.00  0.00    +0.000 C 
BRANCH  19  20
ATOM     20  C   UNL     1       8.725   9.920  18.209  0.00  0.00    +0.000 C 
BRANCH  20  21
ATOM     21  O   UNL     1       9.227  10.603  19.356  0.00  0.00    +0.000 OA
BRANCH  21  22
ATOM     22  C   UNL     1       9.594  11.905  19.120  0.00  0.00    +0.000 A 
ATOM     23  C   UNL     1      10.019  12.172  17.817  0.00  0.00    +0.000 A 
ATOM     24  C   UNL     1      10.442  13.454  17.460  0.00  0.00    +0.000 A 
ATOM     25  C   UNL     1      10.411  14.479  18.410  0.00  0.00    +0.000 A 
ATOM     26  C   UNL     1       9.973  14.229  19.710  0.00  0.00    +0.000 A 
ATOM     27  C   UNL     1       9.558  12.943  20.060  0.00  0.00    +0.000 A 
BRANCH  25  28
ATOM     28  S   UNL     1      10.966  16.098  17.976  0.00  0.00    +0.000 S 
ATOM     29  O   UNL     1      12.322  16.275  18.438  0.00  0.00    +0.000 OA
ATOM     30  O   UNL     1      10.561  16.396  16.620  0.00  0.00    +0.000 OA
BRANCH  28  31
ATOM     31  N   UNL     1      10.010  17.056  18.967  0.00  0.00    +0.000 NA
ATOM     32  H   UNL     1      10.560  17.833  19.334  0.00  0.00    +0.000 HD
ATOM     33  H   UNL     1       9.168  17.339  18.468  0.00  0.00    +0.000 HD
ENDBRANCH  28  31
ENDBRANCH  25  28
ENDBRANCH  21  22
ENDBRANCH  20  21
ENDBRANCH  19  20
ENDBRANCH  18  19
ENDBRANCH   1  18
TORSDOF 12
ENDMDL
MODEL 4
REMARK VINA RESULT:      -7.5      1.625      2.199
REMARK  Name = 
REMARK  15 active torsions:
REMARK  status: ('A' for Active; 'I' for Inactive)
REMARK    1  A    between atoms: C_1  and  C_2
REMARK    2  A    between atoms: C_2  and  C_3
REMARK    3  A    between atoms: C_2  and  C_4
REMARK    4  A    between atoms: C_4  and  C_5
REMARK    5  A    between atoms: C_8  and  C_9
REMARK    6  A    between atoms: C_9  and  C_10
REMARK    7  A    between atoms: C_9  and  C_11
REMARK    8  A    between atoms: N_13  and  C_14
REMARK    9  A    between atoms: C_14  and  C_15
REMARK   10  A    between atoms: C_15  and  C_16
REMARK   11  A    between atoms: C_16  and  C_17
REMARK   12  A    between atoms: C_17  and  O_18
REMARK   13  A    between atoms: O_18  and  C_19
REMARK   14  A    between atoms: C_22  and  S_23
REMARK   15  A    between atoms: S_23  and  N_24
REMARK                            x       y       z     vdW  Elec       q    Type
REMARK                         _______ _______ _______ _____ _____    ______ ____
ROOT
ATOM      1  C   UNL     1       2.026   6.773  20.247  0.00  0.00    +0.000 C 
ENDROOT
BRANCH   1   4
ATOM      2  C   UNL     1       1.425   8.900  19.241  0.00  0.00    +0.000 C 
ATOM      3  O   UNL     1       1.869   8.530  18.153  0.00  0.00    +0.000 OA
ATOM      4  N   UNL     1       1.448   8.088  20.359  0.00  0.00    +0.000 N 
ATOM      5  H   UNL     1       0.924   8.353  21.184  0.00  0.00    +0.000 HD
BRANCH   2   6
ATOM      6  C   UNL     1       0.900  10.316  19.440  0.00  0.00    +0.000 C 
ATOM      7  C   UNL     1       0.909  10.676  20.928  0.00  0.00    +0.000 C 
BRANCH   6  11
ATOM      8  C   UNL     1      -2.928  11.072  17.541  0.00  0.00    +0.000 A 
ATOM      9  C   UNL     1      -2.458  11.892  18.573  0.00  0.00    +0.000 A 
ATOM     10  C   UNL     1      -1.212  11.653  19.153  0.00  0.00    +0.000 A 
ATOM     11  C   UNL     1      -0.421  10.570  18.738  0.00  0.00    +0.000 A 
ATOM     12  C   UNL     1      -0.896   9.757  17.700  0.00  0.00    +0.000 A 
ATOM     13  C   UNL     1      -2.137  10.001  17.112  0.00  0.00    +0.000 A 
BRANCH   8  14
ATOM     14  C   UNL     1      -4.233  11.378  16.847  0.00  0.00    +0.000 C 
BRANCH  14  16
ATOM     15  C   UNL     1      -6.257  12.898  17.126  0.00  0.00    +0.000 C 
ATOM     16  C   UNL     1      -5.299  11.924  17.818  0.00  0.00    +0.000 C 
ATOM     17  C   UNL     1      -6.087  10.771  18.441  0.00  0.00    +0.000 C 
ENDBRANCH  14  16
ENDBRANCH   8  14
ENDBRANCH   6  11
ENDBRANCH   2   6
ENDBRANCH   1   4
BRANCH   1  18
ATOM     18  C   UNL     1       1.041   5.628  20.478  0.00  0.00    +0.000 C 
BRANCH  18  19
ATOM     19  C   UNL     1       1.759   4.275  20.594  0.00  0.00    +0.000 C 
BRANCH  19  20
ATOM     20  C   UNL     1       1.394   3.334  19.448  0.00  0.00    +0.000 C 
BRANCH  20  21
ATOM     21  O   UNL     1       2.563   2.702  18.931  0.00  0.00    +0.000 OA
BRANCH  21  22
ATOM     22  C   UNL     1       3.587   3.567  18.633  0.00  0.00    +0.000 A 
ATOM     23  C   UNL     1       3.364   4.387  17.525  0.00  0.00    +0.000 A 
ATOM     24  C   UNL     1       4.342   5.292  17.107  0.00  0.00    +0.000 A 
ATOM     25  C   UNL     1       5.537   5.393  17.824  0.00  0.00    +0.000 A 
ATOM     26  C   UNL     1       5.765   4.593  18.943  0.00  0.00    +0.000 A 
ATOM     27  C   UNL     1       4.785   3.686  19.349  0.00  0.00    +0.000 A 
BRANCH  25  28
ATOM     28  S   UNL     1       6.790   6.518  17.290  0.00  0.00    +0.000 S 
ATOM     29  O   UNL     1       6.167   7.714  16.777  0.00  0.00    +0.000 OA
ATOM     30  O   UNL     1       7.852   6.554  18.272  0.00  0.00    +0.000 OA
BRANCH  28  31
ATOM     31  N   UNL     1       7.416   5.714  15.958  0.00  0.00    +0.000 NA
ATOM     32  H   UNL     1       6.870   5.939  15.127  0.00  0.00    +0.000 HD
ATOM     33  H   UNL     1       8.412   5.913  15.870  0.00  0.00    +0.000 HD
ENDBRANCH  28  31
ENDBRANCH  25  28
ENDBRANCH  21  22
ENDBRANCH  20  21
ENDBRANCH  19  20
ENDBRANCH  18  19
ENDBRANCH   1  18
TORSDOF 12
ENDMDL
MODEL 5
REMARK VINA RESULT:      -7.5      1.936      2.620
REMARK  Name = 
REMARK  15 active torsions:
REMARK  status: ('A' for Active; 'I' for Inactive)
REMARK    1  A    between atoms: C_1  and  C_2
REMARK    2  A    between atoms: C_2  and  C_3
REMARK    3  A    between atoms: C_2  and  C_4
REMARK    4  A    between atoms: C_4  and  C_5
REMARK    5  A    between atoms: C_8  and  C_9
REMARK    6  A    between atoms: C_9  and  C_10
REMARK    7  A    between atoms: C_9  and  C_11
REMARK    8  A    between atoms: N_13  and  C_14
REMARK    9  A    between atoms: C_14  and  C_15
REMARK   10  A    between atoms: C_15  and  C_16
REMARK   11  A    between atoms: C_16  and  C_17
REMARK   12  A    between atoms: C_17  and  O_18
REMARK   13  A    between atoms: O_18  and  C_19
REMARK   14  A    between atoms: C_22  and  S_23
REMARK   15  A    between atoms: S_23  and  N_24
REMARK                            x       y       z     vdW  Elec       q    Type
REMARK                         _______ _______ _______ _____ _____    ______ ____
ROOT
ATOM      1  C   UNL     1       2.083   5.701  20.425  0.00  0.00    +0.000 C 
ENDROOT
BRANCH   1   4
ATOM      2  C   UNL     1       1.420   8.032  20.587  0.00  0.00    +0.000 C 
ATOM      3  O   UNL     1       1.911   8.266  19.482  0.00  0.00    +0.000 OA
ATOM      4  N   UNL     1       1.445   6.770  21.151  0.00  0.00    +0.000 N 
ATOM      5  H   UNL     1       0.886   6.574  21.972  0.00  0.00    +0.000 HD
BRANCH   2   6
ATOM      6  C   UNL     1       0.827   9.146  21.442  0.00  0.00    +0.000 C 
ATOM      7  C   UNL     1      -0.374   8.620  22.232  0.00  0.00    +0.000 C 
BRANCH   6  11
ATOM      8  C   UNL     1       0.018  12.725  19.126  0.00  0.00    +0.000 A 
ATOM      9  C   UNL     1      -0.896  11.666  19.164  0.00  0.00    +0.000 A 
ATOM     10  C   UNL     1      -0.635  10.535  19.937  0.00  0.00    +0.000 A 
ATOM     11  C   UNL     1       0.561  10.421  20.664  0.00  0.00    +0.000 A 
ATOM     12  C   UNL     1       1.469  11.488  20.626  0.00  0.00    +0.000 A 
ATOM     13  C   UNL     1       1.203  12.624  19.861  0.00  0.00    +0.000 A 
BRANCH   8  14
ATOM     14  C   UNL     1      -0.300  13.990  18.366  0.00  0.00    +0.000 C 
BRANCH  14  16
ATOM     15  C   UNL     1      -0.412  16.532  18.469  0.00  0.00    +0.000 C 
ATOM     16  C   UNL     1      -0.315  15.234  19.276  0.00  0.00    +0.000 C 
ATOM     17  C   UNL     1      -1.473  15.149  20.270  0.00  0.00    +0.000 C 
ENDBRANCH  14  16
ENDBRANCH   8  14
ENDBRANCH   6  11
ENDBRANCH   2   6
ENDBRANCH   1   4
BRANCH   1  18
ATOM     18  C   UNL     1       1.180   4.501  20.144  0.00  0.00    +0.000 C 
BRANCH  18  19
ATOM     19  C   UNL     1       1.488   3.325  21.084  0.00  0.00    +0.000 C 
BRANCH  19  20
ATOM     20  C   UNL     1       2.890   2.765  20.857  0.00  0.00    +0.000 C 
BRANCH  20  21
ATOM     21  O   UNL     1       3.055   2.372  19.496  0.00  0.00    +0.000 OA
BRANCH  21  22
ATOM     22  C   UNL     1       3.894   3.185  18.774  0.00  0.00    +0.000 A 
ATOM     23  C   UNL     1       3.522   3.386  17.443  0.00  0.00    +0.000 A 
ATOM     24  C   UNL     1       4.308   4.173  16.600  0.00  0.00    +0.000 A 
ATOM     25  C   UNL     1       5.458   4.785  17.104  0.00  0.00    +0.000 A 
ATOM     26  C   UNL     1       5.833   4.607  18.435  0.00  0.00    +0.000 A 
ATOM     27  C   UNL     1       5.044   3.813  19.269  0.00  0.00    +0.000 A 
BRANCH  25  28
ATOM     28  S   UNL     1       6.473   5.764  16.040  0.00  0.00    +0.000 S 
ATOM     29  O   UNL     1       5.641   6.409  15.053  0.00  0.00    +0.000 OA
ATOM     30  O   UNL     1       7.442   6.488  16.833  0.00  0.00    +0.000 OA
BRANCH  28  31
ATOM     31  N   UNL     1       7.335   4.582  15.219  0.00  0.00    +0.000 NA
ATOM     32  H   UNL     1       6.846   3.688  15.281  0.00  0.00    +0.000 HD
ATOM     33  H   UNL     1       7.524   4.890  14.266  0.00  0.00    +0.000 HD
ENDBRANCH  28  31
ENDBRANCH  25  28
ENDBRANCH  21  22
ENDBRANCH  20  21
ENDBRANCH  19  20
ENDBRANCH  18  19
ENDBRANCH   1  18
TORSDOF 12
ENDMDL
MODEL 6
REMARK VINA RESULT:      -7.4      0.766      1.460
REMARK  Name = 
REMARK  15 active torsions:
REMARK  status: ('A' for Active; 'I' for Inactive)
REMARK    1  A    between atoms: C_1  and  C_2
REMARK    2  A    between atoms: C_2  and  C_3
REMARK    3  A    between atoms: C_2  and  C_4
REMARK    4  A    between atoms: C_4  and  C_5
REMARK    5  A    between atoms: C_8  and  C_9
REMARK    6  A    between atoms: C_9  and  C_10
REMARK    7  A    between atoms: C_9  and  C_11
REMARK    8  A    between atoms: N_13  and  C_14
REMARK    9  A    between atoms: C_14  and  C_15
REMARK   10  A    between atoms: C_15  and  C_16
REMARK   11  A    between atoms: C_16  and  C_17
REMARK   12  A    between atoms: C_17  and  O_18
REMARK   13  A    between atoms: O_18  and  C_19
REMARK   14  A    between atoms: C_22  and  S_23
REMARK   15  A    between atoms: S_23  and  N_24
REMARK                            x       y       z     vdW  Elec       q    Type
REMARK                         _______ _______ _______ _____ _____    ______ ____
ROOT
ATOM      1  C   UNL     1       1.860   5.192  20.429  0.00  0.00    +0.000 C 
ENDROOT
BRANCH   1   4
ATOM      2  C   UNL     1       1.932   7.600  20.116  0.00  0.00    +0.000 C 
ATOM      3  O   UNL     1       2.616   7.464  19.100  0.00  0.00    +0.000 OA
ATOM      4  N   UNL     1       1.490   6.519  20.855  0.00  0.00    +0.000 N 
ATOM      5  H   UNL     1       0.792   6.653  21.576  0.00  0.00    +0.000 HD
BRANCH   2   6
ATOM      6  C   UNL     1       1.601   8.981  20.668  0.00  0.00    +0.000 C 
ATOM      7  C   UNL     1       1.297   8.889  22.165  0.00  0.00    +0.000 C 
BRANCH   6  11
ATOM      8  C   UNL     1      -1.481  11.059  18.430  0.00  0.00    +0.000 A 
ATOM      9  C   UNL     1      -1.408  11.158  19.824  0.00  0.00    +0.000 A 
ATOM     10  C   UNL     1      -0.394  10.507  20.526  0.00  0.00    +0.000 A 
ATOM     11  C   UNL     1       0.552   9.717  19.855  0.00  0.00    +0.000 A 
ATOM     12  C   UNL     1       0.477   9.627  18.459  0.00  0.00    +0.000 A 
ATOM     13  C   UNL     1      -0.531  10.286  17.754  0.00  0.00    +0.000 A 
BRANCH   8  14
ATOM     14  C   UNL     1      -2.520  11.834  17.656  0.00  0.00    +0.000 C 
BRANCH  14  16
ATOM     15  C   UNL     1      -3.065  10.775  15.405  0.00  0.00    +0.000 C 
ATOM     16  C   UNL     1      -3.477  10.912  16.874  0.00  0.00    +0.000 C 
ATOM     17  C   UNL     1      -3.537   9.532  17.530  0.00  0.00    +0.000 C 
ENDBRANCH  14  16
ENDBRANCH   8  14
ENDBRANCH   6  11
ENDBRANCH   2   6
ENDBRANCH   1   4
BRANCH   1  18
ATOM     18  C   UNL     1       2.176   4.228  21.571  0.00  0.00    +0.000 C 
BRANCH  18  19
ATOM     19  C   UNL     1       1.698   2.801  21.259  0.00  0.00    +0.000 C 
BRANCH  19  20
ATOM     20  C   UNL     1       2.515   2.158  20.140  0.00  0.00    +0.000 C 
BRANCH  20  21
ATOM     21  O   UNL     1       3.868   2.603  20.191  0.00  0.00    +0.000 OA
BRANCH  21  22
ATOM     22  C   UNL     1       4.321   3.164  19.022  0.00  0.00    +0.000 A 
ATOM     23  C   UNL     1       5.423   4.011  19.161  0.00  0.00    +0.000 A 
ATOM     24  C   UNL     1       5.960   4.661  18.047  0.00  0.00    +0.000 A 
ATOM     25  C   UNL     1       5.404   4.437  16.785  0.00  0.00    +0.000 A 
ATOM     26  C   UNL     1       4.313   3.581  16.630  0.00  0.00    +0.000 A 
ATOM     27  C   UNL     1       3.779   2.941  17.750  0.00  0.00    +0.000 A 
BRANCH  25  28
ATOM     28  S   UNL     1       6.060   5.272  15.374  0.00  0.00    +0.000 S 
ATOM     29  O   UNL     1       7.443   5.602  15.619  0.00  0.00    +0.000 OA
ATOM     30  O   UNL     1       5.622   4.598  14.172  0.00  0.00    +0.000 OA
BRANCH  28  31
ATOM     31  N   UNL     1       5.220   6.723  15.424  0.00  0.00    +0.000 NA
ATOM     32  H   UNL     1       5.518   7.324  14.655  0.00  0.00    +0.000 HD
ATOM     33  H   UNL     1       4.217   6.543  15.450  0.00  0.00    +0.000 HD
ENDBRANCH  28  31
ENDBRANCH  25  28
ENDBRANCH  21  22
ENDBRANCH  20  21
ENDBRANCH  19  20
ENDBRANCH  18  19
ENDBRANCH   1  18
TORSDOF 12
ENDMDL
MODEL 7
REMARK VINA RESULT:      -7.4      1.012      1.499
REMARK  Name = 
REMARK  15 active torsions:
REMARK  status: ('A' for Active; 'I' for Inactive)
REMARK    1  A    between atoms: C_1  and  C_2
REMARK    2  A    between atoms: C_2  and  C_3
REMARK    3  A    between atoms: C_2  and  C_4
REMARK    4  A    between atoms: C_4  and  C_5
REMARK    5  A    between atoms: C_8  and  C_9
REMARK    6  A    between atoms: C_9  and  C_10
REMARK    7  A    between atoms: C_9  and  C_11
REMARK    8  A    between atoms: N_13  and  C_14
REMARK    9  A    between atoms: C_14  and  C_15
REMARK   10  A    between atoms: C_15  and  C_16
REMARK   11  A    between atoms: C_16  and  C_17
REMARK   12  A    between atoms: C_17  and  O_18
REMARK   13  A    between atoms: O_18  and  C_19
REMARK   14  A    between atoms: C_22  and  S_23
REMARK   15  A    between atoms: S_23  and  N_24
REMARK                            x       y       z     vdW  Elec       q    Type
REMARK                         _______ _______ _______ _____ _____    ______ ____
ROOT
ATOM      1  C   UNL     1       2.141   5.359  20.709  0.00  0.00    +0.000 C 
ENDROOT
BRANCH   1   4
ATOM      2  C   UNL     1       1.885   7.731  20.254  0.00  0.00    +0.000 C 
ATOM      3  O   UNL     1       2.528   7.617  19.209  0.00  0.00    +0.000 OA
ATOM      4  N   UNL     1       1.626   6.654  21.079  0.00  0.00    +0.000 N 
ATOM      5  H   UNL     1       0.955   6.746  21.832  0.00  0.00    +0.000 HD
BRANCH   2   6
ATOM      6  C   UNL     1       1.408   9.093  20.744  0.00  0.00    +0.000 C 
ATOM      7  C   UNL     1       0.992   9.005  22.214  0.00  0.00    +0.000 C 
BRANCH   6  11
ATOM      8  C   UNL     1      -1.625  10.907  18.226  0.00  0.00    +0.000 A 
ATOM      9  C   UNL     1      -1.549  11.199  19.593  0.00  0.00    +0.000 A 
ATOM     10  C   UNL     1      -0.550  10.631  20.383  0.00  0.00    +0.000 A 
ATOM     11  C   UNL     1       0.377   9.731  19.832  0.00  0.00    +0.000 A 
ATOM     12  C   UNL     1       0.299   9.448  18.462  0.00  0.00    +0.000 A 
ATOM     13  C   UNL     1      -0.694  10.025  17.670  0.00  0.00    +0.000 A 
BRANCH   8  14
ATOM     14  C   UNL     1      -2.646  11.589  17.348  0.00  0.00    +0.000 C 
BRANCH  14  16
ATOM     15  C   UNL     1      -5.118  12.025  16.921  0.00  0.00    +0.000 C 
ATOM     16  C   UNL     1      -4.091  11.315  17.809  0.00  0.00    +0.000 C 
ATOM     17  C   UNL     1      -4.366   9.811  17.824  0.00  0.00    +0.000 C 
ENDBRANCH  14  16
ENDBRANCH   8  14
ENDBRANCH   6  11
ENDBRANCH   2   6
ENDBRANCH   1   4
BRANCH   1  18
ATOM     18  C   UNL     1       1.069   4.332  20.351  0.00  0.00    +0.000 C 
BRANCH  18  19
ATOM     19  C   UNL     1       1.204   3.853  18.897  0.00  0.00    +0.000 C 
BRANCH  19  20
ATOM     20  C   UNL     1       1.525   2.363  18.814  0.00  0.00    +0.000 C 
BRANCH  20  21
ATOM     21  O   UNL     1       2.870   2.119  19.221  0.00  0.00    +0.000 OA
BRANCH  21  22
ATOM     22  C   UNL     1       3.795   2.948  18.633  0.00  0.00    +0.000 A 
ATOM     23  C   UNL     1       3.645   3.116  17.255  0.00  0.00    +0.000 A 
ATOM     24  C   UNL     1       4.539   3.916  16.540  0.00  0.00    +0.000 A 
ATOM     25  C   UNL     1       5.571   4.571  17.218  0.00  0.00    +0.000 A 
ATOM     26  C   UNL     1       5.721   4.424  18.596  0.00  0.00    +0.000 A 
ATOM     27  C   UNL     1       4.827   3.618  19.302  0.00  0.00    +0.000 A 
BRANCH  25  28
ATOM     28  S   UNL     1       6.721   5.565  16.320  0.00  0.00    +0.000 S 
ATOM     29  O   UNL     1       7.367   6.482  17.228  0.00  0.00    +0.000 OA
ATOM     30  O   UNL     1       7.462   4.730  15.400  0.00  0.00    +0.000 OA
BRANCH  28  31
ATOM     31  N   UNL     1       5.694   6.495  15.375  0.00  0.00    +0.000 NA
ATOM     32  H   UNL     1       5.999   7.469  15.384  0.00  0.00    +0.000 HD
ATOM     33  H   UNL     1       5.617   6.090  14.443  0.00  0.00    +0.000 HD
ENDBRANCH  28  31
ENDBRANCH  25  28
ENDBRANCH  21  22
ENDBRANCH  20  21
ENDBRANCH  19  20
ENDBRANCH  18  19
ENDBRANCH   1  18
TORSDOF 12
ENDMDL
MODEL 8
REMARK VINA RESULT:      -7.4      1.949      3.032
REMARK  Name = 
REMARK  15 active torsions:
REMARK  status: ('A' for Active; 'I' for Inactive)
REMARK    1  A    between atoms: C_1  and  C_2
REMARK    2  A    between atoms: C_2  and  C_3
REMARK    3  A    between atoms: C_2  and  C_4
REMARK    4  A    between atoms: C_4  and  C_5
REMARK    5  A    between atoms: C_8  and  C_9
REMARK    6  A    between atoms: C_9  and  C_10
REMARK    7  A    between atoms: C_9  and  C_11
REMARK    8  A    between atoms: N_13  and  C_14
REMARK    9  A    between atoms: C_14  and  C_15
REMARK   10  A    between atoms: C_15  and  C_16
REMARK   11  A    between atoms: C_16  and  C_17
REMARK   12  A    between atoms: C_17  and  O_18
REMARK   13  A    between atoms: O_18  and  C_19
REMARK   14  A    between atoms: C_22  and  S_23
REMARK   15  A    between atoms: S_23  and  N_24
REMARK                            x       y       z     vdW  Elec       q    Type
REMARK                         _______ _______ _______ _____ _____    ______ ____
ROOT
ATOM      1  C   UNL     1       1.334   4.443  20.943  0.00  0.00    +0.000 C 
ENDROOT
BRANCH   1   4
ATOM      2  C   UNL     1       2.385   6.162  19.585  0.00  0.00    +0.000 C 
ATOM      3  O   UNL     1       3.418   6.081  20.252  0.00  0.00    +0.000 OA
ATOM      4  N   UNL     1       1.279   5.375  19.845  0.00  0.00    +0.000 N 
ATOM      5  H   UNL     1       0.517   5.342  19.178  0.00  0.00    +0.000 HD
BRANCH   2   6
ATOM      6  C   UNL     1       2.236   7.202  18.482  0.00  0.00    +0.000 C 
ATOM      7  C   UNL     1       3.513   7.264  17.641  0.00  0.00    +0.000 C 
BRANCH   6  11
ATOM      8  C   UNL     1       0.752  10.989  19.994  0.00  0.00    +0.000 A 
ATOM      9  C   UNL     1       0.828   9.861  20.819  0.00  0.00    +0.000 A 
ATOM     10  C   UNL     1       1.335   8.658  20.326  0.00  0.00    +0.000 A 
ATOM     11  C   UNL     1       1.747   8.547  18.988  0.00  0.00    +0.000 A 
ATOM     12  C   UNL     1       1.674   9.682  18.170  0.00  0.00    +0.000 A 
ATOM     13  C   UNL     1       1.176  10.888  18.666  0.00  0.00    +0.000 A 
BRANCH   8  14
ATOM     14  C   UNL     1       0.290  12.316  20.546  0.00  0.00    +0.000 C 
BRANCH  14  16
ATOM     15  C   UNL     1      -1.909  11.602  19.480  0.00  0.00    +0.000 C 
ATOM     16  C   UNL     1      -1.246  12.433  20.583  0.00  0.00    +0.000 C 
ATOM     17  C   UNL     1      -1.777  12.005  21.951  0.00  0.00    +0.000 C 
ENDBRANCH  14  16
ENDBRANCH   8  14
ENDBRANCH   6  11
ENDBRANCH   2   6
ENDBRANCH   1   4
BRANCH   1  18
ATOM     18  C   UNL     1       1.305   2.974  20.527  0.00  0.00    +0.000 C 
BRANCH  18  19
ATOM     19  C   UNL     1       0.827   2.803  19.076  0.00  0.00    +0.000 C 
BRANCH  19  20
ATOM     20  C   UNL     1       1.807   1.978  18.245  0.00  0.00    +0.000 C 
BRANCH  20  21
ATOM     21  O   UNL     1       2.244   2.719  17.108  0.00  0.00    +0.000 OA
BRANCH  21  22
ATOM     22  C   UNL     1       3.465   3.329  17.268  0.00  0.00    +0.000 A 
ATOM     23  C   UNL     1       4.035   3.184  18.535  0.00  0.00    +0.000 A 
ATOM     24  C   UNL     1       5.264   3.779  18.828  0.00  0.00    +0.000 A 
ATOM     25  C   UNL     1       5.935   4.499  17.836  0.00  0.00    +0.000 A 
ATOM     26  C   UNL     1       5.384   4.637  16.562  0.00  0.00    +0.000 A 
ATOM     27  C   UNL     1       4.152   4.044  16.280  0.00  0.00    +0.000 A 
BRANCH  25  28
ATOM     28  S   UNL     1       7.478   5.275  18.203  0.00  0.00    +0.000 S 
ATOM     29  O   UNL     1       7.725   6.320  17.239  0.00  0.00    +0.000 OA
ATOM     30  O   UNL     1       7.577   5.495  19.629  0.00  0.00    +0.000 OA
BRANCH  28  31
ATOM     31  N   UNL     1       8.564   4.048  17.846  0.00  0.00    +0.000 NA
ATOM     32  H   UNL     1       9.033   4.245  16.961  0.00  0.00    +0.000 HD
ATOM     33  H   UNL     1       9.197   3.906  18.632  0.00  0.00    +0.000 HD
ENDBRANCH  28  31
ENDBRANCH  25  28
ENDBRANCH  21  22
ENDBRANCH  20  21
ENDBRANCH  19  20
ENDBRANCH  18  19
ENDBRANCH   1  18
TORSDOF 12
ENDMDL
MODEL 9
REMARK VINA RESULT:      -7.3      6.447     10.051
REMARK  Name = 
REMARK  15 active torsions:
REMARK  status: ('A' for Active; 'I' for Inactive)
REMARK    1  A    between atoms: C_1  and  C_2
REMARK    2  A    between atoms: C_2  and  C_3
REMARK    3  A    between atoms: C_2  and  C_4
REMARK    4  A    between atoms: C_4  and  C_5
REMARK    5  A    between atoms: C_8  and  C_9
REMARK    6  A    between atoms: C_9  and  C_10
REMARK    7  A    between atoms: C_9  and  C_11
REMARK    8  A    between atoms: N_13  and  C_14
REMARK    9  A    between atoms: C_14  and  C_15
REMARK   10  A    between atoms: C_15  and  C_16
REMARK   11  A    between atoms: C_16  and  C_17
REMARK   12  A    between atoms: C_17  and  O_18
REMARK   13  A    between atoms: O_18  and  C_19
REMARK   14  A    between atoms: C_22  and  S_23
REMARK   15  A    between atoms: S_23  and  N_24
REMARK                            x       y       z     vdW  Elec       q    Type
REMARK                         _______ _______ _______ _____ _____    ______ ____
ROOT
ATOM      1  C   UNL     1       7.564   8.631  17.733  0.00  0.00    +0.000 C 
ENDROOT
BRANCH   1   4
ATOM      2  C   UNL     1       6.740   6.593  16.700  0.00  0.00    +0.000 C 
ATOM      3  O   UNL     1       5.896   7.233  16.070  0.00  0.00    +0.000 OA
ATOM      4  N   UNL     1       7.635   7.202  17.559  0.00  0.00    +0.000 N 
ATOM      5  H   UNL     1       8.419   6.676  17.924  0.00  0.00    +0.000 HD
BRANCH   2   6
ATOM      6  C   UNL     1       6.789   5.072  16.634  0.00  0.00    +0.000 C 
ATOM      7  C   UNL     1       6.966   4.614  15.184  0.00  0.00    +0.000 C 
BRANCH   6  11
ATOM      8  C   UNL     1       3.601   3.105  18.824  0.00  0.00    +0.000 A 
ATOM      9  C   UNL     1       4.695   3.670  19.490  0.00  0.00    +0.000 A 
ATOM     10  C   UNL     1       5.697   4.324  18.774  0.00  0.00    +0.000 A 
ATOM     11  C   UNL     1       5.646   4.401  17.373  0.00  0.00    +0.000 A 
ATOM     12  C   UNL     1       4.545   3.839  16.713  0.00  0.00    +0.000 A 
ATOM     13  C   UNL     1       3.537   3.193  17.430  0.00  0.00    +0.000 A 
BRANCH   8  14
ATOM     14  C   UNL     1       2.468   2.476  19.599  0.00  0.00    +0.000 C 
BRANCH  14  16
ATOM     15  C   UNL     1       1.040   4.451  20.336  0.00  0.00    +0.000 C 
ATOM     16  C   UNL     1       2.009   3.352  20.781  0.00  0.00    +0.000 C 
ATOM     17  C   UNL     1       1.357   2.487  21.860  0.00  0.00    +0.000 C 
ENDBRANCH  14  16
ENDBRANCH   8  14
ENDBRANCH   6  11
ENDBRANCH   2   6
ENDBRANCH   1   4
BRANCH   1  18
ATOM     18  C   UNL     1       8.726   9.229  18.524  0.00  0.00    +0.000 C 
BRANCH  18  19
ATOM     19  C   UNL     1       8.963  10.703  18.159  0.00  0.00    +0.000 C 
BRANCH  19  20
ATOM     20  C   UNL     1       9.985  11.362  19.082  0.00  0.00    +0.000 C 
BRANCH  20  21
ATOM     21  O   UNL     1       9.754  10.978  20.436  0.00  0.00    +0.000 OA
BRANCH  21  22
ATOM     22  C   UNL     1       9.437  12.021  21.271  0.00  0.00    +0.000 A 
ATOM     23  C   UNL     1       8.422  11.754  22.192  0.00  0.00    +0.000 A 
ATOM     24  C   UNL     1       7.993  12.743  23.079  0.00  0.00    +0.000 A 
ATOM     25  C   UNL     1       8.607  13.999  23.059  0.00  0.00    +0.000 A 
ATOM     26  C   UNL     1       9.634  14.274  22.156  0.00  0.00    +0.000 A 
ATOM     27  C   UNL     1      10.051  13.280  21.268  0.00  0.00    +0.000 A 
BRANCH  25  28
ATOM     28  S   UNL     1       8.057  15.265  24.160  0.00  0.00    +0.000 S 
ATOM     29  O   UNL     1       6.867  14.816  24.842  0.00  0.00    +0.000 OA
ATOM     30  O   UNL     1       9.194  15.817  24.862  0.00  0.00    +0.000 OA
BRANCH  28  31
ATOM     31  N   UNL     1       7.556  16.450  23.084  0.00  0.00    +0.000 NA
ATOM     32  H   UNL     1       6.945  17.115  23.559  0.00  0.00    +0.000 HD
ATOM     33  H   UNL     1       8.366  16.874  22.633  0.00  0.00    +0.000 HD
ENDBRANCH  28  31
ENDBRANCH  25  28
ENDBRANCH  21  22
ENDBRANCH  20  21
ENDBRANCH  19  20
ENDBRANCH  18  19
ENDBRANCH   1  18
TORSDOF 12
ENDMDL
