MODEL 1
REMARK VINA RESULT:      -7.5      0.000      0.000
REMARK  Name = 
REMARK  6 active torsions:
REMARK  status: ('A' for Active; 'I' for Inactive)
REMARK    1  A    between atoms: C_1  and  O_2
REMARK    2  A    between atoms: O_2  and  C_3
REMARK    3  A    between atoms: C_6  and  S_7
REMARK    4  A    between atoms: S_7  and  N_10
REMARK    5  A    between atoms: C_14  and  C_16
REMARK    6  A    between atoms: C_17  and  C_18
REMARK                            x       y       z     vdW  Elec       q    Type
REMARK                         _______ _______ _______ _____ _____    ______ ____
ROOT
ATOM      1  N   UNL     1      -0.789  10.154  21.127  0.00  0.00    +0.000 NA
ATOM      2  C   UNL     1      -0.799  10.609  19.709  0.00  0.00    +0.000 C 
ATOM      3  C   UNL     1       0.511  10.304  18.972  0.00  0.00    +0.000 C 
ATOM      4  N   UNL     1       1.014   8.936  19.138  0.00  0.00    +0.000 N 
ATOM      5  C   UNL     1       2.098   8.615  18.314  0.00  0.00    +0.000 C 
ATOM      6  O   UNL     1       2.516   9.369  17.437  0.00  0.00    +0.000 OA
ATOM      7  C   UNL     1       0.854   8.341  20.475  0.00  0.00    +0.000 C 
ATOM      8  C   UNL     1      -0.465   8.695  21.184  0.00  0.00    +0.000 C 
ENDROOT
BRANCH   1   9
ATOM      9  S   UNL     1       0.007  11.119  22.283  0.00  0.00    +0.000 S 
ATOM     10  O   UNL     1       1.042  11.867  21.602  0.00  0.00    +0.000 OA
ATOM     11  O   UNL     1       0.336  10.270  23.409  0.00  0.00    +0.000 OA
BRANCH   9  15
ATOM     12  C   UNL     1      -3.140  14.092  23.805  0.00  0.00    +0.000 A 
ATOM     13  C   UNL     1      -3.432  12.724  23.740  0.00  0.00    +0.000 A 
ATOM     14  C   UNL     1      -2.483  11.810  23.269  0.00  0.00    +0.000 A 
ATOM     15  C   UNL     1      -1.239  12.272  22.831  0.00  0.00    +0.000 A 
ATOM     16  C   UNL     1      -0.931  13.633  22.913  0.00  0.00    +0.000 A 
ATOM     17  C   UNL     1      -1.886  14.542  23.389  0.00  0.00    +0.000 A 
BRANCH  12  19
ATOM     18  C   UNL     1      -3.776  16.093  24.912  0.00  0.00    +0.000 C 
ATOM     19  O   UNL     1      -4.157  14.884  24.265  0.00  0.00    +0.000 OA
ENDBRANCH  12  19
ENDBRANCH   9  15
ENDBRANCH   1   9
BRANCH   5  20
ATOM     20  C   UNL     1       2.727   7.279  18.497  0.00  0.00    +0.000 C 
ATOM     21  C   UNL     1       2.305   6.234  17.772  0.00  0.00    +0.000 C 
BRANCH  21  22
ATOM     22  C   UNL     1       2.793   4.879  18.038  0.00  0.00    +0.000 A 
ATOM     23  C   UNL     1       2.052   3.782  17.577  0.00  0.00    +0.000 A 
ATOM     24  C   UNL     1       2.474   2.482  17.856  0.00  0.00    +0.000 A 
ATOM     25  C   UNL     1       3.634   2.282  18.593  0.00  0.00    +0.000 A 
ATOM     26  F   UNL     1       4.033   1.033  18.869  0.00  0.00    +0.000 F 
ATOM     27  C   UNL     1       4.387   3.359  19.050  0.00  0.00    +0.000 A 
ATOM     28  C   UNL     1       3.966   4.663  18.773  0.00  0.00    +0.000 A 
ENDBRANCH  21  22
ENDBRANCH   5  20
TORSDOF 5
ENDMDL
MODEL 2
REMARK VINA RESULT:      -7.3      0.478      1.041
REMARK  Name = 
REMARK  6 active torsions:
REMARK  status: ('A' for Active; 'I' for Inactive)
REMARK    1  A    between atoms: C_1  and  O_2
REMARK    2  A    between atoms: O_2  and  C_3
REMARK    3  A    between atoms: C_6  and  S_7
REMARK    4  A    between atoms: S_7  and  N_10
REMARK    5  A    between atoms: C_14  and  C_16
REMARK    6  A    between atoms: C_17  and  C_18
REMARK                            x       y       z     vdW  Elec       q    Type
REMARK                         _______ _______ _______ _____ _____    ______ ____
ROOT
ATOM      1  N   UNL     1      -0.775  10.177  21.089  0.00  0.00    +0.000 NA
ATOM      2  C   UNL     1      -0.749  10.598  19.660  0.00  0.00    +0.000 C 
ATOM      3  C   UNL     1       0.565  10.241  18.954  0.00  0.00    +0.000 C 
ATOM      4  N   UNL     1       1.028   8.864  19.162  0.00  0.00    +0.000 N 
ATOM      5  C   UNL     1       2.117   8.494  18.364  0.00  0.00    +0.000 C 
ATOM      6  O   UNL     1       2.570   9.216  17.478  0.00  0.00    +0.000 OA
ATOM      7  C   UNL     1       0.830   8.307  20.509  0.00  0.00    +0.000 C 
ATOM      8  C   UNL     1      -0.491   8.713  21.186  0.00  0.00    +0.000 C 
ENDROOT
BRANCH   1   9
ATOM      9  S   UNL     1       0.026  11.149  22.235  0.00  0.00    +0.000 S 
ATOM     10  O   UNL     1       1.085  11.862  21.552  0.00  0.00    +0.000 OA
ATOM     11  O   UNL     1       0.325  10.316  23.381  0.00  0.00    +0.000 OA
BRANCH   9  15
ATOM     12  C   UNL     1      -3.092  14.199  23.665  0.00  0.00    +0.000 A 
ATOM     13  C   UNL     1      -3.464  12.873  23.407  0.00  0.00    +0.000 A 
ATOM     14  C   UNL     1      -2.523  11.937  22.962  0.00  0.00    +0.000 A 
ATOM     15  C   UNL     1      -1.202  12.338  22.745  0.00  0.00    +0.000 A 
ATOM     16  C   UNL     1      -0.817  13.653  23.020  0.00  0.00    +0.000 A 
ATOM     17  C   UNL     1      -1.765  14.584  23.468  0.00  0.00    +0.000 A 
BRANCH  12  19
ATOM     18  C   UNL     1      -5.431  14.586  23.784  0.00  0.00    +0.000 C 
ATOM     19  O   UNL     1      -4.106  15.019  24.076  0.00  0.00    +0.000 OA
ENDBRANCH  12  19
ENDBRANCH   9  15
ENDBRANCH   1   9
BRANCH   5  20
ATOM     20  C   UNL     1       2.707   7.147  18.591  0.00  0.00    +0.000 C 
ATOM     21  C   UNL     1       2.310   6.108  17.843  0.00  0.00    +0.000 C 
BRANCH  21  22
ATOM     22  C   UNL     1       2.755   4.745  18.143  0.00  0.00    +0.000 A 
ATOM     23  C   UNL     1       3.853   4.556  18.993  0.00  0.00    +0.000 A 
ATOM     24  C   UNL     1       4.323   3.269  19.258  0.00  0.00    +0.000 A 
ATOM     25  C   UNL     1       3.693   2.177  18.677  0.00  0.00    +0.000 A 
ATOM     26  F   UNL     1       4.151   0.942  18.924  0.00  0.00    +0.000 F 
ATOM     27  C   UNL     1       2.595   2.346  17.839  0.00  0.00    +0.000 A 
ATOM     28  C   UNL     1       2.123   3.634  17.569  0.00  0.00    +0.000 A 
ENDBRANCH  21  22
ENDBRANCH   5  20
TORSDOF 5
ENDMDL
MODEL 3
REMARK VINA RESULT:      -7.3      4.968     10.788
REMARK  Name = 
REMARK  6 active torsions:
REMARK  status: ('A' for Active; 'I' for Inactive)
REMARK    1  A    between atoms: C_1  and  O_2
REMARK    2  A    between atoms: O_2  and  C_3
REMARK    3  A    between atoms: C_6  and  S_7
REMARK    4  A    between atoms: S_7  and  N_10
REMARK    5  A    between atoms: C_14  and  C_16
REMARK    6  A    between atoms: C_17  and  C_18
REMARK                            x       y       z     vdW  Elec       q    Type
REMARK                         _______ _______ _______ _____ _____    ______ ____
ROOT
ATOM      1  N   UNL     1       3.137   4.426  18.716  0.00  0.00    +0.000 NA
ATOM      2  C   UNL     1       2.207   4.264  19.869  0.00  0.00    +0.000 C 
ATOM      3  C   UNL     1       2.050   5.546  20.697  0.00  0.00    +0.000 C 
ATOM      4  N   UNL     1       1.799   6.763  19.916  0.00  0.00    +0.000 N 
ATOM      5  C   UNL     1       1.468   7.885  20.685  0.00  0.00    +0.000 C 
ATOM      6  O   UNL     1       1.281   7.829  21.899  0.00  0.00    +0.000 OA
ATOM      7  C   UNL     1       2.530   6.883  18.645  0.00  0.00    +0.000 C 
ATOM      8  C   UNL     1       2.683   5.567  17.862  0.00  0.00    +0.000 C 
ENDROOT
BRANCH   1   9
ATOM      9  S   UNL     1       4.813   4.362  19.009  0.00  0.00    +0.000 S 
ATOM     10  O   UNL     1       5.111   3.076  19.606  0.00  0.00    +0.000 OA
ATOM     11  O   UNL     1       5.186   5.586  19.685  0.00  0.00    +0.000 OA
BRANCH   9  15
ATOM     12  C   UNL     1       6.687   4.590  14.827  0.00  0.00    +0.000 A 
ATOM     13  C   UNL     1       5.383   4.108  14.993  0.00  0.00    +0.000 A 
ATOM     14  C   UNL     1       4.805   4.026  16.265  0.00  0.00    +0.000 A 
ATOM     15  C   UNL     1       5.550   4.402  17.386  0.00  0.00    +0.000 A 
ATOM     16  C   UNL     1       6.844   4.906  17.227  0.00  0.00    +0.000 A 
ATOM     17  C   UNL     1       7.415   4.988  15.949  0.00  0.00    +0.000 A 
BRANCH  12  19
ATOM     18  C   UNL     1       6.498   3.720  12.626  0.00  0.00    +0.000 C 
ATOM     19  O   UNL     1       7.144   4.604  13.537  0.00  0.00    +0.000 OA
ENDBRANCH  12  19
ENDBRANCH   9  15
ENDBRANCH   1   9
BRANCH   5  20
ATOM     20  C   UNL     1       1.299   9.179  19.972  0.00  0.00    +0.000 C 
ATOM     21  C   UNL     1       0.864  10.259  20.637  0.00  0.00    +0.000 C 
BRANCH  21  22
ATOM     22  C   UNL     1       0.540  11.502  19.934  0.00  0.00    +0.000 A 
ATOM     23  C   UNL     1       1.335  12.636  20.151  0.00  0.00    +0.000 A 
ATOM     24  C   UNL     1       1.020  13.845  19.528  0.00  0.00    +0.000 A 
ATOM     25  C   UNL     1      -0.086  13.915  18.690  0.00  0.00    +0.000 A 
ATOM     26  F   UNL     1      -0.393  15.077  18.100  0.00  0.00    +0.000 F 
ATOM     27  C   UNL     1      -0.880  12.796  18.456  0.00  0.00    +0.000 A 
ATOM     28  C   UNL     1      -0.567  11.584  19.080  0.00  0.00    +0.000 A 
ENDBRANCH  21  22
ENDBRANCH   5  20
TORSDOF 5
ENDMDL
MODEL 4
REMARK VINA RESULT:      -7.1      1.206      1.839
REMARK  Name = 
REMARK  6 active torsions:
REMARK  status: ('A' for Active; 'I' for Inactive)
REMARK    1  A    between atoms: C_1  and  O_2
REMARK    2  A    between atoms: O_2  and  C_3
REMARK    3  A    between atoms: C_6  and  S_7
REMARK    4  A    between atoms: S_7  and  N_10
REMARK    5  A    between atoms: C_14  and  C_16
REMARK    6  A    between atoms: C_17  and  C_18
REMARK                            x       y       z     vdW  Elec       q    Type
REMARK                         _______ _______ _______ _____ _____    ______ ____
ROOT
ATOM      1  N   UNL     1      -0.833  11.920  20.527  0.00  0.00    +0.000 NA
ATOM      2  C   UNL     1      -0.306  12.520  19.270  0.00  0.00    +0.000 C 
ATOM      3  C   UNL     1       0.929  11.788  18.729  0.00  0.00    +0.000 C 
ATOM      4  N   UNL     1       0.809  10.327  18.669  0.00  0.00    +0.000 N 
ATOM      5  C   UNL     1       1.859   9.688  18.000  0.00  0.00    +0.000 C 
ATOM      6  O   UNL     1       2.743  10.302  17.405  0.00  0.00    +0.000 OA
ATOM      7  C   UNL     1       0.098   9.685  19.787  0.00  0.00    +0.000 C 
ATOM      8  C   UNL     1      -1.119  10.469  20.311  0.00  0.00    +0.000 C 
ENDROOT
BRANCH   1   9
ATOM      9  S   UNL     1      -0.053  12.295  21.994  0.00  0.00    +0.000 S 
ATOM     10  O   UNL     1       1.083  13.140  21.690  0.00  0.00    +0.000 OA
ATOM     11  O   UNL     1       0.129  11.056  22.721  0.00  0.00    +0.000 OA
BRANCH   9  15
ATOM     12  C   UNL     1      -3.188  14.814  24.205  0.00  0.00    +0.000 A 
ATOM     13  C   UNL     1      -2.001  15.401  23.749  0.00  0.00    +0.000 A 
ATOM     14  C   UNL     1      -1.035  14.640  23.082  0.00  0.00    +0.000 A 
ATOM     15  C   UNL     1      -1.244  13.271  22.894  0.00  0.00    +0.000 A 
ATOM     16  C   UNL     1      -2.436  12.681  23.326  0.00  0.00    +0.000 A 
ATOM     17  C   UNL     1      -3.400  13.451  23.991  0.00  0.00    +0.000 A 
BRANCH  12  19
ATOM     18  C   UNL     1      -3.576  16.985  25.082  0.00  0.00    +0.000 C 
ATOM     19  O   UNL     1      -4.043  15.659  24.857  0.00  0.00    +0.000 OA
ENDBRANCH  12  19
ENDBRANCH   9  15
ENDBRANCH   1   9
BRANCH   5  20
ATOM     20  C   UNL     1       1.859   8.200  17.987  0.00  0.00    +0.000 C 
ATOM     21  C   UNL     1       3.017   7.529  18.065  0.00  0.00    +0.000 C 
BRANCH  21  22
ATOM     22  C   UNL     1       3.064   6.075  17.899  0.00  0.00    +0.000 A 
ATOM     23  C   UNL     1       4.263   5.471  17.497  0.00  0.00    +0.000 A 
ATOM     24  C   UNL     1       4.321   4.093  17.288  0.00  0.00    +0.000 A 
ATOM     25  C   UNL     1       3.182   3.323  17.484  0.00  0.00    +0.000 A 
ATOM     26  F   UNL     1       3.235   2.001  17.273  0.00  0.00    +0.000 F 
ATOM     27  C   UNL     1       1.985   3.904  17.892  0.00  0.00    +0.000 A 
ATOM     28  C   UNL     1       1.924   5.286  18.100  0.00  0.00    +0.000 A 
ENDBRANCH  21  22
ENDBRANCH   5  20
TORSDOF 5
ENDMDL
MODEL 5
REMARK VINA RESULT:      -7.0      3.546      4.296
REMARK  Name = 
REMARK  6 active torsions:
REMARK  status: ('A' for Active; 'I' for Inactive)
REMARK    1  A    between atoms: C_1  and  O_2
REMARK    2  A    between atoms: O_2  and  C_3
REMARK    3  A    between atoms: C_6  and  S_7
REMARK    4  A    between atoms: S_7  and  N_10
REMARK    5  A    between atoms: C_14  and  C_16
REMARK    6  A    between atoms: C_17  and  C_18
REMARK                            x       y       z     vdW  Elec       q    Type
REMARK                         _______ _______ _______ _____ _____    ______ ____
ROOT
ATOM      1  N   UNL     1      -0.322  12.806  20.353  0.00  0.00    +0.000 NA
ATOM      2  C   UNL     1      -0.222  12.756  18.867  0.00  0.00    +0.000 C 
ATOM      3  C   UNL     1       0.840  11.766  18.371  0.00  0.00    +0.000 C 
ATOM      4  N   UNL     1       0.793  10.439  18.995  0.00  0.00    +0.000 N 
ATOM      5  C   UNL     1       1.636   9.492  18.402  0.00  0.00    +0.000 C 
ATOM      6  O   UNL     1       2.269   9.715  17.372  0.00  0.00    +0.000 OA
ATOM      7  C   UNL     1       0.479  10.405  20.432  0.00  0.00    +0.000 C 
ATOM      8  C   UNL     1      -0.574  11.432  20.886  0.00  0.00    +0.000 C 
ENDROOT
BRANCH   1   9
ATOM      9  S   UNL     1       0.831  13.717  21.213  0.00  0.00    +0.000 S 
ATOM     10  O   UNL     1       2.087  12.998  21.172  0.00  0.00    +0.000 OA
ATOM     11  O   UNL     1       0.239  14.085  22.482  0.00  0.00    +0.000 OA
BRANCH   9  15
ATOM     12  C   UNL     1       1.234  17.515  18.668  0.00  0.00    +0.000 A 
ATOM     13  C   UNL     1       2.254  16.556  18.675  0.00  0.00    +0.000 A 
ATOM     14  C   UNL     1       2.145  15.399  19.455  0.00  0.00    +0.000 A 
ATOM     15  C   UNL     1       1.017  15.212  20.258  0.00  0.00    +0.000 A 
ATOM     16  C   UNL     1      -0.016  16.154  20.241  0.00  0.00    +0.000 A 
ATOM     17  C   UNL     1       0.100  17.309  19.455  0.00  0.00    +0.000 A 
BRANCH  12  19
ATOM     18  C   UNL     1       0.816  18.631  16.615  0.00  0.00    +0.000 C 
ATOM     19  O   UNL     1       1.468  18.609  17.881  0.00  0.00    +0.000 OA
ENDBRANCH  12  19
ENDBRANCH   9  15
ENDBRANCH   1   9
BRANCH   5  20
ATOM     20  C   UNL     1       1.718   8.151  19.042  0.00  0.00    +0.000 C 
ATOM     21  C   UNL     1       2.208   7.110  18.355  0.00  0.00    +0.000 C 
BRANCH  21  22
ATOM     22  C   UNL     1       2.158   5.751  18.900  0.00  0.00    +0.000 A 
ATOM     23  C   UNL     1       2.015   4.668  18.022  0.00  0.00    +0.000 A 
ATOM     24  C   UNL     1       1.920   3.368  18.520  0.00  0.00    +0.000 A 
ATOM     25  C   UNL     1       1.971   3.155  19.892  0.00  0.00    +0.000 A 
ATOM     26  F   UNL     1       1.869   1.907  20.369  0.00  0.00    +0.000 F 
ATOM     27  C   UNL     1       2.122   4.218  20.776  0.00  0.00    +0.000 A 
ATOM     28  C   UNL     1       2.215   5.522  20.281  0.00  0.00    +0.000 A 
ENDBRANCH  21  22
ENDBRANCH   5  20
TORSDOF 5
ENDMDL
MODEL 6
REMARK VINA RESULT:      -7.0      1.887      2.451
REMARK  Name = 
REMARK  6 active torsions:
REMARK  status: ('A' for Active; 'I' for Inactive)
REMARK    1  A    between atoms: C_1  and  O_2
REMARK    2  A    between atoms: O_2  and  C_3
REMARK    3  A    between atoms: C_6  and  S_7
REMARK    4  A    between atoms: S_7  and  N_10
REMARK    5  A    between atoms: C_14  and  C_16
REMARK    6  A    between atoms: C_17  and  C_18
REMARK                            x       y       z     vdW  Elec       q    Type
REMARK                         _______ _______ _______ _____ _____    ______ ____
ROOT
ATOM      1  N   UNL     1      -1.690  12.104  19.929  0.00  0.00    +0.000 NA
ATOM      2  C   UNL     1      -0.990  12.713  18.763  0.00  0.00    +0.000 C 
ATOM      3  C   UNL     1       0.404  12.120  18.524  0.00  0.00    +0.000 C 
ATOM      4  N   UNL     1       0.467  10.654  18.536  0.00  0.00    +0.000 N 
ATOM      5  C   UNL     1       1.697  10.125  18.129  0.00  0.00    +0.000 C 
ATOM      6  O   UNL     1       2.606  10.821  17.681  0.00  0.00    +0.000 OA
ATOM      7  C   UNL     1      -0.378   9.975  19.531  0.00  0.00    +0.000 C 
ATOM      8  C   UNL     1      -1.757  10.620  19.754  0.00  0.00    +0.000 C 
ENDROOT
BRANCH   1   9
ATOM      9  S   UNL     1      -1.271  12.632  21.493  0.00  0.00    +0.000 S 
ATOM     10  O   UNL     1      -0.716  13.964  21.379  0.00  0.00    +0.000 OA
ATOM     11  O   UNL     1      -0.511  11.573  22.123  0.00  0.00    +0.000 OA
BRANCH   9  15
ATOM     12  C   UNL     1      -5.295  12.822  23.693  0.00  0.00    +0.000 A 
ATOM     13  C   UNL     1      -5.207  13.186  22.343  0.00  0.00    +0.000 A 
ATOM     14  C   UNL     1      -3.984  13.140  21.665  0.00  0.00    +0.000 A 
ATOM     15  C   UNL     1      -2.829  12.754  22.352  0.00  0.00    +0.000 A 
ATOM     16  C   UNL     1      -2.911  12.368  23.693  0.00  0.00    +0.000 A 
ATOM     17  C   UNL     1      -4.141  12.414  24.364  0.00  0.00    +0.000 A 
BRANCH  12  19
ATOM     18  C   UNL     1      -7.368  13.975  23.750  0.00  0.00    +0.000 C 
ATOM     19  O   UNL     1      -6.541  12.927  24.245  0.00  0.00    +0.000 OA
ENDBRANCH  12  19
ENDBRANCH   9  15
ENDBRANCH   1   9
BRANCH   5  20
ATOM     20  C   UNL     1       1.870   8.650  18.212  0.00  0.00    +0.000 C 
ATOM     21  C   UNL     1       3.024   8.088  17.826  0.00  0.00    +0.000 C 
BRANCH  21  22
ATOM     22  C   UNL     1       3.170   6.632  17.749  0.00  0.00    +0.000 A 
ATOM     23  C   UNL     1       4.351   6.091  17.223  0.00  0.00    +0.000 A 
ATOM     24  C   UNL     1       4.496   4.709  17.098  0.00  0.00    +0.000 A 
ATOM     25  C   UNL     1       3.462   3.873  17.501  0.00  0.00    +0.000 A 
ATOM     26  F   UNL     1       3.598   2.547  17.371  0.00  0.00    +0.000 F 
ATOM     27  C   UNL     1       2.287   4.393  18.033  0.00  0.00    +0.000 A 
ATOM     28  C   UNL     1       2.138   5.778  18.159  0.00  0.00    +0.000 A 
ENDBRANCH  21  22
ENDBRANCH   5  20
TORSDOF 5
ENDMDL
MODEL 7
REMARK VINA RESULT:      -7.0      5.533      8.491
REMARK  Name = 
REMARK  6 active torsions:
REMARK  status: ('A' for Active; 'I' for Inactive)
REMARK    1  A    between atoms: C_1  and  O_2
REMARK    2  A    between atoms: O_2  and  C_3
REMARK    3  A    between atoms: C_6  and  S_7
REMARK    4  A    between atoms: S_7  and  N_10
REMARK    5  A    between atoms: C_14  and  C_16
REMARK    6  A    between atoms: C_17  and  C_18
REMARK                            x       y       z     vdW  Elec       q    Type
REMARK                         _______ _______ _______ _____ _____    ______ ____
ROOT
ATOM      1  N   UNL     1       4.084   3.759  18.796  0.00  0.00    +0.000 NA
ATOM      2  C   UNL     1       5.092   3.189  17.859  0.00  0.00    +0.000 C 
ATOM      3  C   UNL     1       5.886   4.264  17.107  0.00  0.00    +0.000 C 
ATOM      4  N   UNL     1       6.419   5.343  17.946  0.00  0.00    +0.000 N 
ATOM      5  C   UNL     1       7.298   6.209  17.284  0.00  0.00    +0.000 C 
ATOM      6  O   UNL     1       7.688   6.012  16.135  0.00  0.00    +0.000 OA
ATOM      7  C   UNL     1       5.551   5.808  19.039  0.00  0.00    +0.000 C 
ATOM      8  C   UNL     1       4.756   4.697  19.747  0.00  0.00    +0.000 C 
ENDROOT
BRANCH   1   9
ATOM      9  S   UNL     1       2.604   4.310  18.158  0.00  0.00    +0.000 S 
ATOM     10  O   UNL     1       1.590   3.325  18.472  0.00  0.00    +0.000 OA
ATOM     11  O   UNL     1       2.840   4.707  16.787  0.00  0.00    +0.000 OA
BRANCH   9  15
ATOM     12  C   UNL     1       1.554   8.098  20.528  0.00  0.00    +0.000 A 
ATOM     13  C   UNL     1       2.025   8.193  19.212  0.00  0.00    +0.000 A 
ATOM     14  C   UNL     1       2.356   7.045  18.484  0.00  0.00    +0.000 A 
ATOM     15  C   UNL     1       2.244   5.790  19.087  0.00  0.00    +0.000 A 
ATOM     16  C   UNL     1       1.754   5.684  20.393  0.00  0.00    +0.000 A 
ATOM     17  C   UNL     1       1.422   6.838  21.115  0.00  0.00    +0.000 A 
BRANCH  12  19
ATOM     18  C   UNL     1      -0.001   9.855  20.887  0.00  0.00    +0.000 C 
ATOM     19  O   UNL     1       1.283   9.292  21.138  0.00  0.00    +0.000 OA
ENDBRANCH  12  19
ENDBRANCH   9  15
ENDBRANCH   1   9
BRANCH   5  20
ATOM     20  C   UNL     1       7.800   7.387  18.041  0.00  0.00    +0.000 C 
ATOM     21  C   UNL     1       7.762   8.606  17.486  0.00  0.00    +0.000 C 
BRANCH  21  22
ATOM     22  C   UNL     1       8.388   9.758  18.140  0.00  0.00    +0.000 A 
ATOM     23  C   UNL     1       8.277  11.023  17.548  0.00  0.00    +0.000 A 
ATOM     24  C   UNL     1       8.902  12.128  18.129  0.00  0.00    +0.000 A 
ATOM     25  C   UNL     1       9.634  11.963  19.298  0.00  0.00    +0.000 A 
ATOM     26  F   UNL     1      10.243  13.022  19.849  0.00  0.00    +0.000 F 
ATOM     27  C   UNL     1       9.747  10.716  19.904  0.00  0.00    +0.000 A 
ATOM     28  C   UNL     1       9.122   9.607  19.324  0.00  0.00    +0.000 A 
ENDBRANCH  21  22
ENDBRANCH   5  20
TORSDOF 5
ENDMDL
MODEL 8
REMARK VINA RESULT:      -6.9      1.282      1.741
REMARK  Name = 
REMARK  6 active torsions:
REMARK  status: ('A' for Active; 'I' for Inactive)
REMARK    1  A    between atoms: C_1  and  O_2
REMARK    2  A    between atoms: O_2  and  C_3
REMARK    3  A    between atoms: C_6  and  S_7
REMARK    4  A    between atoms: S_7  and  N_10
REMARK    5  A    between atoms: C_14  and  C_16
REMARK    6  A    between atoms: C_17  and  C_18
REMARK                            x       y       z     vdW  Elec       q    Type
REMARK                         _______ _______ _______ _____ _____    ______ ____
ROOT
ATOM      1  N   UNL     1      -0.820  11.964  20.226  0.00  0.00    +0.000 NA
ATOM      2  C   UNL     1      -0.103  12.598  19.085  0.00  0.00    +0.000 C 
ATOM      3  C   UNL     1       1.141  11.814  18.648  0.00  0.00    +0.000 C 
ATOM      4  N   UNL     1       0.937  10.371  18.476  0.00  0.00    +0.000 N 
ATOM      5  C   UNL     1       2.021   9.700  17.897  0.00  0.00    +0.000 C 
ATOM      6  O   UNL     1       3.009  10.284  17.456  0.00  0.00    +0.000 OA
ATOM      7  C   UNL     1       0.054   9.716  19.454  0.00  0.00    +0.000 C 
ATOM      8  C   UNL     1      -1.167  10.551  19.879  0.00  0.00    +0.000 C 
ENDROOT
BRANCH   1   9
ATOM      9  S   UNL     1      -0.207  12.194  21.798  0.00  0.00    +0.000 S 
ATOM     10  O   UNL     1       0.961  13.045  21.700  0.00  0.00    +0.000 OA
ATOM     11  O   UNL     1      -0.115  10.894  22.426  0.00  0.00    +0.000 OA
BRANCH   9  15
ATOM     12  C   UNL     1      -3.530  14.593  23.864  0.00  0.00    +0.000 A 
ATOM     13  C   UNL     1      -2.194  15.003  23.962  0.00  0.00    +0.000 A 
ATOM     14  C   UNL     1      -1.173  14.274  23.343  0.00  0.00    +0.000 A 
ATOM     15  C   UNL     1      -1.486  13.106  22.644  0.00  0.00    +0.000 A 
ATOM     16  C   UNL     1      -2.818  12.701  22.522  0.00  0.00    +0.000 A 
ATOM     17  C   UNL     1      -3.836  13.438  23.142  0.00  0.00    +0.000 A 
BRANCH  12  19
ATOM     18  C   UNL     1      -5.701  15.552  23.906  0.00  0.00    +0.000 C 
ATOM     19  O   UNL     1      -4.431  15.379  24.527  0.00  0.00    +0.000 OA
ENDBRANCH  12  19
ENDBRANCH   9  15
ENDBRANCH   1   9
BRANCH   5  20
ATOM     20  C   UNL     1       1.929   8.219  17.784  0.00  0.00    +0.000 C 
ATOM     21  C   UNL     1       2.917   7.448  18.259  0.00  0.00    +0.000 C 
BRANCH  21  22
ATOM     22  C   UNL     1       2.930   6.002  18.024  0.00  0.00    +0.000 A 
ATOM     23  C   UNL     1       1.911   5.212  18.575  0.00  0.00    +0.000 A 
ATOM     24  C   UNL     1       1.926   3.827  18.403  0.00  0.00    +0.000 A 
ATOM     25  C   UNL     1       2.956   3.238  17.681  0.00  0.00    +0.000 A 
ATOM     26  F   UNL     1       2.975   1.908  17.525  0.00  0.00    +0.000 F 
ATOM     27  C   UNL     1       3.969   4.009  17.119  0.00  0.00    +0.000 A 
ATOM     28  C   UNL     1       3.958   5.396  17.291  0.00  0.00    +0.000 A 
ENDBRANCH  21  22
ENDBRANCH   5  20
TORSDOF 5
ENDMDL
MODEL 9
REMARK VINA RESULT:      -6.8      5.218     10.535
REMARK  Name = 
REMARK  6 active torsions:
REMARK  status: ('A' for Active; 'I' for Inactive)
REMARK    1  A    between atoms: C_1  and  O_2
REMARK    2  A    between atoms: O_2  and  C_3
REMARK    3  A    between atoms: C_6  and  S_7
REMARK    4  A    between atoms: S_7  and  N_10
REMARK    5  A    between atoms: C_14  and  C_16
REMARK    6  A    between atoms: C_17  and  C_18
REMARK                            x       y       z     vdW  Elec       q    Type
REMARK                         _______ _______ _______ _____ _____    ______ ____
ROOT
ATOM      1  N   UNL     1       3.359   4.177  19.175  0.00  0.00    +0.000 NA
ATOM      2  C   UNL     1       4.365   5.264  19.334  0.00  0.00    +0.000 C 
ATOM      3  C   UNL     1       4.068   6.489  18.459  0.00  0.00    +0.000 C 
ATOM      4  N   UNL     1       2.682   6.968  18.511  0.00  0.00    +0.000 N 
ATOM      5  C   UNL     1       2.470   8.191  17.863  0.00  0.00    +0.000 C 
ATOM      6  O   UNL     1       3.385   8.867  17.398  0.00  0.00    +0.000 OA
ATOM      7  C   UNL     1       1.637   5.934  18.576  0.00  0.00    +0.000 C 
ATOM      8  C   UNL     1       1.991   4.716  19.447  0.00  0.00    +0.000 C 
ENDROOT
BRANCH   1   9
ATOM      9  S   UNL     1       3.479   3.153  17.820  0.00  0.00    +0.000 S 
ATOM     10  O   UNL     1       2.264   3.296  17.045  0.00  0.00    +0.000 OA
ATOM     11  O   UNL     1       3.897   1.850  18.293  0.00  0.00    +0.000 OA
BRANCH   9  15
ATOM     12  C   UNL     1       6.938   5.006  15.440  0.00  0.00    +0.000 A 
ATOM     13  C   UNL     1       5.646   4.967  14.899  0.00  0.00    +0.000 A 
ATOM     14  C   UNL     1       4.587   4.397  15.613  0.00  0.00    +0.000 A 
ATOM     15  C   UNL     1       4.826   3.832  16.868  0.00  0.00    +0.000 A 
ATOM     16  C   UNL     1       6.107   3.885  17.425  0.00  0.00    +0.000 A 
ATOM     17  C   UNL     1       7.163   4.461  16.705  0.00  0.00    +0.000 A 
BRANCH  12  19
ATOM     18  C   UNL     1       7.832   5.240  13.254  0.00  0.00    +0.000 C 
ATOM     19  O   UNL     1       7.889   5.572  14.637  0.00  0.00    +0.000 OA
ENDBRANCH  12  19
ENDBRANCH   9  15
ENDBRANCH   1   9
BRANCH   5  20
ATOM     20  C   UNL     1       1.071   8.692  17.786  0.00  0.00    +0.000 C 
ATOM     21  C   UNL     1       0.792   9.957  18.129  0.00  0.00    +0.000 C 
BRANCH  21  22
ATOM     22  C   UNL     1      -0.591  10.433  18.213  0.00  0.00    +0.000 A 
ATOM     23  C   UNL     1      -0.913  11.436  19.137  0.00  0.00    +0.000 A 
ATOM     24  C   UNL     1      -2.231  11.875  19.267  0.00  0.00    +0.000 A 
ATOM     25  C   UNL     1      -3.221  11.312  18.471  0.00  0.00    +0.000 A 
ATOM     26  F   UNL     1      -4.488  11.726  18.604  0.00  0.00    +0.000 F 
ATOM     27  C   UNL     1      -2.917  10.322  17.542  0.00  0.00    +0.000 A 
ATOM     28  C   UNL     1      -1.597   9.879  17.411  0.00  0.00    +0.000 A 
ENDBRANCH  21  22
ENDBRANCH   5  20
TORSDOF 5
ENDMDL
