MODEL 1
REMARK VINA RESULT:      -7.4      0.000      0.000
REMARK  Name = 
REMARK  5 active torsions:
REMARK  status: ('A' for Active; 'I' for Inactive)
REMARK    1  A    between atoms: C_1  and  C_2
REMARK    2  A    between atoms: C_2  and  C_3
REMARK    3  A    between atoms: C_2  and  O_4
REMARK    4  A    between atoms: O_4  and  C_5
REMARK    5  A    between atoms: C_9  and  C_10
REMARK                            x       y       z     vdW  Elec       q    Type
REMARK                         _______ _______ _______ _____ _____    ______ ____
ROOT
ATOM      1  C   UNL     1       6.787   5.757  16.217  0.00  0.00    +0.000 A 
ATOM      2  C   UNL     1       7.037   5.085  15.021  0.00  0.00    +0.000 A 
ATOM      3  C   UNL     1       6.202   4.046  14.607  0.00  0.00    +0.000 A 
ATOM      4  C   UNL     1       5.106   3.678  15.391  0.00  0.00    +0.000 A 
ATOM      5  C   UNL     1       4.830   4.362  16.581  0.00  0.00    +0.000 A 
ATOM      6  C   UNL     1       5.665   5.422  16.971  0.00  0.00    +0.000 A 
ENDROOT
BRANCH   5   7
ATOM      7  C   UNL     1       3.714   4.010  17.439  0.00  0.00    +0.000 A 
ATOM      8  C   UNL     1       3.108   2.762  17.530  0.00  0.00    +0.000 A 
ATOM      9  N   UNL     1       2.202   2.926  18.511  0.00  0.00    +0.000 N 
ATOM     10  C   UNL     1       2.259   4.196  18.981  0.00  0.00    +0.000 A 
ATOM     11  N   UNL     1       3.171   4.896  18.361  0.00  0.00    +0.000 NA
ATOM     12  C   UNL     1       1.324   4.423  20.091  0.00  0.00    +0.000 C 
ATOM     13  C   UNL     1       0.614   3.052  20.225  0.00  0.00    +0.000 C 
ATOM     14  C   UNL     1       1.276   2.082  19.225  0.00  0.00    +0.000 C 
ENDBRANCH   5   7
BRANCH   1  15
ATOM     15  O   UNL     1       7.661   6.758  16.536  0.00  0.00    +0.000 OA
BRANCH  15  17
ATOM     16  C   UNL     1       8.128   6.499  18.855  0.00  0.00    +0.000 C 
ATOM     17  C   UNL     1       7.477   7.396  17.808  0.00  0.00    +0.000 C 
ATOM     18  C   UNL     1       8.154   8.762  17.773  0.00  0.00    +0.000 C 
ENDBRANCH  15  17
ENDBRANCH   1  15
TORSDOF 3
ENDMDL
MODEL 2
REMARK VINA RESULT:      -7.4      2.133      3.652
REMARK  Name = 
REMARK  5 active torsions:
REMARK  status: ('A' for Active; 'I' for Inactive)
REMARK    1  A    between atoms: C_1  and  C_2
REMARK    2  A    between atoms: C_2  and  C_3
REMARK    3  A    between atoms: C_2  and  O_4
REMARK    4  A    between atoms: O_4  and  C_5
REMARK    5  A    between atoms: C_9  and  C_10
REMARK                            x       y       z     vdW  Elec       q    Type
REMARK                         _______ _______ _______ _____ _____    ______ ____
ROOT
ATOM      1  C   UNL     1       5.566   4.323  15.065  0.00  0.00    +0.000 A 
ATOM      2  C   UNL     1       5.736   5.701  14.938  0.00  0.00    +0.000 A 
ATOM      3  C   UNL     1       5.207   6.568  15.894  0.00  0.00    +0.000 A 
ATOM      4  C   UNL     1       4.506   6.056  16.988  0.00  0.00    +0.000 A 
ATOM      5  C   UNL     1       4.350   4.673  17.140  0.00  0.00    +0.000 A 
ATOM      6  C   UNL     1       4.911   3.812  16.183  0.00  0.00    +0.000 A 
ENDROOT
BRANCH   5   7
ATOM      7  C   UNL     1       3.618   4.091  18.250  0.00  0.00    +0.000 A 
ATOM      8  C   UNL     1       4.168   3.424  19.339  0.00  0.00    +0.000 A 
ATOM      9  N   UNL     1       3.102   3.163  20.117  0.00  0.00    +0.000 N 
ATOM     10  C   UNL     1       1.978   3.644  19.530  0.00  0.00    +0.000 A 
ATOM     11  N   UNL     1       2.242   4.224  18.391  0.00  0.00    +0.000 NA
ATOM     12  C   UNL     1       0.783   3.432  20.358  0.00  0.00    +0.000 C 
ATOM     13  C   UNL     1       1.349   2.679  21.588  0.00  0.00    +0.000 C 
ATOM     14  C   UNL     1       2.881   2.596  21.423  0.00  0.00    +0.000 C 
ENDBRANCH   5   7
BRANCH   1  15
ATOM     15  O   UNL     1       6.120   3.556  14.078  0.00  0.00    +0.000 OA
BRANCH  15  17
ATOM     16  C   UNL     1       7.240   3.819  11.995  0.00  0.00    +0.000 C 
ATOM     17  C   UNL     1       5.914   3.993  12.727  0.00  0.00    +0.000 C 
ATOM     18  C   UNL     1       4.830   3.128  12.093  0.00  0.00    +0.000 C 
ENDBRANCH  15  17
ENDBRANCH   1  15
TORSDOF 3
ENDMDL
MODEL 3
REMARK VINA RESULT:      -7.3      1.962      3.529
REMARK  Name = 
REMARK  5 active torsions:
REMARK  status: ('A' for Active; 'I' for Inactive)
REMARK    1  A    between atoms: C_1  and  C_2
REMARK    2  A    between atoms: C_2  and  C_3
REMARK    3  A    between atoms: C_2  and  O_4
REMARK    4  A    between atoms: O_4  and  C_5
REMARK    5  A    between atoms: C_9  and  C_10
REMARK                            x       y       z     vdW  Elec       q    Type
REMARK                         _______ _______ _______ _____ _____    ______ ____
ROOT
ATOM      1  C   UNL     1       5.804   4.541  15.078  0.00  0.00    +0.000 A 
ATOM      2  C   UNL     1       7.125   4.736  15.479  0.00  0.00    +0.000 A 
ATOM      3  C   UNL     1       7.470   4.664  16.829  0.00  0.00    +0.000 A 
ATOM      4  C   UNL     1       6.491   4.392  17.786  0.00  0.00    +0.000 A 
ATOM      5  C   UNL     1       5.165   4.170  17.394  0.00  0.00    +0.000 A 
ATOM      6  C   UNL     1       4.838   4.220  16.029  0.00  0.00    +0.000 A 
ENDROOT
BRANCH   5   7
ATOM      7  C   UNL     1       4.107   3.898  18.349  0.00  0.00    +0.000 A 
ATOM      8  C   UNL     1       2.741   3.923  18.093  0.00  0.00    +0.000 A 
ATOM      9  N   UNL     1       2.198   3.519  19.256  0.00  0.00    +0.000 N 
ATOM     10  C   UNL     1       3.179   3.267  20.157  0.00  0.00    +0.000 A 
ATOM     11  N   UNL     1       4.363   3.478  19.649  0.00  0.00    +0.000 NA
ATOM     12  C   UNL     1       2.649   2.773  21.435  0.00  0.00    +0.000 C 
ATOM     13  C   UNL     1       1.118   2.792  21.199  0.00  0.00    +0.000 C 
ATOM     14  C   UNL     1       0.874   3.211  19.735  0.00  0.00    +0.000 C 
ENDBRANCH   5   7
BRANCH   1  15
ATOM     15  O   UNL     1       5.565   4.632  13.736  0.00  0.00    +0.000 OA
BRANCH  15  17
ATOM     16  C   UNL     1       4.959   3.095  12.023  0.00  0.00    +0.000 C 
ATOM     17  C   UNL     1       6.097   3.587  12.910  0.00  0.00    +0.000 C 
ATOM     18  C   UNL     1       7.230   4.159  12.065  0.00  0.00    +0.000 C 
ENDBRANCH  15  17
ENDBRANCH   1  15
TORSDOF 3
ENDMDL
MODEL 4
REMARK VINA RESULT:      -7.3      0.760      1.152
REMARK  Name = 
REMARK  5 active torsions:
REMARK  status: ('A' for Active; 'I' for Inactive)
REMARK    1  A    between atoms: C_1  and  C_2
REMARK    2  A    between atoms: C_2  and  C_3
REMARK    3  A    between atoms: C_2  and  O_4
REMARK    4  A    between atoms: O_4  and  C_5
REMARK    5  A    between atoms: C_9  and  C_10
REMARK                            x       y       z     vdW  Elec       q    Type
REMARK                         _______ _______ _______ _____ _____    ______ ____
ROOT
ATOM      1  C   UNL     1       6.819   5.763  16.274  0.00  0.00    +0.000 A 
ATOM      2  C   UNL     1       7.025   5.077  15.079  0.00  0.00    +0.000 A 
ATOM      3  C   UNL     1       6.220   3.988  14.742  0.00  0.00    +0.000 A 
ATOM      4  C   UNL     1       5.199   3.582  15.604  0.00  0.00    +0.000 A 
ATOM      5  C   UNL     1       4.967   4.278  16.797  0.00  0.00    +0.000 A 
ATOM      6  C   UNL     1       5.768   5.388  17.108  0.00  0.00    +0.000 A 
ENDROOT
BRANCH   5   7
ATOM      7  C   UNL     1       3.929   3.889  17.733  0.00  0.00    +0.000 A 
ATOM      8  C   UNL     1       3.857   4.243  19.076  0.00  0.00    +0.000 A 
ATOM      9  N   UNL     1       2.684   3.719  19.475  0.00  0.00    +0.000 N 
ATOM     10  C   UNL     1       2.087   3.087  18.435  0.00  0.00    +0.000 A 
ATOM     11  N   UNL     1       2.806   3.168  17.348  0.00  0.00    +0.000 NA
ATOM     12  C   UNL     1       0.775   2.534  18.798  0.00  0.00    +0.000 C 
ATOM     13  C   UNL     1       0.654   2.899  20.298  0.00  0.00    +0.000 C 
ATOM     14  C   UNL     1       1.889   3.741  20.677  0.00  0.00    +0.000 C 
ENDBRANCH   5   7
BRANCH   1  15
ATOM     15  O   UNL     1       7.657   6.815  16.515  0.00  0.00    +0.000 OA
BRANCH  15  17
ATOM     16  C   UNL     1       8.200   6.693  18.829  0.00  0.00    +0.000 C 
ATOM     17  C   UNL     1       7.484   7.510  17.758  0.00  0.00    +0.000 C 
ATOM     18  C   UNL     1       8.104   8.897  17.634  0.00  0.00    +0.000 C 
ENDBRANCH  15  17
ENDBRANCH   1  15
TORSDOF 3
ENDMDL
MODEL 5
REMARK VINA RESULT:      -7.2      1.992      3.751
REMARK  Name = 
REMARK  5 active torsions:
REMARK  status: ('A' for Active; 'I' for Inactive)
REMARK    1  A    between atoms: C_1  and  C_2
REMARK    2  A    between atoms: C_2  and  C_3
REMARK    3  A    between atoms: C_2  and  O_4
REMARK    4  A    between atoms: O_4  and  C_5
REMARK    5  A    between atoms: C_9  and  C_10
REMARK                            x       y       z     vdW  Elec       q    Type
REMARK                         _______ _______ _______ _____ _____    ______ ____
ROOT
ATOM      1  C   UNL     1       5.707   4.558  14.840  0.00  0.00    +0.000 A 
ATOM      2  C   UNL     1       7.029   4.876  15.149  0.00  0.00    +0.000 A 
ATOM      3  C   UNL     1       7.465   4.870  16.475  0.00  0.00    +0.000 A 
ATOM      4  C   UNL     1       6.575   4.542  17.500  0.00  0.00    +0.000 A 
ATOM      5  C   UNL     1       5.252   4.197  17.200  0.00  0.00    +0.000 A 
ATOM      6  C   UNL     1       4.836   4.182  15.859  0.00  0.00    +0.000 A 
ENDROOT
BRANCH   5   7
ATOM      7  C   UNL     1       4.284   3.862  18.228  0.00  0.00    +0.000 A 
ATOM      8  C   UNL     1       4.096   4.532  19.432  0.00  0.00    +0.000 A 
ATOM      9  N   UNL     1       3.042   3.901  19.980  0.00  0.00    +0.000 N 
ATOM     10  C   UNL     1       2.621   2.910  19.155  0.00  0.00    +0.000 A 
ATOM     11  N   UNL     1       3.345   2.850  18.070  0.00  0.00    +0.000 NA
ATOM     12  C   UNL     1       1.438   2.214  19.678  0.00  0.00    +0.000 C 
ATOM     13  C   UNL     1       1.194   2.926  21.033  0.00  0.00    +0.000 C 
ATOM     14  C   UNL     1       2.218   4.073  21.150  0.00  0.00    +0.000 C 
ENDBRANCH   5   7
BRANCH   1  15
ATOM     15  O   UNL     1       5.377   4.591  13.514  0.00  0.00    +0.000 OA
BRANCH  15  17
ATOM     16  C   UNL     1       4.547   3.227  11.750  0.00  0.00    +0.000 C 
ATOM     17  C   UNL     1       5.691   3.426  12.739  0.00  0.00    +0.000 C 
ATOM     18  C   UNL     1       7.004   3.667  12.003  0.00  0.00    +0.000 C 
ENDBRANCH  15  17
ENDBRANCH   1  15
TORSDOF 3
ENDMDL
MODEL 6
REMARK VINA RESULT:      -7.2      1.255      1.556
REMARK  Name = 
REMARK  5 active torsions:
REMARK  status: ('A' for Active; 'I' for Inactive)
REMARK    1  A    between atoms: C_1  and  C_2
REMARK    2  A    between atoms: C_2  and  C_3
REMARK    3  A    between atoms: C_2  and  O_4
REMARK    4  A    between atoms: O_4  and  C_5
REMARK    5  A    between atoms: C_9  and  C_10
REMARK                            x       y       z     vdW  Elec       q    Type
REMARK                         _______ _______ _______ _____ _____    ______ ____
ROOT
ATOM      1  C   UNL     1       6.071   6.330  16.664  0.00  0.00    +0.000 A 
ATOM      2  C   UNL     1       6.350   5.621  15.497  0.00  0.00    +0.000 A 
ATOM      3  C   UNL     1       5.806   4.352  15.294  0.00  0.00    +0.000 A 
ATOM      4  C   UNL     1       4.973   3.788  16.263  0.00  0.00    +0.000 A 
ATOM      5  C   UNL     1       4.666   4.500  17.429  0.00  0.00    +0.000 A 
ATOM      6  C   UNL     1       5.200   5.786  17.606  0.00  0.00    +0.000 A 
ENDROOT
BRANCH   5   7
ATOM      7  C   UNL     1       3.819   3.953  18.472  0.00  0.00    +0.000 A 
ATOM      8  C   UNL     1       4.238   3.202  19.565  0.00  0.00    +0.000 A 
ATOM      9  N   UNL     1       3.108   3.018  20.270  0.00  0.00    +0.000 N 
ATOM     10  C   UNL     1       2.070   3.622  19.640  0.00  0.00    +0.000 A 
ATOM     11  N   UNL     1       2.455   4.211  18.540  0.00  0.00    +0.000 NA
ATOM     12  C   UNL     1       0.813   3.497  20.390  0.00  0.00    +0.000 C 
ATOM     13  C   UNL     1       1.232   2.654  21.620  0.00  0.00    +0.000 C 
ATOM     14  C   UNL     1       2.756   2.432  21.539  0.00  0.00    +0.000 C 
ENDBRANCH   5   7
BRANCH   1  15
ATOM     15  O   UNL     1       6.650   7.563  16.771  0.00  0.00    +0.000 OA
BRANCH  15  17
ATOM     16  C   UNL     1       8.107   9.053  17.920  0.00  0.00    +0.000 C 
ATOM     17  C   UNL     1       7.928   7.624  17.420  0.00  0.00    +0.000 C 
ATOM     18  C   UNL     1       7.932   6.641  18.586  0.00  0.00    +0.000 C 
ENDBRANCH  15  17
ENDBRANCH   1  15
TORSDOF 3
ENDMDL
MODEL 7
REMARK VINA RESULT:      -7.1      1.916      3.467
REMARK  Name = 
REMARK  5 active torsions:
REMARK  status: ('A' for Active; 'I' for Inactive)
REMARK    1  A    between atoms: C_1  and  C_2
REMARK    2  A    between atoms: C_2  and  C_3
REMARK    3  A    between atoms: C_2  and  O_4
REMARK    4  A    between atoms: O_4  and  C_5
REMARK    5  A    between atoms: C_9  and  C_10
REMARK                            x       y       z     vdW  Elec       q    Type
REMARK                         _______ _______ _______ _____ _____    ______ ____
ROOT
ATOM      1  C   UNL     1       5.761   4.623  15.226  0.00  0.00    +0.000 A 
ATOM      2  C   UNL     1       7.050   5.015  15.584  0.00  0.00    +0.000 A 
ATOM      3  C   UNL     1       7.435   5.035  16.925  0.00  0.00    +0.000 A 
ATOM      4  C   UNL     1       6.527   4.658  17.917  0.00  0.00    +0.000 A 
ATOM      5  C   UNL     1       5.237   4.239  17.568  0.00  0.00    +0.000 A 
ATOM      6  C   UNL     1       4.874   4.199  16.213  0.00  0.00    +0.000 A 
ENDROOT
BRANCH   5   7
ATOM      7  C   UNL     1       4.252   3.851  18.560  0.00  0.00    +0.000 A 
ATOM      8  C   UNL     1       4.390   2.843  19.508  0.00  0.00    +0.000 A 
ATOM      9  N   UNL     1       3.261   2.939  20.233  0.00  0.00    +0.000 N 
ATOM     10  C   UNL     1       2.490   3.944  19.751  0.00  0.00    +0.000 A 
ATOM     11  N   UNL     1       3.054   4.535  18.732  0.00  0.00    +0.000 NA
ATOM     12  C   UNL     1       1.262   4.130  20.535  0.00  0.00    +0.000 C 
ATOM     13  C   UNL     1       1.368   3.015  21.605  0.00  0.00    +0.000 C 
ATOM     14  C   UNL     1       2.729   2.313  21.417  0.00  0.00    +0.000 C 
ENDBRANCH   5   7
BRANCH   1  15
ATOM     15  O   UNL     1       5.480   4.637  13.889  0.00  0.00    +0.000 OA
BRANCH  15  17
ATOM     16  C   UNL     1       5.156   3.220  12.005  0.00  0.00    +0.000 C 
ATOM     17  C   UNL     1       6.147   3.660  13.077  0.00  0.00    +0.000 C 
ATOM     18  C   UNL     1       7.374   4.306  12.443  0.00  0.00    +0.000 C 
ENDBRANCH  15  17
ENDBRANCH   1  15
TORSDOF 3
ENDMDL
MODEL 8
REMARK VINA RESULT:      -7.0      1.828      3.733
REMARK  Name = 
REMARK  5 active torsions:
REMARK  status: ('A' for Active; 'I' for Inactive)
REMARK    1  A    between atoms: C_1  and  C_2
REMARK    2  A    between atoms: C_2  and  C_3
REMARK    3  A    between atoms: C_2  and  O_4
REMARK    4  A    between atoms: O_4  and  C_5
REMARK    5  A    between atoms: C_9  and  C_10
REMARK                            x       y       z     vdW  Elec       q    Type
REMARK                         _______ _______ _______ _____ _____    ______ ____
ROOT
ATOM      1  C   UNL     1       6.180   4.033  15.098  0.00  0.00    +0.000 A 
ATOM      2  C   UNL     1       7.041   5.121  15.238  0.00  0.00    +0.000 A 
ATOM      3  C   UNL     1       7.008   5.902  16.393  0.00  0.00    +0.000 A 
ATOM      4  C   UNL     1       6.112   5.594  17.419  0.00  0.00    +0.000 A 
ATOM      5  C   UNL     1       5.259   4.490  17.301  0.00  0.00    +0.000 A 
ATOM      6  C   UNL     1       5.323   3.698  16.144  0.00  0.00    +0.000 A 
ENDROOT
BRANCH   5   7
ATOM      7  C   UNL     1       4.300   4.135  18.330  0.00  0.00    +0.000 A 
ATOM      8  C   UNL     1       3.982   4.890  19.454  0.00  0.00    +0.000 A 
ATOM      9  N   UNL     1       2.993   4.185  20.034  0.00  0.00    +0.000 N 
ATOM     10  C   UNL     1       2.733   3.073  19.303  0.00  0.00    +0.000 A 
ATOM     11  N   UNL     1       3.502   3.001  18.250  0.00  0.00    +0.000 NA
ATOM     12  C   UNL     1       1.626   2.285  19.861  0.00  0.00    +0.000 C 
ATOM     13  C   UNL     1       1.241   3.088  21.129  0.00  0.00    +0.000 C 
ATOM     14  C   UNL     1       2.108   4.363  21.157  0.00  0.00    +0.000 C 
ENDBRANCH   5   7
BRANCH   1  15
ATOM     15  O   UNL     1       6.287   3.329  13.932  0.00  0.00    +0.000 OA
BRANCH  15  17
ATOM     16  C   UNL     1       7.203   3.987  11.836  0.00  0.00    +0.000 C 
ATOM     17  C   UNL     1       5.962   4.029  12.722  0.00  0.00    +0.000 C 
ATOM     18  C   UNL     1       4.793   3.322  12.046  0.00  0.00    +0.000 C 
ENDBRANCH  15  17
ENDBRANCH   1  15
TORSDOF 3
ENDMDL
MODEL 9
REMARK VINA RESULT:      -6.9      1.703      3.268
REMARK  Name = 
REMARK  5 active torsions:
REMARK  status: ('A' for Active; 'I' for Inactive)
REMARK    1  A    between atoms: C_1  and  C_2
REMARK    2  A    between atoms: C_2  and  C_3
REMARK    3  A    between atoms: C_2  and  O_4
REMARK    4  A    between atoms: O_4  and  C_5
REMARK    5  A    between atoms: C_9  and  C_10
REMARK                            x       y       z     vdW  Elec       q    Type
REMARK                         _______ _______ _______ _____ _____    ______ ____
ROOT
ATOM      1  C   UNL     1       6.159   5.589  15.975  0.00  0.00    +0.000 A 
ATOM      2  C   UNL     1       7.317   6.143  16.518  0.00  0.00    +0.000 A 
ATOM      3  C   UNL     1       7.482   6.220  17.901  0.00  0.00    +0.000 A 
ATOM      4  C   UNL     1       6.485   5.736  18.750  0.00  0.00    +0.000 A 
ATOM      5  C   UNL     1       5.327   5.156  18.218  0.00  0.00    +0.000 A 
ATOM      6  C   UNL     1       5.188   5.062  16.824  0.00  0.00    +0.000 A 
ENDROOT
BRANCH   5   7
ATOM      7  C   UNL     1       4.255   4.652  19.055  0.00  0.00    +0.000 A 
ATOM      8  C   UNL     1       2.972   5.178  19.156  0.00  0.00    +0.000 A 
ATOM      9  N   UNL     1       2.344   4.316  19.976  0.00  0.00    +0.000 N 
ATOM     10  C   UNL     1       3.198   3.330  20.347  0.00  0.00    +0.000 A 
ATOM     11  N   UNL     1       4.376   3.488  19.806  0.00  0.00    +0.000 NA
ATOM     12  C   UNL     1       2.554   2.328  21.206  0.00  0.00    +0.000 C 
ATOM     13  C   UNL     1       1.114   2.881  21.355  0.00  0.00    +0.000 C 
ATOM     14  C   UNL     1       1.001   4.139  20.470  0.00  0.00    +0.000 C 
ENDBRANCH   5   7
BRANCH   1  15
ATOM     15  O   UNL     1       6.090   5.559  14.611  0.00  0.00    +0.000 OA
BRANCH  15  17
ATOM     16  C   UNL     1       5.989   3.663  13.177  0.00  0.00    +0.000 C 
ATOM     17  C   UNL     1       6.919   4.599  13.941  0.00  0.00    +0.000 C 
ATOM     18  C   UNL     1       7.847   5.337  12.983  0.00  0.00    +0.000 C 
ENDBRANCH  15  17
ENDBRANCH   1  15
TORSDOF 3
ENDMDL
