MODEL 1
REMARK VINA RESULT:      -8.2      0.000      0.000
REMARK  Name = 
REMARK  7 active torsions:
REMARK  status: ('A' for Active; 'I' for Inactive)
REMARK    1  A    between atoms: C_2  and  C_23
REMARK    2  A    between atoms: N_3  and  N_4
REMARK    3  A    between atoms: C_5  and  C_7
REMARK    4  A    between atoms: C_10  and  C_11
REMARK    5  A    between atoms: C_11  and  N_12
REMARK    6  A    between atoms: N_12  and  S_13
REMARK    7  A    between atoms: S_13  and  C_16
REMARK                            x       y       z     vdW  Elec       q    Type
REMARK                         _______ _______ _______ _____ _____    ______ ____
ROOT
ATOM      1  N   UNL     1      -0.364  11.028  18.234  0.00  0.00    +0.000 N 
ATOM      2  C   UNL     1       0.239  10.741  19.452  0.00  0.00    +0.000 C 
ATOM      3  O   UNL     1      -0.141  11.219  20.503  0.00  0.00    +0.000 OA
ATOM      4  H   UNL     1      -0.039  10.643  17.355  0.00  0.00    +0.000 HD
ENDROOT
BRANCH   2   5
ATOM      5  C   UNL     1       1.386   9.739  19.308  0.00  0.00    +0.000 C 
ATOM      6  C   UNL     1       1.191   8.548  20.265  0.00  0.00    +0.000 C 
ATOM      7  C   UNL     1       2.203   7.425  20.036  0.00  0.00    +0.000 C 
ATOM      8  C   UNL     1       2.183   6.954  18.575  0.00  0.00    +0.000 C 
ATOM      9  C   UNL     1       2.474   8.138  17.642  0.00  0.00    +0.000 C 
ATOM     10  C   UNL     1       1.479   9.274  17.847  0.00  0.00    +0.000 C 
BRANCH   8  11
ATOM     11  C   UNL     1       3.189   5.817  18.319  0.00  0.00    +0.000 C 
BRANCH  11  12
ATOM     12  N   UNL     1       4.316   5.928  19.263  0.00  0.00    +0.000 NA
ATOM     13  H   UNL     1       4.042   5.941  20.247  0.00  0.00    +0.000 HD
BRANCH  12  14
ATOM     14  S   UNL     1       5.567   4.809  19.062  0.00  0.00    +0.000 S 
ATOM     15  O   UNL     1       6.717   5.319  19.777  0.00  0.00    +0.000 OA
ATOM     16  O   UNL     1       5.023   3.499  19.344  0.00  0.00    +0.000 OA
BRANCH  14  17
ATOM     17  C   UNL     1       6.008   4.772  17.346  0.00  0.00    +0.000 A 
ATOM     18  C   UNL     1       6.941   5.484  16.613  0.00  0.00    +0.000 A 
ATOM     19  C   UNL     1       6.974   5.086  15.247  0.00  0.00    +0.000 A 
ATOM     20  C   UNL     1       6.062   4.089  14.980  0.00  0.00    +0.000 A 
ATOM     21  S   UNL     1       5.184   3.629  16.375  0.00  0.00    +0.000 S 
ENDBRANCH  14  17
ENDBRANCH  12  14
ENDBRANCH  11  12
ENDBRANCH   8  11
ENDBRANCH   2   5
BRANCH   1  24
ATOM     22  O   UNL     1      -2.602   9.784  18.011  0.00  0.00    +0.000 OA
ATOM     23  C   UNL     1      -2.703  11.015  18.130  0.00  0.00    +0.000 C 
ATOM     24  N   UNL     1      -1.541  11.782  18.169  0.00  0.00    +0.000 N 
ATOM     25  H   UNL     1      -1.528  12.749  18.472  0.00  0.00    +0.000 HD
BRANCH  23  26
ATOM     26  C   UNL     1      -3.990  11.662  18.277  0.00  0.00    +0.000 A 
ATOM     27  C   UNL     1      -4.847  11.893  17.226  0.00  0.00    +0.000 A 
ATOM     28  C   UNL     1      -6.000  12.629  17.593  0.00  0.00    +0.000 A 
ATOM     29  C   UNL     1      -7.060  13.092  16.784  0.00  0.00    +0.000 A 
ATOM     30  C   UNL     1      -7.195  14.468  16.921  0.00  0.00    +0.000 A 
ATOM     31  C   UNL     1      -7.141  15.031  18.190  0.00  0.00    +0.000 A 
ATOM     32  C   UNL     1      -6.606  14.294  19.256  0.00  0.00    +0.000 A 
ATOM     33  C   UNL     1      -5.853  13.166  18.877  0.00  0.00    +0.000 A 
ATOM     34  S   UNL     1      -4.610  12.312  19.732  0.00  0.00    +0.000 S 
ENDBRANCH  23  26
ENDBRANCH   1  24
TORSDOF 7
ENDMDL
MODEL 2
REMARK VINA RESULT:      -8.0      2.036      2.773
REMARK  Name = 
REMARK  7 active torsions:
REMARK  status: ('A' for Active; 'I' for Inactive)
REMARK    1  A    between atoms: C_2  and  C_23
REMARK    2  A    between atoms: N_3  and  N_4
REMARK    3  A    between atoms: C_5  and  C_7
REMARK    4  A    between atoms: C_10  and  C_11
REMARK    5  A    between atoms: C_11  and  N_12
REMARK    6  A    between atoms: N_12  and  S_13
REMARK    7  A    between atoms: S_13  and  C_16
REMARK                            x       y       z     vdW  Elec       q    Type
REMARK                         _______ _______ _______ _____ _____    ______ ____
ROOT
ATOM      1  N   UNL     1       0.633   9.825  19.477  0.00  0.00    +0.000 N 
ATOM      2  C   UNL     1       0.776   8.763  20.361  0.00  0.00    +0.000 C 
ATOM      3  O   UNL     1      -0.002   8.555  21.271  0.00  0.00    +0.000 OA
ATOM      4  H   UNL     1       1.289  10.010  18.728  0.00  0.00    +0.000 HD
ENDROOT
BRANCH   2   5
ATOM      5  C   UNL     1       1.987   7.890  20.025  0.00  0.00    +0.000 C 
ATOM      6  C   UNL     1       1.745   6.433  20.464  0.00  0.00    +0.000 C 
ATOM      7  C   UNL     1       2.838   5.477  19.988  0.00  0.00    +0.000 C 
ATOM      8  C   UNL     1       3.020   5.559  18.466  0.00  0.00    +0.000 C 
ATOM      9  C   UNL     1       3.354   7.001  18.059  0.00  0.00    +0.000 C 
ATOM     10  C   UNL     1       2.280   7.980  18.519  0.00  0.00    +0.000 C 
BRANCH   8  11
ATOM     11  C   UNL     1       4.111   4.599  17.960  0.00  0.00    +0.000 C 
BRANCH  11  12
ATOM     12  N   UNL     1       4.287   4.765  16.505  0.00  0.00    +0.000 NA
ATOM     13  H   UNL     1       3.635   5.424  16.075  0.00  0.00    +0.000 HD
BRANCH  12  14
ATOM     14  S   UNL     1       5.852   5.128  15.981  0.00  0.00    +0.000 S 
ATOM     15  O   UNL     1       5.940   6.566  15.856  0.00  0.00    +0.000 OA
ATOM     16  O   UNL     1       6.769   4.385  16.819  0.00  0.00    +0.000 OA
BRANCH  14  17
ATOM     17  C   UNL     1       6.061   4.459  14.353  0.00  0.00    +0.000 A 
ATOM     18  C   UNL     1       5.242   3.676  13.561  0.00  0.00    +0.000 A 
ATOM     19  C   UNL     1       5.817   3.407  12.287  0.00  0.00    +0.000 A 
ATOM     20  C   UNL     1       7.059   3.987  12.151  0.00  0.00    +0.000 A 
ATOM     21  S   UNL     1       7.517   4.862  13.549  0.00  0.00    +0.000 S 
ENDBRANCH  14  17
ENDBRANCH  12  14
ENDBRANCH  11  12
ENDBRANCH   8  11
ENDBRANCH   2   5
BRANCH   1  24
ATOM     22  O   UNL     1      -0.920   9.818  17.428  0.00  0.00    +0.000 OA
ATOM     23  C   UNL     1      -1.323  10.503  18.381  0.00  0.00    +0.000 C 
ATOM     24  N   UNL     1      -0.506  10.638  19.502  0.00  0.00    +0.000 N 
ATOM     25  H   UNL     1      -0.841  10.994  20.389  0.00  0.00    +0.000 HD
BRANCH  23  26
ATOM     26  C   UNL     1      -2.632  11.120  18.374  0.00  0.00    +0.000 A 
ATOM     27  C   UNL     1      -3.130  11.853  19.426  0.00  0.00    +0.000 A 
ATOM     28  C   UNL     1      -4.469  12.273  19.233  0.00  0.00    +0.000 A 
ATOM     29  C   UNL     1      -5.316  12.989  20.107  0.00  0.00    +0.000 A 
ATOM     30  C   UNL     1      -6.484  12.270  20.330  0.00  0.00    +0.000 A 
ATOM     31  C   UNL     1      -7.128  11.673  19.253  0.00  0.00    +0.000 A 
ATOM     32  C   UNL     1      -6.439  11.487  18.047  0.00  0.00    +0.000 A 
ATOM     33  C   UNL     1      -5.038  11.614  18.138  0.00  0.00    +0.000 A 
ATOM     34  S   UNL     1      -3.788  10.973  17.123  0.00  0.00    +0.000 S 
ENDBRANCH  23  26
ENDBRANCH   1  24
TORSDOF 7
ENDMDL
MODEL 3
REMARK VINA RESULT:      -7.9      3.645     12.304
REMARK  Name = 
REMARK  7 active torsions:
REMARK  status: ('A' for Active; 'I' for Inactive)
REMARK    1  A    between atoms: C_2  and  C_23
REMARK    2  A    between atoms: N_3  and  N_4
REMARK    3  A    between atoms: C_5  and  C_7
REMARK    4  A    between atoms: C_10  and  C_11
REMARK    5  A    between atoms: C_11  and  N_12
REMARK    6  A    between atoms: N_12  and  S_13
REMARK    7  A    between atoms: S_13  and  C_16
REMARK                            x       y       z     vdW  Elec       q    Type
REMARK                         _______ _______ _______ _____ _____    ______ ____
ROOT
ATOM      1  N   UNL     1       1.651   8.128  20.398  0.00  0.00    +0.000 N 
ATOM      2  C   UNL     1       1.059   9.292  19.924  0.00  0.00    +0.000 C 
ATOM      3  O   UNL     1       1.471   9.889  18.948  0.00  0.00    +0.000 OA
ATOM      4  H   UNL     1       1.320   7.638  21.221  0.00  0.00    +0.000 HD
ENDROOT
BRANCH   2   5
ATOM      5  C   UNL     1      -0.169   9.692  20.743  0.00  0.00    +0.000 C 
ATOM      6  C   UNL     1       0.149   9.662  22.250  0.00  0.00    +0.000 C 
ATOM      7  C   UNL     1      -0.979  10.231  23.110  0.00  0.00    +0.000 C 
ATOM      8  C   UNL     1      -1.348  11.653  22.665  0.00  0.00    +0.000 C 
ATOM      9  C   UNL     1      -1.754  11.646  21.184  0.00  0.00    +0.000 C 
ATOM     10  C   UNL     1      -0.647  11.084  20.300  0.00  0.00    +0.000 C 
BRANCH   8  11
ATOM     11  C   UNL     1      -2.478  12.253  23.521  0.00  0.00    +0.000 C 
BRANCH  11  12
ATOM     12  N   UNL     1      -3.609  12.636  22.657  0.00  0.00    +0.000 NA
ATOM     13  H   UNL     1      -3.731  12.043  21.834  0.00  0.00    +0.000 HD
BRANCH  12  14
ATOM     14  S   UNL     1      -5.105  12.816  23.424  0.00  0.00    +0.000 S 
ATOM     15  O   UNL     1      -6.120  12.380  22.491  0.00  0.00    +0.000 OA
ATOM     16  O   UNL     1      -4.987  12.228  24.741  0.00  0.00    +0.000 OA
BRANCH  14  17
ATOM     17  C   UNL     1      -5.379  14.544  23.707  0.00  0.00    +0.000 A 
ATOM     18  C   UNL     1      -6.491  15.347  23.532  0.00  0.00    +0.000 A 
ATOM     19  C   UNL     1      -6.258  16.692  23.935  0.00  0.00    +0.000 A 
ATOM     20  C   UNL     1      -4.973  16.874  24.398  0.00  0.00    +0.000 A 
ATOM     21  S   UNL     1      -4.064  15.424  24.359  0.00  0.00    +0.000 S 
ENDBRANCH  14  17
ENDBRANCH  12  14
ENDBRANCH  11  12
ENDBRANCH   8  11
ENDBRANCH   2   5
BRANCH   1  24
ATOM     22  O   UNL     1       1.920   5.583  20.640  0.00  0.00    +0.000 OA
ATOM     23  C   UNL     1       2.690   6.110  19.822  0.00  0.00    +0.000 C 
ATOM     24  N   UNL     1       2.678   7.497  19.688  0.00  0.00    +0.000 N 
ATOM     25  H   UNL     1       3.112   7.979  18.910  0.00  0.00    +0.000 HD
BRANCH  23  26
ATOM     26  C   UNL     1       3.559   5.319  18.977  0.00  0.00    +0.000 A 
ATOM     27  C   UNL     1       4.932   5.368  19.045  0.00  0.00    +0.000 A 
ATOM     28  C   UNL     1       5.571   4.584  18.053  0.00  0.00    +0.000 A 
ATOM     29  C   UNL     1       6.948   4.433  17.784  0.00  0.00    +0.000 A 
ATOM     30  C   UNL     1       7.213   4.765  16.461  0.00  0.00    +0.000 A 
ATOM     31  C   UNL     1       6.369   4.295  15.463  0.00  0.00    +0.000 A 
ATOM     32  C   UNL     1       5.095   3.813  15.798  0.00  0.00    +0.000 A 
ATOM     33  C   UNL     1       4.649   4.165  17.088  0.00  0.00    +0.000 A 
ATOM     34  S   UNL     1       3.040   4.279  17.722  0.00  0.00    +0.000 S 
ENDBRANCH  23  26
ENDBRANCH   1  24
TORSDOF 7
ENDMDL
MODEL 4
REMARK VINA RESULT:      -7.9      3.579      5.045
REMARK  Name = 
REMARK  7 active torsions:
REMARK  status: ('A' for Active; 'I' for Inactive)
REMARK    1  A    between atoms: C_2  and  C_23
REMARK    2  A    between atoms: N_3  and  N_4
REMARK    3  A    between atoms: C_5  and  C_7
REMARK    4  A    between atoms: C_10  and  C_11
REMARK    5  A    between atoms: C_11  and  N_12
REMARK    6  A    between atoms: N_12  and  S_13
REMARK    7  A    between atoms: S_13  and  C_16
REMARK                            x       y       z     vdW  Elec       q    Type
REMARK                         _______ _______ _______ _____ _____    ______ ____
ROOT
ATOM      1  N   UNL     1       1.288   9.114  19.321  0.00  0.00    +0.000 N 
ATOM      2  C   UNL     1       1.939   8.790  18.138  0.00  0.00    +0.000 C 
ATOM      3  O   UNL     1       2.041   9.567  17.208  0.00  0.00    +0.000 OA
ATOM      4  H   UNL     1       1.188   8.462  20.090  0.00  0.00    +0.000 HD
ENDROOT
BRANCH   2   5
ATOM      5  C   UNL     1       2.529   7.379  18.169  0.00  0.00    +0.000 C 
ATOM      6  C   UNL     1       3.851   7.325  17.379  0.00  0.00    +0.000 C 
ATOM      7  C   UNL     1       4.583   5.992  17.530  0.00  0.00    +0.000 C 
ATOM      8  C   UNL     1       4.824   5.659  19.009  0.00  0.00    +0.000 C 
ATOM      9  C   UNL     1       3.485   5.624  19.760  0.00  0.00    +0.000 C 
ATOM     10  C   UNL     1       2.732   6.942  19.628  0.00  0.00    +0.000 C 
BRANCH   8  11
ATOM     11  C   UNL     1       5.568   4.323  19.188  0.00  0.00    +0.000 C 
BRANCH  11  12
ATOM     12  N   UNL     1       4.925   3.281  18.367  0.00  0.00    +0.000 NA
ATOM     13  H   UNL     1       5.496   2.945  17.589  0.00  0.00    +0.000 HD
BRANCH  12  14
ATOM     14  S   UNL     1       4.310   1.948  19.204  0.00  0.00    +0.000 S 
ATOM     15  O   UNL     1       3.957   0.949  18.219  0.00  0.00    +0.000 OA
ATOM     16  O   UNL     1       5.229   1.654  20.282  0.00  0.00    +0.000 OA
BRANCH  14  17
ATOM     17  C   UNL     1       2.802   2.438  19.997  0.00  0.00    +0.000 A 
ATOM     18  C   UNL     1       2.487   2.672  21.323  0.00  0.00    +0.000 A 
ATOM     19  C   UNL     1       1.137   3.091  21.493  0.00  0.00    +0.000 A 
ATOM     20  C   UNL     1       0.465   3.157  20.292  0.00  0.00    +0.000 A 
ATOM     21  S   UNL     1       1.465   2.729  18.970  0.00  0.00    +0.000 S 
ENDBRANCH  14  17
ENDBRANCH  12  14
ENDBRANCH  11  12
ENDBRANCH   8  11
ENDBRANCH   2   5
BRANCH   1  24
ATOM     22  O   UNL     1      -0.638   9.444  20.991  0.00  0.00    +0.000 OA
ATOM     23  C   UNL     1      -0.157  10.495  20.542  0.00  0.00    +0.000 C 
ATOM     24  N   UNL     1       0.832  10.415  19.564  0.00  0.00    +0.000 N 
ATOM     25  H   UNL     1       1.416  11.201  19.304  0.00  0.00    +0.000 HD
BRANCH  23  26
ATOM     26  C   UNL     1      -0.563  11.792  21.041  0.00  0.00    +0.000 A 
ATOM     27  C   UNL     1      -0.652  12.094  22.380  0.00  0.00    +0.000 A 
ATOM     28  C   UNL     1      -1.166  13.390  22.629  0.00  0.00    +0.000 A 
ATOM     29  C   UNL     1      -1.445  14.020  23.861  0.00  0.00    +0.000 A 
ATOM     30  C   UNL     1      -2.773  14.427  23.896  0.00  0.00    +0.000 A 
ATOM     31  C   UNL     1      -3.318  15.056  22.784  0.00  0.00    +0.000 A 
ATOM     32  C   UNL     1      -2.673  14.958  21.543  0.00  0.00    +0.000 A 
ATOM     33  C   UNL     1      -1.702  13.940  21.459  0.00  0.00    +0.000 A 
ATOM     34  S   UNL     1      -1.070  13.109  20.075  0.00  0.00    +0.000 S 
ENDBRANCH  23  26
ENDBRANCH   1  24
TORSDOF 7
ENDMDL
MODEL 5
REMARK VINA RESULT:      -7.9      3.101     12.066
REMARK  Name = 
REMARK  7 active torsions:
REMARK  status: ('A' for Active; 'I' for Inactive)
REMARK    1  A    between atoms: C_2  and  C_23
REMARK    2  A    between atoms: N_3  and  N_4
REMARK    3  A    between atoms: C_5  and  C_7
REMARK    4  A    between atoms: C_10  and  C_11
REMARK    5  A    between atoms: C_11  and  N_12
REMARK    6  A    between atoms: N_12  and  S_13
REMARK    7  A    between atoms: S_13  and  C_16
REMARK                            x       y       z     vdW  Elec       q    Type
REMARK                         _______ _______ _______ _____ _____    ______ ____
ROOT
ATOM      1  N   UNL     1       1.696   8.258  20.033  0.00  0.00    +0.000 N 
ATOM      2  C   UNL     1       1.064   9.401  19.562  0.00  0.00    +0.000 C 
ATOM      3  O   UNL     1       1.412   9.976  18.549  0.00  0.00    +0.000 OA
ATOM      4  H   UNL     1       1.418   7.786  20.885  0.00  0.00    +0.000 HD
ENDROOT
BRANCH   2   5
ATOM      5  C   UNL     1      -0.121   9.811  20.439  0.00  0.00    +0.000 C 
ATOM      6  C   UNL     1       0.218   9.628  21.931  0.00  0.00    +0.000 C 
ATOM      7  C   UNL     1      -0.854  10.195  22.861  0.00  0.00    +0.000 C 
ATOM      8  C   UNL     1      -1.131  11.672  22.548  0.00  0.00    +0.000 C 
ATOM      9  C   UNL     1      -1.560  11.821  21.081  0.00  0.00    +0.000 C 
ATOM     10  C   UNL     1      -0.509  11.265  20.128  0.00  0.00    +0.000 C 
BRANCH   8  11
ATOM     11  C   UNL     1      -2.203  12.269  23.477  0.00  0.00    +0.000 C 
BRANCH  11  12
ATOM     12  N   UNL     1      -3.517  12.233  22.811  0.00  0.00    +0.000 NA
ATOM     13  H   UNL     1      -3.827  11.298  22.539  0.00  0.00    +0.000 HD
BRANCH  12  14
ATOM     14  S   UNL     1      -4.783  13.012  23.617  0.00  0.00    +0.000 S 
ATOM     15  O   UNL     1      -5.293  12.089  24.606  0.00  0.00    +0.000 OA
ATOM     16  O   UNL     1      -4.312  14.330  23.985  0.00  0.00    +0.000 OA
BRANCH  14  17
ATOM     17  C   UNL     1      -6.092  13.292  22.455  0.00  0.00    +0.000 A 
ATOM     18  C   UNL     1      -6.696  12.468  21.524  0.00  0.00    +0.000 A 
ATOM     19  C   UNL     1      -7.750  13.121  20.824  0.00  0.00    +0.000 A 
ATOM     20  C   UNL     1      -7.911  14.425  21.240  0.00  0.00    +0.000 A 
ATOM     21  S   UNL     1      -6.805  14.847  22.476  0.00  0.00    +0.000 S 
ENDBRANCH  14  17
ENDBRANCH  12  14
ENDBRANCH  11  12
ENDBRANCH   8  11
ENDBRANCH   2   5
BRANCH   1  24
ATOM     22  O   UNL     1       2.210   5.789  20.534  0.00  0.00    +0.000 OA
ATOM     23  C   UNL     1       2.835   6.264  19.574  0.00  0.00    +0.000 C 
ATOM     24  N   UNL     1       2.688   7.618  19.281  0.00  0.00    +0.000 N 
ATOM     25  H   UNL     1       2.989   8.029  18.406  0.00  0.00    +0.000 HD
BRANCH  23  26
ATOM     26  C   UNL     1       3.671   5.438  18.727  0.00  0.00    +0.000 A 
ATOM     27  C   UNL     1       5.045   5.487  18.740  0.00  0.00    +0.000 A 
ATOM     28  C   UNL     1       5.645   4.663  17.756  0.00  0.00    +0.000 A 
ATOM     29  C   UNL     1       7.011   4.498  17.440  0.00  0.00    +0.000 A 
ATOM     30  C   UNL     1       7.224   4.778  16.096  0.00  0.00    +0.000 A 
ATOM     31  C   UNL     1       6.341   4.271  15.150  0.00  0.00    +0.000 A 
ATOM     32  C   UNL     1       5.082   3.805  15.554  0.00  0.00    +0.000 A 
ATOM     33  C   UNL     1       4.686   4.208  16.845  0.00  0.00    +0.000 A 
ATOM     34  S   UNL     1       3.103   4.351  17.536  0.00  0.00    +0.000 S 
ENDBRANCH  23  26
ENDBRANCH   1  24
TORSDOF 7
ENDMDL
MODEL 6
REMARK VINA RESULT:      -7.8      3.538     11.713
REMARK  Name = 
REMARK  7 active torsions:
REMARK  status: ('A' for Active; 'I' for Inactive)
REMARK    1  A    between atoms: C_2  and  C_23
REMARK    2  A    between atoms: N_3  and  N_4
REMARK    3  A    between atoms: C_5  and  C_7
REMARK    4  A    between atoms: C_10  and  C_11
REMARK    5  A    between atoms: C_11  and  N_12
REMARK    6  A    between atoms: N_12  and  S_13
REMARK    7  A    between atoms: S_13  and  C_16
REMARK                            x       y       z     vdW  Elec       q    Type
REMARK                         _______ _______ _______ _____ _____    ______ ____
ROOT
ATOM      1  N   UNL     1       0.341   9.296  20.162  0.00  0.00    +0.000 N 
ATOM      2  C   UNL     1       0.359  10.456  20.926  0.00  0.00    +0.000 C 
ATOM      3  O   UNL     1       1.384  11.057  21.185  0.00  0.00    +0.000 OA
ATOM      4  H   UNL     1      -0.510   8.784  19.959  0.00  0.00    +0.000 HD
ENDROOT
BRANCH   2   5
ATOM      5  C   UNL     1      -1.044  10.890  21.354  0.00  0.00    +0.000 C 
ATOM      6  C   UNL     1      -1.090  11.162  22.870  0.00  0.00    +0.000 C 
ATOM      7  C   UNL     1      -2.412  11.778  23.326  0.00  0.00    +0.000 C 
ATOM      8  C   UNL     1      -2.727  13.057  22.538  0.00  0.00    +0.000 C 
ATOM      9  C   UNL     1      -2.771  12.745  21.035  0.00  0.00    +0.000 C 
ATOM     10  C   UNL     1      -1.463  12.130  20.550  0.00  0.00    +0.000 C 
BRANCH   8  11
ATOM     11  C   UNL     1      -4.052  13.701  22.984  0.00  0.00    +0.000 C 
BRANCH  11  12
ATOM     12  N   UNL     1      -4.857  12.718  23.731  0.00  0.00    +0.000 NA
ATOM     13  H   UNL     1      -4.673  12.699  24.736  0.00  0.00    +0.000 HD
BRANCH  12  14
ATOM     14  S   UNL     1      -6.528  12.785  23.487  0.00  0.00    +0.000 S 
ATOM     15  O   UNL     1      -7.090  11.570  24.033  0.00  0.00    +0.000 OA
ATOM     16  O   UNL     1      -6.976  14.088  23.927  0.00  0.00    +0.000 OA
BRANCH  14  17
ATOM     17  C   UNL     1      -6.836  12.751  21.742  0.00  0.00    +0.000 A 
ATOM     18  C   UNL     1      -6.444  11.872  20.749  0.00  0.00    +0.000 A 
ATOM     19  C   UNL     1      -6.968  12.227  19.473  0.00  0.00    +0.000 A 
ATOM     20  C   UNL     1      -7.737  13.368  19.534  0.00  0.00    +0.000 A 
ATOM     21  S   UNL     1      -7.835  13.995  21.123  0.00  0.00    +0.000 S 
ENDBRANCH  14  17
ENDBRANCH  12  14
ENDBRANCH  11  12
ENDBRANCH   8  11
ENDBRANCH   2   5
BRANCH   1  24
ATOM     22  O   UNL     1       1.355   7.067  20.946  0.00  0.00    +0.000 OA
ATOM     23  C   UNL     1       1.921   7.578  19.967  0.00  0.00    +0.000 C 
ATOM     24  N   UNL     1       1.497   8.830  19.526  0.00  0.00    +0.000 N 
ATOM     25  H   UNL     1       1.755   9.213  18.625  0.00  0.00    +0.000 HD
BRANCH  23  26
ATOM     26  C   UNL     1       2.972   6.887  19.250  0.00  0.00    +0.000 A 
ATOM     27  C   UNL     1       3.620   7.417  18.159  0.00  0.00    +0.000 A 
ATOM     28  C   UNL     1       4.538   6.520  17.561  0.00  0.00    +0.000 A 
ATOM     29  C   UNL     1       5.335   6.693  16.409  0.00  0.00    +0.000 A 
ATOM     30  C   UNL     1       5.076   5.677  15.497  0.00  0.00    +0.000 A 
ATOM     31  C   UNL     1       4.983   4.367  15.950  0.00  0.00    +0.000 A 
ATOM     32  C   UNL     1       4.790   4.116  17.316  0.00  0.00    +0.000 A 
ATOM     33  C   UNL     1       4.365   5.228  18.069  0.00  0.00    +0.000 A 
ATOM     34  S   UNL     1       3.512   5.298  19.577  0.00  0.00    +0.000 S 
ENDBRANCH  23  26
ENDBRANCH   1  24
TORSDOF 7
ENDMDL
MODEL 7
REMARK VINA RESULT:      -7.8      2.414      3.408
REMARK  Name = 
REMARK  7 active torsions:
REMARK  status: ('A' for Active; 'I' for Inactive)
REMARK    1  A    between atoms: C_2  and  C_23
REMARK    2  A    between atoms: N_3  and  N_4
REMARK    3  A    between atoms: C_5  and  C_7
REMARK    4  A    between atoms: C_10  and  C_11
REMARK    5  A    between atoms: C_11  and  N_12
REMARK    6  A    between atoms: N_12  and  S_13
REMARK    7  A    between atoms: S_13  and  C_16
REMARK                            x       y       z     vdW  Elec       q    Type
REMARK                         _______ _______ _______ _____ _____    ______ ____
ROOT
ATOM      1  N   UNL     1       1.004   9.052  19.728  0.00  0.00    +0.000 N 
ATOM      2  C   UNL     1       1.426   8.047  20.590  0.00  0.00    +0.000 C 
ATOM      3  O   UNL     1       0.957   7.894  21.701  0.00  0.00    +0.000 OA
ATOM      4  H   UNL     1       1.405   9.192  18.808  0.00  0.00    +0.000 HD
ENDROOT
BRANCH   2   5
ATOM      5  C   UNL     1       2.501   7.159  19.962  0.00  0.00    +0.000 C 
ATOM      6  C   UNL     1       2.172   5.670  20.180  0.00  0.00    +0.000 C 
ATOM      7  C   UNL     1       3.107   4.733  19.416  0.00  0.00    +0.000 C 
ATOM      8  C   UNL     1       3.121   5.068  17.918  0.00  0.00    +0.000 C 
ATOM      9  C   UNL     1       3.545   6.530  17.716  0.00  0.00    +0.000 C 
ATOM     10  C   UNL     1       2.628   7.490  18.466  0.00  0.00    +0.000 C 
BRANCH   8  11
ATOM     11  C   UNL     1       4.051   4.133  17.124  0.00  0.00    +0.000 C 
BRANCH  11  12
ATOM     12  N   UNL     1       4.493   4.801  15.887  0.00  0.00    +0.000 NA
ATOM     13  H   UNL     1       4.126   5.747  15.765  0.00  0.00    +0.000 HD
BRANCH  12  14
ATOM     14  S   UNL     1       6.160   4.825  15.609  0.00  0.00    +0.000 S 
ATOM     15  O   UNL     1       6.584   3.454  15.430  0.00  0.00    +0.000 OA
ATOM     16  O   UNL     1       6.414   5.831  14.600  0.00  0.00    +0.000 OA
BRANCH  14  17
ATOM     17  C   UNL     1       6.960   5.421  17.074  0.00  0.00    +0.000 A 
ATOM     18  C   UNL     1       7.420   4.775  18.206  0.00  0.00    +0.000 A 
ATOM     19  C   UNL     1       8.041   5.668  19.125  0.00  0.00    +0.000 A 
ATOM     20  C   UNL     1       8.027   6.967  18.667  0.00  0.00    +0.000 A 
ATOM     21  S   UNL     1       7.283   7.101  17.131  0.00  0.00    +0.000 S 
ENDBRANCH  14  17
ENDBRANCH  12  14
ENDBRANCH  11  12
ENDBRANCH   8  11
ENDBRANCH   2   5
BRANCH   1  24
ATOM     22  O   UNL     1       0.146  10.694  17.946  0.00  0.00    +0.000 OA
ATOM     23  C   UNL     1      -0.531  10.657  18.985  0.00  0.00    +0.000 C 
ATOM     24  N   UNL     1      -0.093   9.862  20.042  0.00  0.00    +0.000 N 
ATOM     25  H   UNL     1      -0.683   9.614  20.827  0.00  0.00    +0.000 HD
BRANCH  23  26
ATOM     26  C   UNL     1      -1.780  11.378  19.105  0.00  0.00    +0.000 A 
ATOM     27  C   UNL     1      -2.103  12.159  20.190  0.00  0.00    +0.000 A 
ATOM     28  C   UNL     1      -3.417  12.684  20.133  0.00  0.00    +0.000 A 
ATOM     29  C   UNL     1      -4.107  13.474  21.078  0.00  0.00    +0.000 A 
ATOM     30  C   UNL     1      -5.298  12.855  21.435  0.00  0.00    +0.000 A 
ATOM     31  C   UNL     1      -6.098  12.302  20.443  0.00  0.00    +0.000 A 
ATOM     32  C   UNL     1      -5.558  12.050  19.174  0.00  0.00    +0.000 A 
ATOM     33  C   UNL     1      -4.151  12.064  19.115  0.00  0.00    +0.000 A 
ATOM     34  S   UNL     1      -3.071  11.315  17.985  0.00  0.00    +0.000 S 
ENDBRANCH  23  26
ENDBRANCH   1  24
TORSDOF 7
ENDMDL
MODEL 8
REMARK VINA RESULT:      -7.8      3.906      5.316
REMARK  Name = 
REMARK  7 active torsions:
REMARK  status: ('A' for Active; 'I' for Inactive)
REMARK    1  A    between atoms: C_2  and  C_23
REMARK    2  A    between atoms: N_3  and  N_4
REMARK    3  A    between atoms: C_5  and  C_7
REMARK    4  A    between atoms: C_10  and  C_11
REMARK    5  A    between atoms: C_11  and  N_12
REMARK    6  A    between atoms: N_12  and  S_13
REMARK    7  A    between atoms: S_13  and  C_16
REMARK                            x       y       z     vdW  Elec       q    Type
REMARK                         _______ _______ _______ _____ _____    ______ ____
ROOT
ATOM      1  N   UNL     1       2.281   6.486  20.509  0.00  0.00    +0.000 N 
ATOM      2  C   UNL     1       1.728   5.219  20.380  0.00  0.00    +0.000 C 
ATOM      3  O   UNL     1       0.687   4.897  20.920  0.00  0.00    +0.000 OA
ATOM      4  H   UNL     1       3.156   6.752  20.072  0.00  0.00    +0.000 HD
ENDROOT
BRANCH   2   5
ATOM      5  C   UNL     1       2.555   4.316  19.463  0.00  0.00    +0.000 C 
ATOM      6  C   UNL     1       1.866   4.154  18.095  0.00  0.00    +0.000 C 
ATOM      7  C   UNL     1       2.732   3.418  17.073  0.00  0.00    +0.000 C 
ATOM      8  C   UNL     1       4.097   4.102  16.912  0.00  0.00    +0.000 C 
ATOM      9  C   UNL     1       4.809   4.169  18.271  0.00  0.00    +0.000 C 
ATOM     10  C   UNL     1       3.969   4.899  19.311  0.00  0.00    +0.000 C 
BRANCH   8  11
ATOM     11  C   UNL     1       4.987   3.384  15.882  0.00  0.00    +0.000 C 
BRANCH  11  12
ATOM     12  N   UNL     1       6.385   3.823  16.038  0.00  0.00    +0.000 NA
ATOM     13  H   UNL     1       7.076   3.180  15.646  0.00  0.00    +0.000 HD
BRANCH  12  14
ATOM     14  S   UNL     1       6.738   5.389  15.508  0.00  0.00    +0.000 S 
ATOM     15  O   UNL     1       7.812   5.284  14.546  0.00  0.00    +0.000 OA
ATOM     16  O   UNL     1       5.481   6.022  15.170  0.00  0.00    +0.000 OA
BRANCH  14  17
ATOM     17  C   UNL     1       7.371   6.311  16.883  0.00  0.00    +0.000 A 
ATOM     18  C   UNL     1       7.595   7.663  17.067  0.00  0.00    +0.000 A 
ATOM     19  C   UNL     1       8.086   7.959  18.370  0.00  0.00    +0.000 A 
ATOM     20  C   UNL     1       8.226   6.822  19.136  0.00  0.00    +0.000 A 
ATOM     21  S   UNL     1       7.754   5.412  18.288  0.00  0.00    +0.000 S 
ENDBRANCH  14  17
ENDBRANCH  12  14
ENDBRANCH  11  12
ENDBRANCH   8  11
ENDBRANCH   2   5
BRANCH   1  24
ATOM     22  O   UNL     1       1.623   8.567  19.151  0.00  0.00    +0.000 OA
ATOM     23  C   UNL     1       1.209   8.560  20.321  0.00  0.00    +0.000 C 
ATOM     24  N   UNL     1       1.590   7.515  21.159  0.00  0.00    +0.000 N 
ATOM     25  H   UNL     1       1.135   7.324  22.044  0.00  0.00    +0.000 HD
BRANCH  23  26
ATOM     26  C   UNL     1       0.309   9.580  20.815  0.00  0.00    +0.000 A 
ATOM     27  C   UNL     1      -0.230  10.565  20.021  0.00  0.00    +0.000 A 
ATOM     28  C   UNL     1      -1.001  11.509  20.744  0.00  0.00    +0.000 A 
ATOM     29  C   UNL     1      -1.654  12.671  20.281  0.00  0.00    +0.000 A 
ATOM     30  C   UNL     1      -1.212  13.779  20.993  0.00  0.00    +0.000 A 
ATOM     31  C   UNL     1      -1.087  13.692  22.374  0.00  0.00    +0.000 A 
ATOM     32  C   UNL     1      -1.053  12.434  22.990  0.00  0.00    +0.000 A 
ATOM     33  C   UNL     1      -0.805  11.354  22.120  0.00  0.00    +0.000 A 
ATOM     34  S   UNL     1      -0.158   9.779  22.448  0.00  0.00    +0.000 S 
ENDBRANCH  23  26
ENDBRANCH   1  24
TORSDOF 7
ENDMDL
MODEL 9
REMARK VINA RESULT:      -7.7      3.204      4.788
REMARK  Name = 
REMARK  7 active torsions:
REMARK  status: ('A' for Active; 'I' for Inactive)
REMARK    1  A    between atoms: C_2  and  C_23
REMARK    2  A    between atoms: N_3  and  N_4
REMARK    3  A    between atoms: C_5  and  C_7
REMARK    4  A    between atoms: C_10  and  C_11
REMARK    5  A    between atoms: C_11  and  N_12
REMARK    6  A    between atoms: N_12  and  S_13
REMARK    7  A    between atoms: S_13  and  C_16
REMARK                            x       y       z     vdW  Elec       q    Type
REMARK                         _______ _______ _______ _____ _____    ______ ____
ROOT
ATOM      1  N   UNL     1       0.922   8.797  19.983  0.00  0.00    +0.000 N 
ATOM      2  C   UNL     1       1.530   8.812  18.734  0.00  0.00    +0.000 C 
ATOM      3  O   UNL     1       1.078   9.430  17.790  0.00  0.00    +0.000 OA
ATOM      4  H   UNL     1       1.288   8.269  20.767  0.00  0.00    +0.000 HD
ENDROOT
BRANCH   2   5
ATOM      5  C   UNL     1       2.828   8.004  18.712  0.00  0.00    +0.000 C 
ATOM      6  C   UNL     1       2.685   6.722  19.553  0.00  0.00    +0.000 C 
ATOM      7  C   UNL     1       3.883   5.782  19.419  0.00  0.00    +0.000 C 
ATOM      8  C   UNL     1       4.150   5.435  17.947  0.00  0.00    +0.000 C 
ATOM      9  C   UNL     1       4.384   6.722  17.143  0.00  0.00    +0.000 C 
ATOM     10  C   UNL     1       3.204   7.680  17.258  0.00  0.00    +0.000 C 
BRANCH   8  11
ATOM     11  C   UNL     1       5.348   4.482  17.785  0.00  0.00    +0.000 C 
BRANCH  11  12
ATOM     12  N   UNL     1       5.141   3.276  18.606  0.00  0.00    +0.000 NA
ATOM     13  H   UNL     1       5.145   3.447  19.614  0.00  0.00    +0.000 HD
BRANCH  12  14
ATOM     14  S   UNL     1       3.791   2.335  18.221  0.00  0.00    +0.000 S 
ATOM     15  O   UNL     1       3.317   2.775  16.927  0.00  0.00    +0.000 OA
ATOM     16  O   UNL     1       4.145   0.953  18.465  0.00  0.00    +0.000 OA
BRANCH  14  17
ATOM     17  C   UNL     1       2.507   2.701  19.386  0.00  0.00    +0.000 A 
ATOM     18  C   UNL     1       1.183   3.065  19.223  0.00  0.00    +0.000 A 
ATOM     19  C   UNL     1       0.507   3.222  20.466  0.00  0.00    +0.000 A 
ATOM     20  C   UNL     1       1.339   2.980  21.538  0.00  0.00    +0.000 A 
ATOM     21  S   UNL     1       2.920   2.552  21.041  0.00  0.00    +0.000 S 
ENDBRANCH  14  17
ENDBRANCH  12  14
ENDBRANCH  11  12
ENDBRANCH   8  11
ENDBRANCH   2   5
BRANCH   1  24
ATOM     22  O   UNL     1       0.888  10.084  22.208  0.00  0.00    +0.000 OA
ATOM     23  C   UNL     1      -0.065  10.330  21.453  0.00  0.00    +0.000 C 
ATOM     24  N   UNL     1      -0.179   9.614  20.262  0.00  0.00    +0.000 N 
ATOM     25  H   UNL     1      -0.792   9.895  19.507  0.00  0.00    +0.000 HD
BRANCH  23  26
ATOM     26  C   UNL     1      -1.027  11.368  21.755  0.00  0.00    +0.000 A 
ATOM     27  C   UNL     1      -1.543  11.580  23.013  0.00  0.00    +0.000 A 
ATOM     28  C   UNL     1      -2.542  12.584  23.047  0.00  0.00    +0.000 A 
ATOM     29  C   UNL     1      -3.322  13.031  24.135  0.00  0.00    +0.000 A 
ATOM     30  C   UNL     1      -4.672  12.913  23.831  0.00  0.00    +0.000 A 
ATOM     31  C   UNL     1      -5.124  13.323  22.583  0.00  0.00    +0.000 A 
ATOM     32  C   UNL     1      -4.208  13.505  21.537  0.00  0.00    +0.000 A 
ATOM     33  C   UNL     1      -2.942  12.925  21.751  0.00  0.00    +0.000 A 
ATOM     34  S   UNL     1      -1.733  12.426  20.612  0.00  0.00    +0.000 S 
ENDBRANCH  23  26
ENDBRANCH   1  24
TORSDOF 7
ENDMDL
