MODEL 1
REMARK VINA RESULT:      -9.3      0.000      0.000
REMARK  Name = 
REMARK  5 active torsions:
REMARK  status: ('A' for Active; 'I' for Inactive)
REMARK    1  A    between atoms: N_1  and  N_2
REMARK    2  A    between atoms: C_3  and  C_5
REMARK    3  A    between atoms: C_5  and  N_6
REMARK    4  A    between atoms: C_7  and  C_8
REMARK    5  A    between atoms: C_23  and  C_24
REMARK                            x       y       z     vdW  Elec       q    Type
REMARK                         _______ _______ _______ _____ _____    ______ ____
ROOT
ATOM      1  N   UNL     1       4.430   5.413  18.787  0.00  0.00    +0.000 N 
ATOM      2  C   UNL     1       4.483   5.948  17.498  0.00  0.00    +0.000 C 
ATOM      3  N   UNL     1       3.797   6.998  17.119  0.00  0.00    +0.000 NA
ATOM      4  C   UNL     1       2.939   7.629  18.016  0.00  0.00    +0.000 A 
ATOM      5  C   UNL     1       2.244   8.777  17.593  0.00  0.00    +0.000 A 
ATOM      6  C   UNL     1       1.337   9.419  18.440  0.00  0.00    +0.000 A 
ATOM      7  C   UNL     1       1.129   8.924  19.724  0.00  0.00    +0.000 A 
ATOM      8 BR   UNL     1      -0.133   9.741  20.865  0.00  0.00    +0.000 Br
ATOM      9  C   UNL     1       1.832   7.807  20.163  0.00  0.00    +0.000 A 
ATOM     10  C   UNL     1       2.735   7.153  19.304  0.00  0.00    +0.000 A 
ATOM     11  C   UNL     1       3.430   5.892  19.741  0.00  0.00    +0.000 C 
ENDROOT
BRANCH   2  12
ATOM     12  C   UNL     1       5.405   5.392  16.460  0.00  0.00    +0.000 A 
ATOM     13  C   UNL     1       6.777   5.667  16.478  0.00  0.00    +0.000 A 
ATOM     14  C   UNL     1       7.566   5.428  15.368  0.00  0.00    +0.000 A 
ATOM     15  C   UNL     1       7.003   4.804  14.271  0.00  0.00    +0.000 A 
ATOM     16  C   UNL     1       5.670   4.415  14.283  0.00  0.00    +0.000 A 
ATOM     17 CL   UNL     1       4.985   3.679  12.890  0.00  0.00    +0.000 Cl
ATOM     18  C   UNL     1       4.862   4.688  15.383  0.00  0.00    +0.000 A 
ENDBRANCH   2  12
BRANCH  11  19
ATOM     19  C   UNL     1       2.435   4.790  20.079  0.00  0.00    +0.000 A 
ATOM     20  C   UNL     1       2.422   4.189  21.348  0.00  0.00    +0.000 A 
ATOM     21  C   UNL     1       1.572   3.115  21.612  0.00  0.00    +0.000 A 
ATOM     22  C   UNL     1       0.707   2.649  20.623  0.00  0.00    +0.000 A 
ATOM     23  C   UNL     1       0.686   3.259  19.370  0.00  0.00    +0.000 A 
ATOM     24  C   UNL     1       1.545   4.322  19.097  0.00  0.00    +0.000 A 
ENDBRANCH  11  19
BRANCH   1  25
ATOM     25  C   UNL     1       5.249   4.291  19.303  0.00  0.00    +0.000 C 
BRANCH  25  27
ATOM     26  N   UNL     1       5.085   1.878  19.762  0.00  0.00    +0.000 N 
ATOM     27  C   UNL     1       4.750   2.892  18.884  0.00  0.00    +0.000 C 
ATOM     28  O   UNL     1       4.079   2.713  17.846  0.00  0.00    +0.000 OA
ATOM     29  H   UNL     1       5.424   2.123  20.688  0.00  0.00    +0.000 HD
BRANCH  26  30
ATOM     30  N   UNL     1       4.673   0.552  19.496  0.00  0.00    +0.000 NA
ATOM     31  H   UNL     1       3.646   0.520  19.534  0.00  0.00    +0.000 HD
ATOM     32  H   UNL     1       4.979  -0.025  20.290  0.00  0.00    +0.000 HD
ENDBRANCH  26  30
ENDBRANCH  25  27
ENDBRANCH   1  25
TORSDOF 5
ENDMDL
MODEL 2
REMARK VINA RESULT:      -9.1      0.742      1.164
REMARK  Name = 
REMARK  5 active torsions:
REMARK  status: ('A' for Active; 'I' for Inactive)
REMARK    1  A    between atoms: N_1  and  N_2
REMARK    2  A    between atoms: C_3  and  C_5
REMARK    3  A    between atoms: C_5  and  N_6
REMARK    4  A    between atoms: C_7  and  C_8
REMARK    5  A    between atoms: C_23  and  C_24
REMARK                            x       y       z     vdW  Elec       q    Type
REMARK                         _______ _______ _______ _____ _____    ______ ____
ROOT
ATOM      1  N   UNL     1       4.563   5.342  18.771  0.00  0.00    +0.000 N 
ATOM      2  C   UNL     1       4.565   5.854  17.472  0.00  0.00    +0.000 C 
ATOM      3  N   UNL     1       3.836   6.876  17.093  0.00  0.00    +0.000 NA
ATOM      4  C   UNL     1       2.983   7.497  18.003  0.00  0.00    +0.000 A 
ATOM      5  C   UNL     1       2.242   8.615  17.579  0.00  0.00    +0.000 A 
ATOM      6  C   UNL     1       1.339   9.245  18.440  0.00  0.00    +0.000 A 
ATOM      7  C   UNL     1       1.182   8.767  19.737  0.00  0.00    +0.000 A 
ATOM      8 BR   UNL     1      -0.073   9.567  20.899  0.00  0.00    +0.000 Br
ATOM      9  C   UNL     1       1.931   7.681  20.177  0.00  0.00    +0.000 A 
ATOM     10  C   UNL     1       2.830   7.039  19.304  0.00  0.00    +0.000 A 
ATOM     11  C   UNL     1       3.576   5.808  19.744  0.00  0.00    +0.000 C 
ENDROOT
BRANCH   2  12
ATOM     12  C   UNL     1       5.474   5.308  16.418  0.00  0.00    +0.000 A 
ATOM     13  C   UNL     1       6.845   5.590  16.417  0.00  0.00    +0.000 A 
ATOM     14  C   UNL     1       7.619   5.360  15.295  0.00  0.00    +0.000 A 
ATOM     15  C   UNL     1       7.044   4.737  14.204  0.00  0.00    +0.000 A 
ATOM     16  C   UNL     1       5.713   4.340  14.235  0.00  0.00    +0.000 A 
ATOM     17 CL   UNL     1       5.011   3.604  12.849  0.00  0.00    +0.000 Cl
ATOM     18  C   UNL     1       4.920   4.604  15.347  0.00  0.00    +0.000 A 
ENDBRANCH   2  12
BRANCH  11  19
ATOM     19  C   UNL     1       2.625   4.682  20.129  0.00  0.00    +0.000 A 
ATOM     20  C   UNL     1       1.696   4.171  19.208  0.00  0.00    +0.000 A 
ATOM     21  C   UNL     1       0.766   3.209  19.603  0.00  0.00    +0.000 A 
ATOM     22  C   UNL     1       0.771   2.728  20.911  0.00  0.00    +0.000 A 
ATOM     23  C   UNL     1       1.710   3.202  21.825  0.00  0.00    +0.000 A 
ATOM     24  C   UNL     1       2.630   4.175  21.440  0.00  0.00    +0.000 A 
ENDBRANCH  11  19
BRANCH   1  25
ATOM     25  C   UNL     1       5.431   4.255  19.284  0.00  0.00    +0.000 C 
BRANCH  25  27
ATOM     26  N   UNL     1       4.236   2.517  18.013  0.00  0.00    +0.000 N 
ATOM     27  C   UNL     1       4.791   2.852  19.235  0.00  0.00    +0.000 C 
ATOM     28  O   UNL     1       4.803   2.085  20.220  0.00  0.00    +0.000 OA
ATOM     29  H   UNL     1       4.463   3.083  17.200  0.00  0.00    +0.000 HD
BRANCH  26  30
ATOM     30  N   UNL     1       3.632   1.252  17.837  0.00  0.00    +0.000 NA
ATOM     31  H   UNL     1       3.295   1.186  16.868  0.00  0.00    +0.000 HD
ATOM     32  H   UNL     1       2.778   1.243  18.409  0.00  0.00    +0.000 HD
ENDBRANCH  26  30
ENDBRANCH  25  27
ENDBRANCH   1  25
TORSDOF 5
ENDMDL
MODEL 3
REMARK VINA RESULT:      -8.7      1.441      1.677
REMARK  Name = 
REMARK  5 active torsions:
REMARK  status: ('A' for Active; 'I' for Inactive)
REMARK    1  A    between atoms: N_1  and  N_2
REMARK    2  A    between atoms: C_3  and  C_5
REMARK    3  A    between atoms: C_5  and  N_6
REMARK    4  A    between atoms: C_7  and  C_8
REMARK    5  A    between atoms: C_23  and  C_24
REMARK                            x       y       z     vdW  Elec       q    Type
REMARK                         _______ _______ _______ _____ _____    ______ ____
ROOT
ATOM      1  N   UNL     1       4.519   5.330  18.365  0.00  0.00    +0.000 N 
ATOM      2  C   UNL     1       4.545   5.935  17.107  0.00  0.00    +0.000 C 
ATOM      3  N   UNL     1       3.868   7.017  16.807  0.00  0.00    +0.000 NA
ATOM      4  C   UNL     1       3.047   7.611  17.764  0.00  0.00    +0.000 A 
ATOM      5  C   UNL     1       2.362   8.793  17.426  0.00  0.00    +0.000 A 
ATOM      6  C   UNL     1       1.492   9.401  18.336  0.00  0.00    +0.000 A 
ATOM      7  C   UNL     1       1.313   8.837  19.595  0.00  0.00    +0.000 A 
ATOM      8 BR   UNL     1       0.100   9.610  20.818  0.00  0.00    +0.000 Br
ATOM      9  C   UNL     1       2.007   7.686  19.950  0.00  0.00    +0.000 A 
ATOM     10  C   UNL     1       2.872   7.066  19.029  0.00  0.00    +0.000 A 
ATOM     11  C   UNL     1       3.557   5.771  19.373  0.00  0.00    +0.000 C 
ENDROOT
BRANCH   2  12
ATOM     12  C   UNL     1       5.425   5.424  16.011  0.00  0.00    +0.000 A 
ATOM     13  C   UNL     1       6.742   5.873  15.862  0.00  0.00    +0.000 A 
ATOM     14  C   UNL     1       7.441   5.653  14.690  0.00  0.00    +0.000 A 
ATOM     15  C   UNL     1       6.862   4.877  13.703  0.00  0.00    +0.000 A 
ATOM     16  C   UNL     1       5.602   4.322  13.886  0.00  0.00    +0.000 A 
ATOM     17 CL   UNL     1       4.888   3.397  12.627  0.00  0.00    +0.000 Cl
ATOM     18  C   UNL     1       4.879   4.574  15.048  0.00  0.00    +0.000 A 
ENDBRANCH   2  12
BRANCH  11  19
ATOM     19  C   UNL     1       2.551   4.668  19.679  0.00  0.00    +0.000 A 
ATOM     20  C   UNL     1       2.385   4.181  20.985  0.00  0.00    +0.000 A 
ATOM     21  C   UNL     1       1.532   3.105  21.234  0.00  0.00    +0.000 A 
ATOM     22  C   UNL     1       0.817   2.524  20.189  0.00  0.00    +0.000 A 
ATOM     23  C   UNL     1       0.947   3.021  18.893  0.00  0.00    +0.000 A 
ATOM     24  C   UNL     1       1.810   4.085  18.637  0.00  0.00    +0.000 A 
ENDBRANCH  11  19
BRANCH   1  25
ATOM     25  C   UNL     1       5.332   4.167  18.792  0.00  0.00    +0.000 C 
BRANCH  25  27
ATOM     26  N   UNL     1       7.108   5.171  20.169  0.00  0.00    +0.000 N 
ATOM     27  C   UNL     1       6.828   4.479  19.006  0.00  0.00    +0.000 C 
ATOM     28  O   UNL     1       7.703   4.108  18.195  0.00  0.00    +0.000 OA
ATOM     29  H   UNL     1       6.391   5.236  20.886  0.00  0.00    +0.000 HD
BRANCH  26  30
ATOM     30  N   UNL     1       8.445   5.504  20.485  0.00  0.00    +0.000 NA
ATOM     31  H   UNL     1       8.608   6.480  20.207  0.00  0.00    +0.000 HD
ATOM     32  H   UNL     1       9.049   4.953  19.862  0.00  0.00    +0.000 HD
ENDBRANCH  26  30
ENDBRANCH  25  27
ENDBRANCH   1  25
TORSDOF 5
ENDMDL
MODEL 4
REMARK VINA RESULT:      -7.9      1.680      2.061
REMARK  Name = 
REMARK  5 active torsions:
REMARK  status: ('A' for Active; 'I' for Inactive)
REMARK    1  A    between atoms: N_1  and  N_2
REMARK    2  A    between atoms: C_3  and  C_5
REMARK    3  A    between atoms: C_5  and  N_6
REMARK    4  A    between atoms: C_7  and  C_8
REMARK    5  A    between atoms: C_23  and  C_24
REMARK                            x       y       z     vdW  Elec       q    Type
REMARK                         _______ _______ _______ _____ _____    ______ ____
ROOT
ATOM      1  N   UNL     1       4.387   5.336  18.310  0.00  0.00    +0.000 N 
ATOM      2  C   UNL     1       4.245   5.920  17.050  0.00  0.00    +0.000 C 
ATOM      3  N   UNL     1       3.531   6.996  16.825  0.00  0.00    +0.000 NA
ATOM      4  C   UNL     1       2.842   7.605  17.872  0.00  0.00    +0.000 A 
ATOM      5  C   UNL     1       2.115   8.780  17.609  0.00  0.00    +0.000 A 
ATOM      6  C   UNL     1       1.370   9.402  18.615  0.00  0.00    +0.000 A 
ATOM      7  C   UNL     1       1.360   8.858  19.896  0.00  0.00    +0.000 A 
ATOM      8 BR   UNL     1       0.316   9.650  21.255  0.00  0.00    +0.000 Br
ATOM      9  C   UNL     1       2.099   7.714  20.174  0.00  0.00    +0.000 A 
ATOM     10  C   UNL     1       2.837   7.080  19.157  0.00  0.00    +0.000 A 
ATOM     11  C   UNL     1       3.565   5.792  19.429  0.00  0.00    +0.000 C 
ENDROOT
BRANCH   2  12
ATOM     12  C   UNL     1       4.976   5.392  15.856  0.00  0.00    +0.000 A 
ATOM     13  C   UNL     1       4.550   4.236  15.192  0.00  0.00    +0.000 A 
ATOM     14  C   UNL     1       5.383   3.576  14.308  0.00  0.00    +0.000 A 
ATOM     15  C   UNL     1       6.606   4.138  13.996  0.00  0.00    +0.000 A 
ATOM     16  C   UNL     1       6.992   5.349  14.555  0.00  0.00    +0.000 A 
ATOM     17 CL   UNL     1       8.536   6.006  14.184  0.00  0.00    +0.000 Cl
ATOM     18  C   UNL     1       6.175   5.998  15.476  0.00  0.00    +0.000 A 
ENDBRANCH   2  12
BRANCH  11  19
ATOM     19  C   UNL     1       2.612   4.693  19.882  0.00  0.00    +0.000 A 
ATOM     20  C   UNL     1       2.624   4.224  21.205  0.00  0.00    +0.000 A 
ATOM     21  C   UNL     1       1.815   3.151  21.582  0.00  0.00    +0.000 A 
ATOM     22  C   UNL     1       0.967   2.555  20.649  0.00  0.00    +0.000 A 
ATOM     23  C   UNL     1       0.921   3.034  19.342  0.00  0.00    +0.000 A 
ATOM     24  C   UNL     1       1.740   4.095  18.957  0.00  0.00    +0.000 A 
ENDBRANCH  11  19
BRANCH   1  25
ATOM     25  C   UNL     1       5.254   4.180  18.644  0.00  0.00    +0.000 C 
BRANCH  25  27
ATOM     26  N   UNL     1       7.115   5.185  19.904  0.00  0.00    +0.000 N 
ATOM     27  C   UNL     1       6.756   4.519  18.747  0.00  0.00    +0.000 C 
ATOM     28  O   UNL     1       7.570   4.188  17.860  0.00  0.00    +0.000 OA
ATOM     29  H   UNL     1       6.457   5.216  20.677  0.00  0.00    +0.000 HD
BRANCH  26  30
ATOM     30  N   UNL     1       8.466   5.538  20.122  0.00  0.00    +0.000 NA
ATOM     31  H   UNL     1       8.857   4.899  20.825  0.00  0.00    +0.000 HD
ATOM     32  H   UNL     1       8.468   6.459  20.579  0.00  0.00    +0.000 HD
ENDBRANCH  26  30
ENDBRANCH  25  27
ENDBRANCH   1  25
TORSDOF 5
ENDMDL
MODEL 5
REMARK VINA RESULT:      -7.7      7.477     10.708
REMARK  Name = 
REMARK  5 active torsions:
REMARK  status: ('A' for Active; 'I' for Inactive)
REMARK    1  A    between atoms: N_1  and  N_2
REMARK    2  A    between atoms: C_3  and  C_5
REMARK    3  A    between atoms: C_5  and  N_6
REMARK    4  A    between atoms: C_7  and  C_8
REMARK    5  A    between atoms: C_23  and  C_24
REMARK                            x       y       z     vdW  Elec       q    Type
REMARK                         _______ _______ _______ _____ _____    ______ ____
ROOT
ATOM      1  N   UNL     1      -1.321  11.660  20.902  0.00  0.00    +0.000 N 
ATOM      2  C   UNL     1      -2.489  12.380  21.160  0.00  0.00    +0.000 C 
ATOM      3  N   UNL     1      -3.472  12.501  20.301  0.00  0.00    +0.000 NA
ATOM      4  C   UNL     1      -3.371  11.913  19.042  0.00  0.00    +0.000 A 
ATOM      5  C   UNL     1      -4.457  12.028  18.155  0.00  0.00    +0.000 A 
ATOM      6  C   UNL     1      -4.387  11.495  16.864  0.00  0.00    +0.000 A 
ATOM      7  C   UNL     1      -3.234  10.832  16.458  0.00  0.00    +0.000 A 
ATOM      8 BR   UNL     1      -3.096  10.155  14.702  0.00  0.00    +0.000 Br
ATOM      9  C   UNL     1      -2.166  10.687  17.336  0.00  0.00    +0.000 A 
ATOM     10  C   UNL     1      -2.232  11.236  18.631  0.00  0.00    +0.000 A 
ATOM     11  C   UNL     1      -1.046  11.163  19.555  0.00  0.00    +0.000 C 
ENDROOT
BRANCH   2  12
ATOM     12  C   UNL     1      -2.739  13.013  22.492  0.00  0.00    +0.000 A 
ATOM     13  C   UNL     1      -3.419  12.332  23.509  0.00  0.00    +0.000 A 
ATOM     14  C   UNL     1      -3.924  13.008  24.604  0.00  0.00    +0.000 A 
ATOM     15  C   UNL     1      -3.649  14.355  24.741  0.00  0.00    +0.000 A 
ATOM     16  C   UNL     1      -2.872  15.020  23.801  0.00  0.00    +0.000 A 
ATOM     17 CL   UNL     1      -2.580  16.704  23.975  0.00  0.00    +0.000 Cl
ATOM     18  C   UNL     1      -2.394  14.353  22.677  0.00  0.00    +0.000 A 
ENDBRANCH   2  12
BRANCH  11  19
ATOM     19  C   UNL     1       0.173  11.857  18.961  0.00  0.00    +0.000 A 
ATOM     20  C   UNL     1       1.290  11.121  18.535  0.00  0.00    +0.000 A 
ATOM     21  C   UNL     1       2.437  11.775  18.085  0.00  0.00    +0.000 A 
ATOM     22  C   UNL     1       2.470  13.167  18.028  0.00  0.00    +0.000 A 
ATOM     23  C   UNL     1       1.355  13.908  18.415  0.00  0.00    +0.000 A 
ATOM     24  C   UNL     1       0.213  13.259  18.882  0.00  0.00    +0.000 A 
ENDBRANCH  11  19
BRANCH   1  25
ATOM     25  C   UNL     1      -0.220  11.407  21.862  0.00  0.00    +0.000 C 
BRANCH  25  27
ATOM     26  N   UNL     1       1.326   9.506  21.620  0.00  0.00    +0.000 N 
ATOM     27  C   UNL     1       0.092   9.913  22.094  0.00  0.00    +0.000 C 
ATOM     28  O   UNL     1      -0.705   9.155  22.684  0.00  0.00    +0.000 OA
ATOM     29  H   UNL     1       2.011  10.212  21.365  0.00  0.00    +0.000 HD
BRANCH  26  30
ATOM     30  N   UNL     1       1.734   8.163  21.786  0.00  0.00    +0.000 NA
ATOM     31  H   UNL     1       2.384   7.928  21.025  0.00  0.00    +0.000 HD
ATOM     32  H   UNL     1       0.910   7.573  21.613  0.00  0.00    +0.000 HD
ENDBRANCH  26  30
ENDBRANCH  25  27
ENDBRANCH   1  25
TORSDOF 5
ENDMDL
MODEL 6
REMARK VINA RESULT:      -7.6      6.784     10.284
REMARK  Name = 
REMARK  5 active torsions:
REMARK  status: ('A' for Active; 'I' for Inactive)
REMARK    1  A    between atoms: N_1  and  N_2
REMARK    2  A    between atoms: C_3  and  C_5
REMARK    3  A    between atoms: C_5  and  N_6
REMARK    4  A    between atoms: C_7  and  C_8
REMARK    5  A    between atoms: C_23  and  C_24
REMARK                            x       y       z     vdW  Elec       q    Type
REMARK                         _______ _______ _______ _____ _____    ______ ____
ROOT
ATOM      1  N   UNL     1      -1.377  11.754  19.282  0.00  0.00    +0.000 N 
ATOM      2  C   UNL     1      -1.710  12.712  20.241  0.00  0.00    +0.000 C 
ATOM      3  N   UNL     1      -0.944  13.731  20.546  0.00  0.00    +0.000 NA
ATOM      4  C   UNL     1       0.289  13.888  19.916  0.00  0.00    +0.000 A 
ATOM      5  C   UNL     1       1.073  15.012  20.235  0.00  0.00    +0.000 A 
ATOM      6  C   UNL     1       2.336  15.189  19.665  0.00  0.00    +0.000 A 
ATOM      7  C   UNL     1       2.818  14.249  18.760  0.00  0.00    +0.000 A 
ATOM      8 BR   UNL     1       4.545  14.439  18.021  0.00  0.00    +0.000 Br
ATOM      9  C   UNL     1       2.040  13.150  18.414  0.00  0.00    +0.000 A 
ATOM     10  C   UNL     1       0.773  12.964  19.000  0.00  0.00    +0.000 A 
ATOM     11  C   UNL     1      -0.036  11.731  18.700  0.00  0.00    +0.000 C 
ENDROOT
BRANCH   2  12
ATOM     12  C   UNL     1      -3.027  12.684  20.949  0.00  0.00    +0.000 A 
ATOM     13  C   UNL     1      -4.215  13.030  20.295  0.00  0.00    +0.000 A 
ATOM     14  C   UNL     1      -5.365  13.311  21.010  0.00  0.00    +0.000 A 
ATOM     15  C   UNL     1      -5.360  13.133  22.380  0.00  0.00    +0.000 A 
ATOM     16  C   UNL     1      -4.222  12.673  23.030  0.00  0.00    +0.000 A 
ATOM     17 CL   UNL     1      -4.229  12.500  24.740  0.00  0.00    +0.000 Cl
ATOM     18  C   UNL     1      -3.050  12.426  22.321  0.00  0.00    +0.000 A 
ENDBRANCH   2  12
BRANCH  11  19
ATOM     19  C   UNL     1       0.705  10.462  19.102  0.00  0.00    +0.000 A 
ATOM     20  C   UNL     1       1.335   9.655  18.140  0.00  0.00    +0.000 A 
ATOM     21  C   UNL     1       1.925   8.446  18.509  0.00  0.00    +0.000 A 
ATOM     22  C   UNL     1       1.918   8.045  19.844  0.00  0.00    +0.000 A 
ATOM     23  C   UNL     1       1.327   8.853  20.813  0.00  0.00    +0.000 A 
ATOM     24  C   UNL     1       0.721  10.054  20.446  0.00  0.00    +0.000 A 
ENDBRANCH  11  19
BRANCH   1  25
ATOM     25  C   UNL     1      -2.238  10.637  18.826  0.00  0.00    +0.000 C 
BRANCH  25  27
ATOM     26  N   UNL     1      -3.180  11.602  16.765  0.00  0.00    +0.000 N 
ATOM     27  C   UNL     1      -2.433  10.566  17.296  0.00  0.00    +0.000 C 
ATOM     28  O   UNL     1      -1.931   9.654  16.608  0.00  0.00    +0.000 OA
ATOM     29  H   UNL     1      -3.358  12.422  17.338  0.00  0.00    +0.000 HD
BRANCH  26  30
ATOM     30  N   UNL     1      -3.417  11.656  15.373  0.00  0.00    +0.000 NA
ATOM     31  H   UNL     1      -4.263  12.217  15.211  0.00  0.00    +0.000 HD
ATOM     32  H   UNL     1      -3.675  10.707  15.073  0.00  0.00    +0.000 HD
ENDBRANCH  26  30
ENDBRANCH  25  27
ENDBRANCH   1  25
TORSDOF 5
ENDMDL
MODEL 7
REMARK VINA RESULT:      -7.4      7.001     10.904
REMARK  Name = 
REMARK  5 active torsions:
REMARK  status: ('A' for Active; 'I' for Inactive)
REMARK    1  A    between atoms: N_1  and  N_2
REMARK    2  A    between atoms: C_3  and  C_5
REMARK    3  A    between atoms: C_5  and  N_6
REMARK    4  A    between atoms: C_7  and  C_8
REMARK    5  A    between atoms: C_23  and  C_24
REMARK                            x       y       z     vdW  Elec       q    Type
REMARK                         _______ _______ _______ _____ _____    ______ ____
ROOT
ATOM      1  N   UNL     1      -1.021  12.283  20.531  0.00  0.00    +0.000 N 
ATOM      2  C   UNL     1      -1.066  11.778  21.832  0.00  0.00    +0.000 C 
ATOM      3  N   UNL     1      -0.451  10.683  22.207  0.00  0.00    +0.000 NA
ATOM      4  C   UNL     1       0.278   9.942  21.280  0.00  0.00    +0.000 A 
ATOM      5  C   UNL     1       0.959   8.792  21.720  0.00  0.00    +0.000 A 
ATOM      6  C   UNL     1       1.667   7.991  20.820  0.00  0.00    +0.000 A 
ATOM      7  C   UNL     1       1.709   8.343  19.474  0.00  0.00    +0.000 A 
ATOM      8 BR   UNL     1       2.611   7.245  18.232  0.00  0.00    +0.000 Br
ATOM      9  C   UNL     1       1.065   9.494  19.034  0.00  0.00    +0.000 A 
ATOM     10  C   UNL     1       0.340  10.293  19.939  0.00  0.00    +0.000 A 
ATOM     11  C   UNL     1      -0.435  11.489  19.454  0.00  0.00    +0.000 C 
ENDROOT
BRANCH   2  12
ATOM     12  C   UNL     1      -1.773  12.508  22.930  0.00  0.00    +0.000 A 
ATOM     13  C   UNL     1      -3.057  12.137  23.345  0.00  0.00    +0.000 A 
ATOM     14  C   UNL     1      -3.828  12.986  24.118  0.00  0.00    +0.000 A 
ATOM     15  C   UNL     1      -3.268  14.163  24.577  0.00  0.00    +0.000 A 
ATOM     16  C   UNL     1      -1.953  14.488  24.274  0.00  0.00    +0.000 A 
ATOM     17 CL   UNL     1      -1.295  15.979  24.822  0.00  0.00    +0.000 Cl
ATOM     18  C   UNL     1      -1.186  13.657  23.463  0.00  0.00    +0.000 A 
ENDBRANCH   2  12
BRANCH  11  19
ATOM     19  C   UNL     1      -1.496  11.095  18.435  0.00  0.00    +0.000 A 
ATOM     20  C   UNL     1      -2.373  10.025  18.678  0.00  0.00    +0.000 A 
ATOM     21  C   UNL     1      -3.274   9.613  17.696  0.00  0.00    +0.000 A 
ATOM     22  C   UNL     1      -3.329  10.281  16.474  0.00  0.00    +0.000 A 
ATOM     23  C   UNL     1      -2.488  11.366  16.233  0.00  0.00    +0.000 A 
ATOM     24  C   UNL     1      -1.574  11.771  17.205  0.00  0.00    +0.000 A 
ENDBRANCH  11  19
BRANCH   1  25
ATOM     25  C   UNL     1      -1.612  13.561  20.069  0.00  0.00    +0.000 C 
BRANCH  25  27
ATOM     26  N   UNL     1      -0.854  15.492  18.742  0.00  0.00    +0.000 N 
ATOM     27  C   UNL     1      -0.587  14.692  19.838  0.00  0.00    +0.000 C 
ATOM     28  O   UNL     1       0.385  14.869  20.601  0.00  0.00    +0.000 OA
ATOM     29  H   UNL     1      -1.771  15.439  18.308  0.00  0.00    +0.000 HD
BRANCH  26  30
ATOM     30  N   UNL     1       0.005  16.571  18.433  0.00  0.00    +0.000 NA
ATOM     31  H   UNL     1      -0.198  16.879  17.473  0.00  0.00    +0.000 HD
ATOM     32  H   UNL     1       0.960  16.193  18.387  0.00  0.00    +0.000 HD
ENDBRANCH  26  30
ENDBRANCH  25  27
ENDBRANCH   1  25
TORSDOF 5
ENDMDL
MODEL 8
REMARK VINA RESULT:      -7.3      6.991     10.400
REMARK  Name = 
REMARK  5 active torsions:
REMARK  status: ('A' for Active; 'I' for Inactive)
REMARK    1  A    between atoms: N_1  and  N_2
REMARK    2  A    between atoms: C_3  and  C_5
REMARK    3  A    between atoms: C_5  and  N_6
REMARK    4  A    between atoms: C_7  and  C_8
REMARK    5  A    between atoms: C_23  and  C_24
REMARK                            x       y       z     vdW  Elec       q    Type
REMARK                         _______ _______ _______ _____ _____    ______ ____
ROOT
ATOM      1  N   UNL     1      -1.604  11.889  19.149  0.00  0.00    +0.000 N 
ATOM      2  C   UNL     1      -1.925  12.812  20.146  0.00  0.00    +0.000 C 
ATOM      3  N   UNL     1      -1.140  13.800  20.500  0.00  0.00    +0.000 NA
ATOM      4  C   UNL     1       0.102  13.956  19.886  0.00  0.00    +0.000 A 
ATOM      5  C   UNL     1       0.907  15.048  20.260  0.00  0.00    +0.000 A 
ATOM      6  C   UNL     1       2.179  15.222  19.706  0.00  0.00    +0.000 A 
ATOM      7  C   UNL     1       2.647  14.311  18.765  0.00  0.00    +0.000 A 
ATOM      8 BR   UNL     1       4.384  14.495  18.048  0.00  0.00    +0.000 Br
ATOM      9  C   UNL     1       1.849  13.245  18.367  0.00  0.00    +0.000 A 
ATOM     10  C   UNL     1       0.573  13.063  18.935  0.00  0.00    +0.000 A 
ATOM     11  C   UNL     1      -0.260  11.861  18.577  0.00  0.00    +0.000 C 
ENDROOT
BRANCH   2  12
ATOM     12  C   UNL     1      -3.248  12.783  20.843  0.00  0.00    +0.000 A 
ATOM     13  C   UNL     1      -4.424  13.179  20.195  0.00  0.00    +0.000 A 
ATOM     14  C   UNL     1      -5.573  13.454  20.912  0.00  0.00    +0.000 A 
ATOM     15  C   UNL     1      -5.583  13.221  22.274  0.00  0.00    +0.000 A 
ATOM     16  C   UNL     1      -4.460  12.713  22.913  0.00  0.00    +0.000 A 
ATOM     17 CL   UNL     1      -4.484  12.471  24.615  0.00  0.00    +0.000 Cl
ATOM     18  C   UNL     1      -3.288  12.471  22.203  0.00  0.00    +0.000 A 
ENDBRANCH   2  12
BRANCH  11  19
ATOM     19  C   UNL     1       0.450  10.560  18.929  0.00  0.00    +0.000 A 
ATOM     20  C   UNL     1       0.549  10.125  20.260  0.00  0.00    +0.000 A 
ATOM     21  C   UNL     1       1.285   8.984  20.578  0.00  0.00    +0.000 A 
ATOM     22  C   UNL     1       1.907   8.251  19.569  0.00  0.00    +0.000 A 
ATOM     23  C   UNL     1       1.788   8.652  18.240  0.00  0.00    +0.000 A 
ATOM     24  C   UNL     1       1.066   9.801  17.919  0.00  0.00    +0.000 A 
ENDBRANCH  11  19
BRANCH   1  25
ATOM     25  C   UNL     1      -2.486  10.812  18.639  0.00  0.00    +0.000 C 
BRANCH  25  27
ATOM     26  N   UNL     1      -2.316  10.427  16.213  0.00  0.00    +0.000 N 
ATOM     27  C   UNL     1      -3.031  11.055  17.216  0.00  0.00    +0.000 C 
ATOM     28  O   UNL     1      -4.051  11.745  17.008  0.00  0.00    +0.000 OA
ATOM     29  H   UNL     1      -1.648   9.703  16.466  0.00  0.00    +0.000 HD
BRANCH  26  30
ATOM     30  N   UNL     1      -2.724  10.561  14.867  0.00  0.00    +0.000 NA
ATOM     31  H   UNL     1      -1.944  10.963  14.332  0.00  0.00    +0.000 HD
ATOM     32  H   UNL     1      -3.454  11.285  14.844  0.00  0.00    +0.000 HD
ENDBRANCH  26  30
ENDBRANCH  25  27
ENDBRANCH   1  25
TORSDOF 5
ENDMDL
MODEL 9
REMARK VINA RESULT:      -7.2      7.099     10.922
REMARK  Name = 
REMARK  5 active torsions:
REMARK  status: ('A' for Active; 'I' for Inactive)
REMARK    1  A    between atoms: N_1  and  N_2
REMARK    2  A    between atoms: C_3  and  C_5
REMARK    3  A    between atoms: C_5  and  N_6
REMARK    4  A    between atoms: C_7  and  C_8
REMARK    5  A    between atoms: C_23  and  C_24
REMARK                            x       y       z     vdW  Elec       q    Type
REMARK                         _______ _______ _______ _____ _____    ______ ____
ROOT
ATOM      1  N   UNL     1      -1.084  12.415  20.374  0.00  0.00    +0.000 N 
ATOM      2  C   UNL     1      -1.185  11.999  21.704  0.00  0.00    +0.000 C 
ATOM      3  N   UNL     1      -0.602  10.923  22.173  0.00  0.00    +0.000 NA
ATOM      4  C   UNL     1       0.148  10.111  21.325  0.00  0.00    +0.000 A 
ATOM      5  C   UNL     1       0.793   8.984  21.866  0.00  0.00    +0.000 A 
ATOM      6  C   UNL     1       1.519   8.114  21.048  0.00  0.00    +0.000 A 
ATOM      7  C   UNL     1       1.616   8.374  19.685  0.00  0.00    +0.000 A 
ATOM      8 BR   UNL     1       2.543   7.182  18.553  0.00  0.00    +0.000 Br
ATOM      9  C   UNL     1       1.007   9.501  19.144  0.00  0.00    +0.000 A 
ATOM     10  C   UNL     1       0.264  10.370  19.967  0.00  0.00    +0.000 A 
ATOM     11  C   UNL     1      -0.473  11.541  19.374  0.00  0.00    +0.000 C 
ENDROOT
BRANCH   2  12
ATOM     12  C   UNL     1      -1.918  12.811  22.723  0.00  0.00    +0.000 A 
ATOM     13  C   UNL     1      -1.315  13.902  23.360  0.00  0.00    +0.000 A 
ATOM     14  C   UNL     1      -1.860  14.447  24.508  0.00  0.00    +0.000 A 
ATOM     15  C   UNL     1      -3.078  13.974  24.958  0.00  0.00    +0.000 A 
ATOM     16  C   UNL     1      -3.748  12.973  24.267  0.00  0.00    +0.000 A 
ATOM     17 CL   UNL     1      -5.241  12.373  24.872  0.00  0.00    +0.000 Cl
ATOM     18  C   UNL     1      -3.185  12.394  23.133  0.00  0.00    +0.000 A 
ENDBRANCH   2  12
BRANCH  11  19
ATOM     19  C   UNL     1      -1.503  11.095  18.346  0.00  0.00    +0.000 A 
ATOM     20  C   UNL     1      -2.360  10.012  18.600  0.00  0.00    +0.000 A 
ATOM     21  C   UNL     1      -3.231   9.552  17.612  0.00  0.00    +0.000 A 
ATOM     22  C   UNL     1      -3.275  10.185  16.371  0.00  0.00    +0.000 A 
ATOM     23  C   UNL     1      -2.455  11.283  16.118  0.00  0.00    +0.000 A 
ATOM     24  C   UNL     1      -1.572  11.735  17.097  0.00  0.00    +0.000 A 
ENDBRANCH  11  19
BRANCH   1  25
ATOM     25  C   UNL     1      -1.637  13.668  19.806  0.00  0.00    +0.000 C 
BRANCH  25  27
ATOM     26  N   UNL     1      -0.838  15.658  18.598  0.00  0.00    +0.000 N 
ATOM     27  C   UNL     1      -0.611  14.812  19.668  0.00  0.00    +0.000 C 
ATOM     28  O   UNL     1       0.327  14.961  20.479  0.00  0.00    +0.000 OA
ATOM     29  H   UNL     1      -1.736  15.620  18.123  0.00  0.00    +0.000 HD
BRANCH  26  30
ATOM     30  N   UNL     1       0.025  16.754  18.372  0.00  0.00    +0.000 NA
ATOM     31  H   UNL     1       0.467  16.633  17.452  0.00  0.00    +0.000 HD
ATOM     32  H   UNL     1       0.800  16.672  19.043  0.00  0.00    +0.000 HD
ENDBRANCH  26  30
ENDBRANCH  25  27
ENDBRANCH   1  25
TORSDOF 5
ENDMDL
