MODEL 1
REMARK VINA RESULT:      -8.8      0.000      0.000
REMARK  Name = 
REMARK  9 active torsions:
REMARK  status: ('A' for Active; 'I' for Inactive)
REMARK    1  A    between atoms: C_1  and  O_2
REMARK    2  A    between atoms: O_2  and  P_3
REMARK    3  A    between atoms: C_7  and  N_8
REMARK    4  A    between atoms: N_8  and  C_9
REMARK    5  A    between atoms: N_8  and  S_16
REMARK    6  A    between atoms: C_9  and  C_10
REMARK    7  A    between atoms: S_16  and  C_19
REMARK    8  A    between atoms: C_24  and  N_25
REMARK    9  A    between atoms: C_28  and  C_29
REMARK                            x       y       z     vdW  Elec       q    Type
REMARK                         _______ _______ _______ _____ _____    ______ ____
ROOT
ATOM      1  N   UNL     1       4.703   5.520  18.780  0.00  0.00    +0.000 NA
ENDROOT
BRANCH   1   6
ATOM      2  P   UNL     1       7.011   5.047  15.271  0.00  0.00    +0.000 P 
ATOM      3  O   UNL     1       8.044   5.656  14.369  0.00  0.00    +0.000 OA
ATOM      4  C   UNL     1       7.414   4.275  16.782  0.00  0.00    +0.000 C 
ATOM      5  C   UNL     1       6.960   4.692  17.978  0.00  0.00    +0.000 C 
ATOM      6  C   UNL     1       6.092   5.927  18.204  0.00  0.00    +0.000 C 
ATOM      7  C   UNL     1       6.059   6.844  16.927  0.00  0.00    +0.000 C 
ATOM      8  C   UNL     1       7.260   7.785  16.866  0.00  0.00    +0.000 C 
ATOM      9  O   UNL     1       5.885   6.129  15.700  0.00  0.00    +0.000 OA
BRANCH   2  11
ATOM     10  C   UNL     1       6.244   3.793  13.111  0.00  0.00    +0.000 C 
ATOM     11  O   UNL     1       6.097   3.951  14.507  0.00  0.00    +0.000 OA
ENDBRANCH   2  11
ENDBRANCH   1   6
BRANCH   1  12
ATOM     12  S   UNL     1       4.478   3.767  18.855  0.00  0.00    +0.000 S 
ATOM     13  O   UNL     1       4.146   3.235  17.561  0.00  0.00    +0.000 OA
ATOM     14  O   UNL     1       5.600   3.256  19.618  0.00  0.00    +0.000 OA
BRANCH  12  15
ATOM     15  C   UNL     1       3.012   3.539  19.815  0.00  0.00    +0.000 A 
ATOM     16  C   UNL     1       3.064   3.596  21.212  0.00  0.00    +0.000 A 
ATOM     17  C   UNL     1       1.963   3.175  21.963  0.00  0.00    +0.000 A 
ATOM     18  C   UNL     1       0.795   2.750  21.327  0.00  0.00    +0.000 A 
ATOM     19  C   UNL     1       0.711   2.763  19.935  0.00  0.00    +0.000 A 
ATOM     20  C   UNL     1       1.826   3.159  19.188  0.00  0.00    +0.000 A 
BRANCH  20  21
ATOM     21  N   UNL     1       1.691   3.174  17.745  0.00  0.00    +0.000 N 
ATOM     22  O   UNL     1       1.203   4.184  17.235  0.00  0.00    +0.000 OA
ATOM     23  O   UNL     1       2.014   2.144  17.144  0.00  0.00    +0.000 OA
ENDBRANCH  20  21
ENDBRANCH  12  15
ENDBRANCH   1  12
BRANCH   1  24
ATOM     24  C   UNL     1       3.590   6.166  17.968  0.00  0.00    +0.000 C 
BRANCH  24  25
ATOM     25  C   UNL     1       2.717   7.210  18.634  0.00  0.00    +0.000 A 
ATOM     26  C   UNL     1       2.278   7.066  19.959  0.00  0.00    +0.000 A 
ATOM     27  C   UNL     1       1.473   8.048  20.546  0.00  0.00    +0.000 A 
ATOM     28  C   UNL     1       1.099   9.181  19.823  0.00  0.00    +0.000 A 
ATOM     29  C   UNL     1       1.528   9.335  18.508  0.00  0.00    +0.000 A 
ATOM     30  C   UNL     1       2.336   8.360  17.919  0.00  0.00    +0.000 A 
ENDBRANCH  24  25
ENDBRANCH   1  24
TORSDOF 7
ENDMDL
MODEL 2
REMARK VINA RESULT:      -8.7      0.037      1.049
REMARK  Name = 
REMARK  9 active torsions:
REMARK  status: ('A' for Active; 'I' for Inactive)
REMARK    1  A    between atoms: C_1  and  O_2
REMARK    2  A    between atoms: O_2  and  P_3
REMARK    3  A    between atoms: C_7  and  N_8
REMARK    4  A    between atoms: N_8  and  C_9
REMARK    5  A    between atoms: N_8  and  S_16
REMARK    6  A    between atoms: C_9  and  C_10
REMARK    7  A    between atoms: S_16  and  C_19
REMARK    8  A    between atoms: C_24  and  N_25
REMARK    9  A    between atoms: C_28  and  C_29
REMARK                            x       y       z     vdW  Elec       q    Type
REMARK                         _______ _______ _______ _____ _____    ______ ____
ROOT
ATOM      1  N   UNL     1       4.671   5.541  18.764  0.00  0.00    +0.000 NA
ENDROOT
BRANCH   1   6
ATOM      2  P   UNL     1       7.013   5.044  15.281  0.00  0.00    +0.000 P 
ATOM      3  O   UNL     1       8.043   5.654  14.377  0.00  0.00    +0.000 OA
ATOM      4  C   UNL     1       7.416   4.304  16.808  0.00  0.00    +0.000 C 
ATOM      5  C   UNL     1       6.947   4.735  17.993  0.00  0.00    +0.000 C 
ATOM      6  C   UNL     1       6.058   5.959  18.192  0.00  0.00    +0.000 C 
ATOM      7  C   UNL     1       6.020   6.855  16.899  0.00  0.00    +0.000 C 
ATOM      8  C   UNL     1       7.208   7.812  16.831  0.00  0.00    +0.000 C 
ATOM      9  O   UNL     1       5.867   6.116  15.683  0.00  0.00    +0.000 OA
BRANCH   2  11
ATOM     10  C   UNL     1       6.212   3.806  13.124  0.00  0.00    +0.000 C 
ATOM     11  O   UNL     1       6.122   3.922  14.529  0.00  0.00    +0.000 OA
ENDBRANCH   2  11
ENDBRANCH   1   6
BRANCH   1  12
ATOM     12  S   UNL     1       4.460   3.786  18.837  0.00  0.00    +0.000 S 
ATOM     13  O   UNL     1       4.122   3.254  17.545  0.00  0.00    +0.000 OA
ATOM     14  O   UNL     1       5.592   3.282  19.591  0.00  0.00    +0.000 OA
BRANCH  12  15
ATOM     15  C   UNL     1       3.003   3.545  19.807  0.00  0.00    +0.000 A 
ATOM     16  C   UNL     1       3.063   3.608  21.203  0.00  0.00    +0.000 A 
ATOM     17  C   UNL     1       1.972   3.178  21.963  0.00  0.00    +0.000 A 
ATOM     18  C   UNL     1       0.805   2.736  21.337  0.00  0.00    +0.000 A 
ATOM     19  C   UNL     1       0.711   2.742  19.945  0.00  0.00    +0.000 A 
ATOM     20  C   UNL     1       1.817   3.149  19.189  0.00  0.00    +0.000 A 
BRANCH  20  21
ATOM     21  N   UNL     1       1.673   3.156  17.747  0.00  0.00    +0.000 N 
ATOM     22  O   UNL     1       2.059   2.159  17.137  0.00  0.00    +0.000 OA
ATOM     23  O   UNL     1       1.237   4.194  17.236  0.00  0.00    +0.000 OA
ENDBRANCH  20  21
ENDBRANCH  12  15
ENDBRANCH   1  12
BRANCH   1  24
ATOM     24  C   UNL     1       3.555   6.179  17.950  0.00  0.00    +0.000 C 
BRANCH  24  25
ATOM     25  C   UNL     1       2.695   7.240  18.605  0.00  0.00    +0.000 A 
ATOM     26  C   UNL     1       2.296   8.394  17.914  0.00  0.00    +0.000 A 
ATOM     27  C   UNL     1       1.501   9.356  18.548  0.00  0.00    +0.000 A 
ATOM     28  C   UNL     1       1.095   9.178  19.870  0.00  0.00    +0.000 A 
ATOM     29  C   UNL     1       1.485   8.038  20.566  0.00  0.00    +0.000 A 
ATOM     30  C   UNL     1       2.273   7.073  19.937  0.00  0.00    +0.000 A 
ENDBRANCH  24  25
ENDBRANCH   1  24
TORSDOF 7
ENDMDL
MODEL 3
REMARK VINA RESULT:      -8.2      3.322      6.097
REMARK  Name = 
REMARK  9 active torsions:
REMARK  status: ('A' for Active; 'I' for Inactive)
REMARK    1  A    between atoms: C_1  and  O_2
REMARK    2  A    between atoms: O_2  and  P_3
REMARK    3  A    between atoms: C_7  and  N_8
REMARK    4  A    between atoms: N_8  and  C_9
REMARK    5  A    between atoms: N_8  and  S_16
REMARK    6  A    between atoms: C_9  and  C_10
REMARK    7  A    between atoms: S_16  and  C_19
REMARK    8  A    between atoms: C_24  and  N_25
REMARK    9  A    between atoms: C_28  and  C_29
REMARK                            x       y       z     vdW  Elec       q    Type
REMARK                         _______ _______ _______ _____ _____    ______ ____
ROOT
ATOM      1  N   UNL     1       2.833   7.053  18.677  0.00  0.00    +0.000 NA
ENDROOT
BRANCH   1   6
ATOM      2  P   UNL     1       2.952   2.829  18.563  0.00  0.00    +0.000 P 
ATOM      3  O   UNL     1       2.414   1.553  19.141  0.00  0.00    +0.000 OA
ATOM      4  C   UNL     1       2.070   3.784  17.400  0.00  0.00    +0.000 C 
ATOM      5  C   UNL     1       1.687   5.057  17.616  0.00  0.00    +0.000 C 
ATOM      6  C   UNL     1       1.900   5.828  18.915  0.00  0.00    +0.000 C 
ATOM      7  C   UNL     1       2.321   4.869  20.088  0.00  0.00    +0.000 C 
ATOM      8  C   UNL     1       1.113   4.214  20.755  0.00  0.00    +0.000 C 
ATOM      9  O   UNL     1       3.311   3.901  19.723  0.00  0.00    +0.000 OA
BRANCH   2  11
ATOM     10  C   UNL     1       4.675   3.272  16.650  0.00  0.00    +0.000 C 
ATOM     11  O   UNL     1       4.405   2.630  17.879  0.00  0.00    +0.000 OA
ENDBRANCH   2  11
ENDBRANCH   1   6
BRANCH   1  12
ATOM     12  S   UNL     1       1.940   8.532  18.301  0.00  0.00    +0.000 S 
ATOM     13  O   UNL     1       2.835   9.593  17.926  0.00  0.00    +0.000 OA
ATOM     14  O   UNL     1       0.845   8.127  17.441  0.00  0.00    +0.000 OA
BRANCH  12  15
ATOM     15  C   UNL     1       1.261   9.056  19.846  0.00  0.00    +0.000 A 
ATOM     16  C   UNL     1       1.546   8.350  21.020  0.00  0.00    +0.000 A 
ATOM     17  C   UNL     1       0.818   8.619  22.183  0.00  0.00    +0.000 A 
ATOM     18  C   UNL     1      -0.153   9.622  22.192  0.00  0.00    +0.000 A 
ATOM     19  C   UNL     1      -0.388  10.381  21.045  0.00  0.00    +0.000 A 
ATOM     20  C   UNL     1       0.324  10.089  19.877  0.00  0.00    +0.000 A 
BRANCH  20  21
ATOM     21  N   UNL     1       0.062  10.911  18.712  0.00  0.00    +0.000 N 
ATOM     22  O   UNL     1       0.779  11.898  18.547  0.00  0.00    +0.000 OA
ATOM     23  O   UNL     1      -0.906  10.593  18.012  0.00  0.00    +0.000 OA
ENDBRANCH  20  21
ENDBRANCH  12  15
ENDBRANCH   1  12
BRANCH   1  24
ATOM     24  C   UNL     1       3.836   6.740  17.575  0.00  0.00    +0.000 C 
BRANCH  24  25
ATOM     25  C   UNL     1       5.299   6.604  17.943  0.00  0.00    +0.000 A 
ATOM     26  C   UNL     1       6.299   7.319  17.267  0.00  0.00    +0.000 A 
ATOM     27  C   UNL     1       7.642   7.171  17.632  0.00  0.00    +0.000 A 
ATOM     28  C   UNL     1       8.001   6.313  18.671  0.00  0.00    +0.000 A 
ATOM     29  C   UNL     1       7.019   5.597  19.349  0.00  0.00    +0.000 A 
ATOM     30  C   UNL     1       5.678   5.746  18.993  0.00  0.00    +0.000 A 
ENDBRANCH  24  25
ENDBRANCH   1  24
TORSDOF 7
ENDMDL
MODEL 4
REMARK VINA RESULT:      -8.2      9.512     12.279
REMARK  Name = 
REMARK  9 active torsions:
REMARK  status: ('A' for Active; 'I' for Inactive)
REMARK    1  A    between atoms: C_1  and  O_2
REMARK    2  A    between atoms: O_2  and  P_3
REMARK    3  A    between atoms: C_7  and  N_8
REMARK    4  A    between atoms: N_8  and  C_9
REMARK    5  A    between atoms: N_8  and  S_16
REMARK    6  A    between atoms: C_9  and  C_10
REMARK    7  A    between atoms: S_16  and  C_19
REMARK    8  A    between atoms: C_24  and  N_25
REMARK    9  A    between atoms: C_28  and  C_29
REMARK                            x       y       z     vdW  Elec       q    Type
REMARK                         _______ _______ _______ _____ _____    ______ ____
ROOT
ATOM      1  N   UNL     1      -2.722  13.403  22.678  0.00  0.00    +0.000 NA
ENDROOT
BRANCH   1   6
ATOM      2  P   UNL     1      -0.150  16.087  20.666  0.00  0.00    +0.000 P 
ATOM      3  O   UNL     1       0.090  17.511  20.257  0.00  0.00    +0.000 OA
ATOM      4  C   UNL     1       0.164  15.502  22.279  0.00  0.00    +0.000 C 
ATOM      5  C   UNL     1      -0.783  14.985  23.083  0.00  0.00    +0.000 C 
ATOM      6  C   UNL     1      -2.267  14.892  22.742  0.00  0.00    +0.000 C 
ATOM      7  C   UNL     1      -2.622  15.768  21.485  0.00  0.00    +0.000 C 
ATOM      8  C   UNL     1      -2.867  17.229  21.855  0.00  0.00    +0.000 C 
ATOM      9  O   UNL     1      -1.687  15.646  20.408  0.00  0.00    +0.000 OA
BRANCH   2  11
ATOM     10  C   UNL     1      -0.119  14.268  18.791  0.00  0.00    +0.000 C 
ATOM     11  O   UNL     1       0.627  15.034  19.714  0.00  0.00    +0.000 OA
ENDBRANCH   2  11
ENDBRANCH   1   6
BRANCH   1  12
ATOM     12  S   UNL     1      -4.309  13.139  23.413  0.00  0.00    +0.000 S 
ATOM     13  O   UNL     1      -4.319  11.933  24.196  0.00  0.00    +0.000 OA
ATOM     14  O   UNL     1      -4.700  14.414  23.982  0.00  0.00    +0.000 OA
BRANCH  12  15
ATOM     15  C   UNL     1      -5.384  12.790  22.054  0.00  0.00    +0.000 A 
ATOM     16  C   UNL     1      -4.904  12.838  20.741  0.00  0.00    +0.000 A 
ATOM     17  C   UNL     1      -5.806  12.804  19.674  0.00  0.00    +0.000 A 
ATOM     18  C   UNL     1      -7.176  12.668  19.909  0.00  0.00    +0.000 A 
ATOM     19  C   UNL     1      -7.653  12.542  21.215  0.00  0.00    +0.000 A 
ATOM     20  C   UNL     1      -6.748  12.605  22.280  0.00  0.00    +0.000 A 
BRANCH  20  21
ATOM     21  N   UNL     1      -7.282  12.454  23.619  0.00  0.00    +0.000 N 
ATOM     22  O   UNL     1      -7.580  13.483  24.226  0.00  0.00    +0.000 OA
ATOM     23  O   UNL     1      -7.332  11.305  24.073  0.00  0.00    +0.000 OA
ENDBRANCH  20  21
ENDBRANCH  12  15
ENDBRANCH   1  12
BRANCH   1  24
ATOM     24  C   UNL     1      -1.677  12.509  23.328  0.00  0.00    +0.000 C 
BRANCH  24  25
ATOM     25  C   UNL     1      -1.118  11.348  22.531  0.00  0.00    +0.000 A 
ATOM     26  C   UNL     1      -0.769  10.135  23.143  0.00  0.00    +0.000 A 
ATOM     27  C   UNL     1      -0.255   9.081  22.378  0.00  0.00    +0.000 A 
ATOM     28  C   UNL     1      -0.086   9.225  21.001  0.00  0.00    +0.000 A 
ATOM     29  C   UNL     1      -0.428  10.424  20.383  0.00  0.00    +0.000 A 
ATOM     30  C   UNL     1      -0.946  11.476  21.140  0.00  0.00    +0.000 A 
ENDBRANCH  24  25
ENDBRANCH   1  24
TORSDOF 7
ENDMDL
MODEL 5
REMARK VINA RESULT:      -8.1      1.024      2.132
REMARK  Name = 
REMARK  9 active torsions:
REMARK  status: ('A' for Active; 'I' for Inactive)
REMARK    1  A    between atoms: C_1  and  O_2
REMARK    2  A    between atoms: O_2  and  P_3
REMARK    3  A    between atoms: C_7  and  N_8
REMARK    4  A    between atoms: N_8  and  C_9
REMARK    5  A    between atoms: N_8  and  S_16
REMARK    6  A    between atoms: C_9  and  C_10
REMARK    7  A    between atoms: S_16  and  C_19
REMARK    8  A    between atoms: C_24  and  N_25
REMARK    9  A    between atoms: C_28  and  C_29
REMARK                            x       y       z     vdW  Elec       q    Type
REMARK                         _______ _______ _______ _____ _____    ______ ____
ROOT
ATOM      1  N   UNL     1       4.111   5.295  18.147  0.00  0.00    +0.000 NA
ENDROOT
BRANCH   1   6
ATOM      2  P   UNL     1       6.623   5.050  14.756  0.00  0.00    +0.000 P 
ATOM      3  O   UNL     1       7.872   5.553  14.094  0.00  0.00    +0.000 OA
ATOM      4  C   UNL     1       6.645   3.869  16.040  0.00  0.00    +0.000 C 
ATOM      5  C   UNL     1       6.172   4.103  17.278  0.00  0.00    +0.000 C 
ATOM      6  C   UNL     1       5.615   5.437  17.766  0.00  0.00    +0.000 C 
ATOM      7  C   UNL     1       5.957   6.601  16.764  0.00  0.00    +0.000 C 
ATOM      8  C   UNL     1       7.352   7.173  17.007  0.00  0.00    +0.000 C 
ATOM      9  O   UNL     1       5.756   6.263  15.388  0.00  0.00    +0.000 OA
BRANCH   2  11
ATOM     10  C   UNL     1       6.019   3.537  12.714  0.00  0.00    +0.000 C 
ATOM     11  O   UNL     1       5.563   4.447  13.693  0.00  0.00    +0.000 OA
ENDBRANCH   2  11
ENDBRANCH   1   6
BRANCH   1  12
ATOM     12  S   UNL     1       3.444   3.711  17.727  0.00  0.00    +0.000 S 
ATOM     13  O   UNL     1       2.442   3.829  16.703  0.00  0.00    +0.000 OA
ATOM     14  O   UNL     1       4.584   2.829  17.572  0.00  0.00    +0.000 OA
BRANCH  12  15
ATOM     15  C   UNL     1       2.548   3.202  19.163  0.00  0.00    +0.000 A 
ATOM     16  C   UNL     1       1.154   3.317  19.205  0.00  0.00    +0.000 A 
ATOM     17  C   UNL     1       0.482   3.146  20.419  0.00  0.00    +0.000 A 
ATOM     18  C   UNL     1       1.188   2.810  21.576  0.00  0.00    +0.000 A 
ATOM     19  C   UNL     1       2.569   2.619  21.524  0.00  0.00    +0.000 A 
ATOM     20  C   UNL     1       3.240   2.819  20.312  0.00  0.00    +0.000 A 
BRANCH  20  21
ATOM     21  N   UNL     1       4.672   2.594  20.296  0.00  0.00    +0.000 N 
ATOM     22  O   UNL     1       5.058   1.437  20.131  0.00  0.00    +0.000 OA
ATOM     23  O   UNL     1       5.391   3.574  20.519  0.00  0.00    +0.000 OA
ENDBRANCH  20  21
ENDBRANCH  12  15
ENDBRANCH   1  12
BRANCH   1  24
ATOM     24  C   UNL     1       3.298   6.405  17.496  0.00  0.00    +0.000 C 
BRANCH  24  25
ATOM     25  C   UNL     1       2.521   7.353  18.386  0.00  0.00    +0.000 A 
ATOM     26  C   UNL     1       2.013   8.568  17.902  0.00  0.00    +0.000 A 
ATOM     27  C   UNL     1       1.299   9.422  18.750  0.00  0.00    +0.000 A 
ATOM     28  C   UNL     1       1.083   9.075  20.084  0.00  0.00    +0.000 A 
ATOM     29  C   UNL     1       1.583   7.873  20.576  0.00  0.00    +0.000 A 
ATOM     30  C   UNL     1       2.292   7.015  19.733  0.00  0.00    +0.000 A 
ENDBRANCH  24  25
ENDBRANCH   1  24
TORSDOF 7
ENDMDL
MODEL 6
REMARK VINA RESULT:      -8.1      3.283      6.005
REMARK  Name = 
REMARK  9 active torsions:
REMARK  status: ('A' for Active; 'I' for Inactive)
REMARK    1  A    between atoms: C_1  and  O_2
REMARK    2  A    between atoms: O_2  and  P_3
REMARK    3  A    between atoms: C_7  and  N_8
REMARK    4  A    between atoms: N_8  and  C_9
REMARK    5  A    between atoms: N_8  and  S_16
REMARK    6  A    between atoms: C_9  and  C_10
REMARK    7  A    between atoms: S_16  and  C_19
REMARK    8  A    between atoms: C_24  and  N_25
REMARK    9  A    between atoms: C_28  and  C_29
REMARK                            x       y       z     vdW  Elec       q    Type
REMARK                         _______ _______ _______ _____ _____    ______ ____
ROOT
ATOM      1  N   UNL     1       2.883   7.016  18.714  0.00  0.00    +0.000 NA
ENDROOT
BRANCH   1   6
ATOM      2  P   UNL     1       2.996   2.795  18.520  0.00  0.00    +0.000 P 
ATOM      3  O   UNL     1       2.482   1.509  19.097  0.00  0.00    +0.000 OA
ATOM      4  C   UNL     1       2.068   3.771  17.412  0.00  0.00    +0.000 C 
ATOM      5  C   UNL     1       1.694   5.039  17.666  0.00  0.00    +0.000 C 
ATOM      6  C   UNL     1       1.960   5.787  18.969  0.00  0.00    +0.000 C 
ATOM      7  C   UNL     1       2.429   4.807  20.106  0.00  0.00    +0.000 C 
ATOM      8  C   UNL     1       1.249   4.140  20.810  0.00  0.00    +0.000 C 
ATOM      9  O   UNL     1       3.403   3.847  19.683  0.00  0.00    +0.000 OA
BRANCH   2  11
ATOM     10  C   UNL     1       4.678   3.352  16.600  0.00  0.00    +0.000 C 
ATOM     11  O   UNL     1       4.420   2.610  17.774  0.00  0.00    +0.000 OA
ENDBRANCH   2  11
ENDBRANCH   1   6
BRANCH   1  12
ATOM     12  S   UNL     1       1.977   8.484  18.322  0.00  0.00    +0.000 S 
ATOM     13  O   UNL     1       2.864   9.553  17.953  0.00  0.00    +0.000 OA
ATOM     14  O   UNL     1       0.897   8.063  17.452  0.00  0.00    +0.000 OA
BRANCH  12  15
ATOM     15  C   UNL     1       1.274   9.006  19.857  0.00  0.00    +0.000 A 
ATOM     16  C   UNL     1       1.553   8.308  21.037  0.00  0.00    +0.000 A 
ATOM     17  C   UNL     1       0.809   8.573  22.190  0.00  0.00    +0.000 A 
ATOM     18  C   UNL     1      -0.173   9.566  22.185  0.00  0.00    +0.000 A 
ATOM     19  C   UNL     1      -0.402  10.318  21.032  0.00  0.00    +0.000 A 
ATOM     20  C   UNL     1       0.327  10.029  19.873  0.00  0.00    +0.000 A 
BRANCH  20  21
ATOM     21  N   UNL     1       0.070  10.844  18.702  0.00  0.00    +0.000 N 
ATOM     22  O   UNL     1      -0.843  10.486  17.957  0.00  0.00    +0.000 OA
ATOM     23  O   UNL     1       0.833  11.796  18.508  0.00  0.00    +0.000 OA
ENDBRANCH  20  21
ENDBRANCH  12  15
ENDBRANCH   1  12
BRANCH   1  24
ATOM     24  C   UNL     1       3.887   6.699  17.615  0.00  0.00    +0.000 C 
BRANCH  24  25
ATOM     25  C   UNL     1       5.354   6.600  17.979  0.00  0.00    +0.000 A 
ATOM     26  C   UNL     1       5.808   5.730  18.980  0.00  0.00    +0.000 A 
ATOM     27  C   UNL     1       7.171   5.662  19.292  0.00  0.00    +0.000 A 
ATOM     28  C   UNL     1       8.092   6.458  18.611  0.00  0.00    +0.000 A 
ATOM     29  C   UNL     1       7.654   7.327  17.616  0.00  0.00    +0.000 A 
ATOM     30  C   UNL     1       6.296   7.394  17.297  0.00  0.00    +0.000 A 
ENDBRANCH  24  25
ENDBRANCH   1  24
TORSDOF 7
ENDMDL
MODEL 7
REMARK VINA RESULT:      -7.9      7.567     10.979
REMARK  Name = 
REMARK  9 active torsions:
REMARK  status: ('A' for Active; 'I' for Inactive)
REMARK    1  A    between atoms: C_1  and  O_2
REMARK    2  A    between atoms: O_2  and  P_3
REMARK    3  A    between atoms: C_7  and  N_8
REMARK    4  A    between atoms: N_8  and  C_9
REMARK    5  A    between atoms: N_8  and  S_16
REMARK    6  A    between atoms: C_9  and  C_10
REMARK    7  A    between atoms: S_16  and  C_19
REMARK    8  A    between atoms: C_24  and  N_25
REMARK    9  A    between atoms: C_28  and  C_29
REMARK                            x       y       z     vdW  Elec       q    Type
REMARK                         _______ _______ _______ _____ _____    ______ ____
ROOT
ATOM      1  N   UNL     1      -1.624  12.245  21.091  0.00  0.00    +0.000 NA
ENDROOT
BRANCH   1   6
ATOM      2  P   UNL     1      -5.613  13.005  22.264  0.00  0.00    +0.000 P 
ATOM      3  O   UNL     1      -6.511  13.604  23.306  0.00  0.00    +0.000 OA
ATOM      4  C   UNL     1      -4.776  13.966  21.074  0.00  0.00    +0.000 C 
ATOM      5  C   UNL     1      -3.436  14.013  20.961  0.00  0.00    +0.000 C 
ATOM      6  C   UNL     1      -2.452  13.300  21.884  0.00  0.00    +0.000 C 
ATOM      7  C   UNL     1      -3.167  12.770  23.182  0.00  0.00    +0.000 C 
ATOM      8  C   UNL     1      -3.283  13.852  24.253  0.00  0.00    +0.000 C 
ATOM      9  O   UNL     1      -4.424  12.133  22.935  0.00  0.00    +0.000 OA
BRANCH   2  11
ATOM     10  C   UNL     1      -7.075  12.254  20.233  0.00  0.00    +0.000 C 
ATOM     11  O   UNL     1      -6.360  11.867  21.389  0.00  0.00    +0.000 OA
ENDBRANCH   2  11
ENDBRANCH   1   6
BRANCH   1  12
ATOM     12  S   UNL     1       0.038  12.097  21.676  0.00  0.00    +0.000 S 
ATOM     13  O   UNL     1       0.661  13.388  21.790  0.00  0.00    +0.000 OA
ATOM     14  O   UNL     1      -0.017  11.183  22.800  0.00  0.00    +0.000 OA
BRANCH  12  15
ATOM     15  C   UNL     1       0.912  11.301  20.362  0.00  0.00    +0.000 A 
ATOM     16  C   UNL     1       1.519  12.059  19.355  0.00  0.00    +0.000 A 
ATOM     17  C   UNL     1       1.991  11.426  18.202  0.00  0.00    +0.000 A 
ATOM     18  C   UNL     1       1.908  10.037  18.074  0.00  0.00    +0.000 A 
ATOM     19  C   UNL     1       1.373   9.269  19.109  0.00  0.00    +0.000 A 
ATOM     20  C   UNL     1       0.877   9.912  20.249  0.00  0.00    +0.000 A 
BRANCH  20  21
ATOM     21  N   UNL     1       0.345   9.077  21.308  0.00  0.00    +0.000 N 
ATOM     22  O   UNL     1       1.124   8.726  22.193  0.00  0.00    +0.000 OA
ATOM     23  O   UNL     1      -0.836   8.727  21.200  0.00  0.00    +0.000 OA
ENDBRANCH  20  21
ENDBRANCH  12  15
ENDBRANCH   1  12
BRANCH   1  24
ATOM     24  C   UNL     1      -1.639  12.578  19.606  0.00  0.00    +0.000 C 
BRANCH  24  25
ATOM     25  C   UNL     1      -2.349  11.633  18.658  0.00  0.00    +0.000 A 
ATOM     26  C   UNL     1      -3.748  11.577  18.584  0.00  0.00    +0.000 A 
ATOM     27  C   UNL     1      -4.374  10.693  17.697  0.00  0.00    +0.000 A 
ATOM     28  C   UNL     1      -3.614   9.859  16.877  0.00  0.00    +0.000 A 
ATOM     29  C   UNL     1      -2.224   9.904  16.942  0.00  0.00    +0.000 A 
ATOM     30  C   UNL     1      -1.596  10.789  17.821  0.00  0.00    +0.000 A 
ENDBRANCH  24  25
ENDBRANCH   1  24
TORSDOF 7
ENDMDL
MODEL 8
REMARK VINA RESULT:      -7.8      8.572     11.223
REMARK  Name = 
REMARK  9 active torsions:
REMARK  status: ('A' for Active; 'I' for Inactive)
REMARK    1  A    between atoms: C_1  and  O_2
REMARK    2  A    between atoms: O_2  and  P_3
REMARK    3  A    between atoms: C_7  and  N_8
REMARK    4  A    between atoms: N_8  and  C_9
REMARK    5  A    between atoms: N_8  and  S_16
REMARK    6  A    between atoms: C_9  and  C_10
REMARK    7  A    between atoms: S_16  and  C_19
REMARK    8  A    between atoms: C_24  and  N_25
REMARK    9  A    between atoms: C_28  and  C_29
REMARK                            x       y       z     vdW  Elec       q    Type
REMARK                         _______ _______ _______ _____ _____    ______ ____
ROOT
ATOM      1  N   UNL     1      -2.086  13.108  21.189  0.00  0.00    +0.000 NA
ENDROOT
BRANCH   1   6
ATOM      2  P   UNL     1       1.647  14.649  19.944  0.00  0.00    +0.000 P 
ATOM      3  O   UNL     1       2.392  15.849  19.436  0.00  0.00    +0.000 OA
ATOM      4  C   UNL     1       1.218  14.445  21.622  0.00  0.00    +0.000 C 
ATOM      5  C   UNL     1      -0.049  14.340  22.060  0.00  0.00    +0.000 C 
ATOM      6  C   UNL     1      -1.293  14.449  21.183  0.00  0.00    +0.000 C 
ATOM      7  C   UNL     1      -0.942  15.027  19.763  0.00  0.00    +0.000 C 
ATOM      8  C   UNL     1      -0.891  16.553  19.762  0.00  0.00    +0.000 C 
ATOM      9  O   UNL     1       0.234  14.459  19.177  0.00  0.00    +0.000 OA
BRANCH   2  11
ATOM     10  C   UNL     1       2.370  12.827  18.216  0.00  0.00    +0.000 C 
ATOM     11  O   UNL     1       2.385  13.260  19.561  0.00  0.00    +0.000 OA
ENDBRANCH   2  11
ENDBRANCH   1   6
BRANCH   1  12
ATOM     12  S   UNL     1      -3.414  13.103  22.358  0.00  0.00    +0.000 S 
ATOM     13  O   UNL     1      -3.296  11.994  23.266  0.00  0.00    +0.000 OA
ATOM     14  O   UNL     1      -3.525  14.466  22.839  0.00  0.00    +0.000 OA
BRANCH  12  15
ATOM     15  C   UNL     1      -4.856  12.738  21.403  0.00  0.00    +0.000 A 
ATOM     16  C   UNL     1      -4.749  12.468  20.034  0.00  0.00    +0.000 A 
ATOM     17  C   UNL     1      -5.902  12.424  19.246  0.00  0.00    +0.000 A 
ATOM     18  C   UNL     1      -7.161  12.595  19.825  0.00  0.00    +0.000 A 
ATOM     19  C   UNL     1      -7.278  12.789  21.201  0.00  0.00    +0.000 A 
ATOM     20  C   UNL     1      -6.119  12.859  21.981  0.00  0.00    +0.000 A 
BRANCH  20  21
ATOM     21  N   UNL     1      -6.285  13.045  23.409  0.00  0.00    +0.000 N 
ATOM     22  O   UNL     1      -6.261  12.036  24.115  0.00  0.00    +0.000 OA
ATOM     23  O   UNL     1      -6.507  14.197  23.799  0.00  0.00    +0.000 OA
ENDBRANCH  20  21
ENDBRANCH  12  15
ENDBRANCH   1  12
BRANCH   1  24
ATOM     24  C   UNL     1      -1.142  11.943  21.449  0.00  0.00    +0.000 C 
BRANCH  24  25
ATOM     25  C   UNL     1      -0.648  11.133  20.268  0.00  0.00    +0.000 A 
ATOM     26  C   UNL     1      -1.333  11.121  19.044  0.00  0.00    +0.000 A 
ATOM     27  C   UNL     1      -0.851  10.362  17.972  0.00  0.00    +0.000 A 
ATOM     28  C   UNL     1       0.317   9.611  18.107  0.00  0.00    +0.000 A 
ATOM     29  C   UNL     1       1.005   9.613  19.317  0.00  0.00    +0.000 A 
ATOM     30  C   UNL     1       0.531  10.373  20.388  0.00  0.00    +0.000 A 
ENDBRANCH  24  25
ENDBRANCH   1  24
TORSDOF 7
ENDMDL
MODEL 9
REMARK VINA RESULT:      -7.8      8.365     10.833
REMARK  Name = 
REMARK  9 active torsions:
REMARK  status: ('A' for Active; 'I' for Inactive)
REMARK    1  A    between atoms: C_1  and  O_2
REMARK    2  A    between atoms: O_2  and  P_3
REMARK    3  A    between atoms: C_7  and  N_8
REMARK    4  A    between atoms: N_8  and  C_9
REMARK    5  A    between atoms: N_8  and  S_16
REMARK    6  A    between atoms: C_9  and  C_10
REMARK    7  A    between atoms: S_16  and  C_19
REMARK    8  A    between atoms: C_24  and  N_25
REMARK    9  A    between atoms: C_28  and  C_29
REMARK                            x       y       z     vdW  Elec       q    Type
REMARK                         _______ _______ _______ _____ _____    ______ ____
ROOT
ATOM      1  N   UNL     1      -1.404  13.562  20.827  0.00  0.00    +0.000 NA
ENDROOT
BRANCH   1   6
ATOM      2  P   UNL     1       2.107  15.378  19.330  0.00  0.00    +0.000 P 
ATOM      3  O   UNL     1       2.692  16.574  18.639  0.00  0.00    +0.000 OA
ATOM      4  C   UNL     1       1.689  15.376  21.023  0.00  0.00    +0.000 C 
ATOM      5  C   UNL     1       0.441  15.171  21.483  0.00  0.00    +0.000 C 
ATOM      6  C   UNL     1      -0.796  14.980  20.610  0.00  0.00    +0.000 C 
ATOM      7  C   UNL     1      -0.508  15.377  19.115  0.00  0.00    +0.000 C 
ATOM      8  C   UNL     1      -0.659  16.878  18.882  0.00  0.00    +0.000 C 
ATOM      9  O   UNL     1       0.740  14.887  18.612  0.00  0.00    +0.000 OA
BRANCH   2  11
ATOM     10  C   UNL     1       2.594  13.033  18.284  0.00  0.00    +0.000 C 
ATOM     11  O   UNL     1       3.026  14.057  19.156  0.00  0.00    +0.000 OA
ENDBRANCH   2  11
ENDBRANCH   1   6
BRANCH   1  12
ATOM     12  S   UNL     1      -3.147  13.602  21.121  0.00  0.00    +0.000 S 
ATOM     13  O   UNL     1      -3.470  12.997  22.385  0.00  0.00    +0.000 OA
ATOM     14  O   UNL     1      -3.574  14.949  20.796  0.00  0.00    +0.000 OA
BRANCH  12  15
ATOM     15  C   UNL     1      -3.835  12.502  19.920  0.00  0.00    +0.000 A 
ATOM     16  C   UNL     1      -3.023  11.939  18.930  0.00  0.00    +0.000 A 
ATOM     17  C   UNL     1      -3.610  11.275  17.849  0.00  0.00    +0.000 A 
ATOM     18  C   UNL     1      -4.997  11.125  17.780  0.00  0.00    +0.000 A 
ATOM     19  C   UNL     1      -5.806  11.619  18.804  0.00  0.00    +0.000 A 
ATOM     20  C   UNL     1      -5.215  12.307  19.869  0.00  0.00    +0.000 A 
BRANCH  20  21
ATOM     21  N   UNL     1      -6.089  12.789  20.920  0.00  0.00    +0.000 N 
ATOM     22  O   UNL     1      -6.547  13.925  20.794  0.00  0.00    +0.000 OA
ATOM     23  O   UNL     1      -6.251  12.047  21.895  0.00  0.00    +0.000 OA
ENDBRANCH  20  21
ENDBRANCH  12  15
ENDBRANCH   1  12
BRANCH   1  24
ATOM     24  C   UNL     1      -0.686  12.853  21.966  0.00  0.00    +0.000 C 
BRANCH  24  25
ATOM     25  C   UNL     1      -0.426  11.366  21.846  0.00  0.00    +0.000 A 
ATOM     26  C   UNL     1      -0.726  10.479  22.891  0.00  0.00    +0.000 A 
ATOM     27  C   UNL     1      -0.473   9.110  22.748  0.00  0.00    +0.000 A 
ATOM     28  C   UNL     1       0.078   8.612  21.568  0.00  0.00    +0.000 A 
ATOM     29  C   UNL     1       0.381   9.482  20.525  0.00  0.00    +0.000 A 
ATOM     30  C   UNL     1       0.126  10.848  20.660  0.00  0.00    +0.000 A 
ENDBRANCH  24  25
ENDBRANCH   1  24
TORSDOF 7
ENDMDL
