MODEL 1
REMARK VINA RESULT:      -8.2      0.000      0.000
REMARK  Name = 
REMARK  7 active torsions:
REMARK  status: ('A' for Active; 'I' for Inactive)
REMARK    1  A    between atoms: C_1  and  C_2
REMARK    2  A    between atoms: C_2  and  C_3
REMARK    3  A    between atoms: C_6  and  N_7
REMARK    4  A    between atoms: C_8  and  C_10
REMARK    5  A    between atoms: N_14  and  S_15
REMARK    6  A    between atoms: S_15  and  C_18
REMARK    7  A    between atoms: C_23  and  C_24
REMARK                            x       y       z     vdW  Elec       q    Type
REMARK                         _______ _______ _______ _____ _____    ______ ____
ROOT
ATOM      1  S   UNL     1       0.460  12.018  19.591  0.00  0.00    +0.000 S 
ATOM      2  O   UNL     1      -0.932  11.994  19.974  0.00  0.00    +0.000 OA
ATOM      3  O   UNL     1       0.879  12.410  18.263  0.00  0.00    +0.000 OA
ENDROOT
BRANCH   1   4
ATOM      4  C   UNL     1       1.087  10.377  19.921  0.00  0.00    +0.000 A 
ATOM      5  C   UNL     1       0.920   9.879  21.221  0.00  0.00    +0.000 A 
ATOM      6  C   UNL     1       1.257   8.561  21.531  0.00  0.00    +0.000 A 
ATOM      7  C   UNL     1       1.713   7.768  20.479  0.00  0.00    +0.000 A 
ATOM      8  N   UNL     1       2.051   6.443  20.428  0.00  0.00    +0.000 N 
ATOM      9  C   UNL     1       2.285   6.079  19.121  0.00  0.00    +0.000 A 
ATOM     10  N   UNL     1       2.265   7.166  18.358  0.00  0.00    +0.000 NA
ATOM     11  C   UNL     1       1.874   8.216  19.175  0.00  0.00    +0.000 A 
ATOM     12  C   UNL     1       1.586   9.566  18.880  0.00  0.00    +0.000 A 
ATOM     13  H   UNL     1       2.022   5.814  21.212  0.00  0.00    +0.000 HD
BRANCH   9  14
ATOM     14  C   UNL     1       2.448   4.668  18.705  0.00  0.00    +0.000 A 
ATOM     15  C   UNL     1       1.506   3.681  19.065  0.00  0.00    +0.000 A 
ATOM     16  C   UNL     1       1.618   2.364  18.599  0.00  0.00    +0.000 A 
ATOM     17  C   UNL     1       2.675   2.005  17.772  0.00  0.00    +0.000 A 
ATOM     18  C   UNL     1       3.628   2.959  17.420  0.00  0.00    +0.000 A 
ATOM     19  C   UNL     1       3.517   4.278  17.885  0.00  0.00    +0.000 A 
ENDBRANCH   9  14
ENDBRANCH   1   4
BRANCH   1  24
ATOM     20  C   UNL     1       0.451  13.795  21.683  0.00  0.00    +0.000 C 
ATOM     21  C   UNL     1       0.153  15.079  20.919  0.00  0.00    +0.000 C 
ATOM     22  C   UNL     1       1.501  15.402  20.303  0.00  0.00    +0.000 C 
ATOM     23  C   UNL     1       2.177  14.049  20.068  0.00  0.00    +0.000 C 
ATOM     24  N   UNL     1       1.309  13.009  20.725  0.00  0.00    +0.000 NA
BRANCH  20  26
ATOM     25  N   UNL     1      -1.969  13.759  21.877  0.00  0.00    +0.000 N 
ATOM     26  C   UNL     1      -0.785  13.191  22.333  0.00  0.00    +0.000 C 
ATOM     27  O   UNL     1      -0.696  12.213  23.073  0.00  0.00    +0.000 OA
ATOM     28  H   UNL     1      -1.886  14.512  21.207  0.00  0.00    +0.000 HD
BRANCH  25  32
ATOM     29  C   UNL     1      -5.950  12.898  23.040  0.00  0.00    +0.000 A 
ATOM     30  C   UNL     1      -5.037  13.372  23.982  0.00  0.00    +0.000 A 
ATOM     31  C   UNL     1      -3.714  13.637  23.623  0.00  0.00    +0.000 A 
ATOM     32  C   UNL     1      -3.277  13.443  22.311  0.00  0.00    +0.000 A 
ATOM     33  C   UNL     1      -4.187  12.952  21.366  0.00  0.00    +0.000 A 
ATOM     34  C   UNL     1      -5.512  12.677  21.728  0.00  0.00    +0.000 A 
BRANCH  29  36
ATOM     35  C   UNL     1      -7.886  13.812  24.331  0.00  0.00    +0.000 C 
ATOM     36  C   UNL     1      -7.393  12.694  23.425  0.00  0.00    +0.000 C 
ENDBRANCH  29  36
ENDBRANCH  25  32
ENDBRANCH  20  26
ENDBRANCH   1  24
TORSDOF 6
ENDMDL
MODEL 2
REMARK VINA RESULT:      -8.1      4.039     11.583
REMARK  Name = 
REMARK  7 active torsions:
REMARK  status: ('A' for Active; 'I' for Inactive)
REMARK    1  A    between atoms: C_1  and  C_2
REMARK    2  A    between atoms: C_2  and  C_3
REMARK    3  A    between atoms: C_6  and  N_7
REMARK    4  A    between atoms: C_8  and  C_10
REMARK    5  A    between atoms: N_14  and  S_15
REMARK    6  A    between atoms: S_15  and  C_18
REMARK    7  A    between atoms: C_23  and  C_24
REMARK                            x       y       z     vdW  Elec       q    Type
REMARK                         _______ _______ _______ _____ _____    ______ ____
ROOT
ATOM      1  S   UNL     1       2.025   4.620  19.318  0.00  0.00    +0.000 S 
ATOM      2  O   UNL     1       2.544   4.358  17.996  0.00  0.00    +0.000 OA
ATOM      3  O   UNL     1       0.766   4.065  19.767  0.00  0.00    +0.000 OA
ENDROOT
BRANCH   1   4
ATOM      4  C   UNL     1       1.946   6.399  19.470  0.00  0.00    +0.000 A 
ATOM      5  C   UNL     1       2.165   7.149  18.307  0.00  0.00    +0.000 A 
ATOM      6  C   UNL     1       1.990   8.533  18.304  0.00  0.00    +0.000 A 
ATOM      7  C   UNL     1       1.545   9.109  19.494  0.00  0.00    +0.000 A 
ATOM      8  N   UNL     1       1.210  10.400  19.802  0.00  0.00    +0.000 N 
ATOM      9  C   UNL     1       0.665  10.444  21.066  0.00  0.00    +0.000 A 
ATOM     10  N   UNL     1       0.792   9.249  21.634  0.00  0.00    +0.000 NA
ATOM     11  C   UNL     1       1.298   8.401  20.662  0.00  0.00    +0.000 A 
ATOM     12  C   UNL     1       1.532   7.009  20.672  0.00  0.00    +0.000 A 
ATOM     13  H   UNL     1       1.255  11.172  19.159  0.00  0.00    +0.000 HD
BRANCH   9  14
ATOM     14  C   UNL     1      -0.003  11.650  21.603  0.00  0.00    +0.000 A 
ATOM     15  C   UNL     1      -0.999  11.557  22.599  0.00  0.00    +0.000 A 
ATOM     16  C   UNL     1      -1.570  12.704  23.167  0.00  0.00    +0.000 A 
ATOM     17  C   UNL     1      -1.164  13.965  22.745  0.00  0.00    +0.000 A 
ATOM     18  C   UNL     1      -0.197  14.079  21.748  0.00  0.00    +0.000 A 
ATOM     19  C   UNL     1       0.376  12.932  21.180  0.00  0.00    +0.000 A 
ENDBRANCH   9  14
ENDBRANCH   1   4
BRANCH   1  24
ATOM     20  C   UNL     1       4.567   3.757  19.890  0.00  0.00    +0.000 C 
ATOM     21  C   UNL     1       4.390   2.266  19.627  0.00  0.00    +0.000 C 
ATOM     22  C   UNL     1       3.667   1.807  20.879  0.00  0.00    +0.000 C 
ATOM     23  C   UNL     1       2.831   3.007  21.331  0.00  0.00    +0.000 C 
ATOM     24  N   UNL     1       3.238   4.171  20.466  0.00  0.00    +0.000 NA
BRANCH  20  26
ATOM     25  N   UNL     1       5.250   3.728  17.559  0.00  0.00    +0.000 N 
ATOM     26  C   UNL     1       5.199   4.495  18.719  0.00  0.00    +0.000 C 
ATOM     27  O   UNL     1       5.488   5.686  18.805  0.00  0.00    +0.000 OA
ATOM     28  H   UNL     1       4.904   2.780  17.624  0.00  0.00    +0.000 HD
BRANCH  25  32
ATOM     29  C   UNL     1       6.885   4.723  13.781  0.00  0.00    +0.000 A 
ATOM     30  C   UNL     1       7.582   5.043  14.947  0.00  0.00    +0.000 A 
ATOM     31  C   UNL     1       7.046   4.746  16.202  0.00  0.00    +0.000 A 
ATOM     32  C   UNL     1       5.807   4.113  16.319  0.00  0.00    +0.000 A 
ATOM     33  C   UNL     1       5.099   3.804  15.151  0.00  0.00    +0.000 A 
ATOM     34  C   UNL     1       5.631   4.110  13.892  0.00  0.00    +0.000 A 
BRANCH  29  36
ATOM     35  C   UNL     1       8.623   6.013  12.529  0.00  0.00    +0.000 C 
ATOM     36  C   UNL     1       7.513   4.977  12.434  0.00  0.00    +0.000 C 
ENDBRANCH  29  36
ENDBRANCH  25  32
ENDBRANCH  20  26
ENDBRANCH   1  24
TORSDOF 6
ENDMDL
MODEL 3
REMARK VINA RESULT:      -7.9      0.709      1.159
REMARK  Name = 
REMARK  7 active torsions:
REMARK  status: ('A' for Active; 'I' for Inactive)
REMARK    1  A    between atoms: C_1  and  C_2
REMARK    2  A    between atoms: C_2  and  C_3
REMARK    3  A    between atoms: C_6  and  N_7
REMARK    4  A    between atoms: C_8  and  C_10
REMARK    5  A    between atoms: N_14  and  S_15
REMARK    6  A    between atoms: S_15  and  C_18
REMARK    7  A    between atoms: C_23  and  C_24
REMARK                            x       y       z     vdW  Elec       q    Type
REMARK                         _______ _______ _______ _____ _____    ______ ____
ROOT
ATOM      1  S   UNL     1       0.412  12.059  19.728  0.00  0.00    +0.000 S 
ATOM      2  O   UNL     1      -0.960  12.091  20.178  0.00  0.00    +0.000 OA
ATOM      3  O   UNL     1       0.775  12.371  18.363  0.00  0.00    +0.000 OA
ENDROOT
BRANCH   1   4
ATOM      4  C   UNL     1       1.015  10.421  20.115  0.00  0.00    +0.000 A 
ATOM      5  C   UNL     1       0.754   9.932  21.402  0.00  0.00    +0.000 A 
ATOM      6  C   UNL     1       1.068   8.616  21.745  0.00  0.00    +0.000 A 
ATOM      7  C   UNL     1       1.603   7.817  20.734  0.00  0.00    +0.000 A 
ATOM      8  N   UNL     1       1.945   6.493  20.717  0.00  0.00    +0.000 N 
ATOM      9  C   UNL     1       2.275   6.120  19.433  0.00  0.00    +0.000 A 
ATOM     10  N   UNL     1       2.311   7.203  18.664  0.00  0.00    +0.000 NA
ATOM     11  C   UNL     1       1.859   8.257  19.443  0.00  0.00    +0.000 A 
ATOM     12  C   UNL     1       1.591   9.604  19.119  0.00  0.00    +0.000 A 
ATOM     13  H   UNL     1       1.859   5.869  21.502  0.00  0.00    +0.000 HD
BRANCH   9  14
ATOM     14  C   UNL     1       2.471   4.707  19.040  0.00  0.00    +0.000 A 
ATOM     15  C   UNL     1       2.214   4.268  17.723  0.00  0.00    +0.000 A 
ATOM     16  C   UNL     1       2.480   2.949  17.331  0.00  0.00    +0.000 A 
ATOM     17  C   UNL     1       3.000   2.042  18.247  0.00  0.00    +0.000 A 
ATOM     18  C   UNL     1       3.242   2.449  19.557  0.00  0.00    +0.000 A 
ATOM     19  C   UNL     1       2.977   3.769  19.951  0.00  0.00    +0.000 A 
ENDBRANCH   9  14
ENDBRANCH   1   4
BRANCH   1  24
ATOM     20  C   UNL     1       0.546  14.017  21.647  0.00  0.00    +0.000 C 
ATOM     21  C   UNL     1       0.341  15.244  20.767  0.00  0.00    +0.000 C 
ATOM     22  C   UNL     1       1.705  15.407  20.126  0.00  0.00    +0.000 C 
ATOM     23  C   UNL     1       2.278  13.992  20.018  0.00  0.00    +0.000 C 
ATOM     24  N   UNL     1       1.338  13.084  20.768  0.00  0.00    +0.000 NA
BRANCH  20  26
ATOM     25  N   UNL     1      -1.869  14.182  21.842  0.00  0.00    +0.000 N 
ATOM     26  C   UNL     1      -0.727  13.569  22.349  0.00  0.00    +0.000 C 
ATOM     27  O   UNL     1      -0.708  12.658  23.173  0.00  0.00    +0.000 OA
ATOM     28  H   UNL     1      -1.733  14.864  21.108  0.00  0.00    +0.000 HD
BRANCH  25  32
ATOM     29  C   UNL     1      -5.780  13.672  23.385  0.00  0.00    +0.000 A 
ATOM     30  C   UNL     1      -5.307  12.815  22.391  0.00  0.00    +0.000 A 
ATOM     31  C   UNL     1      -4.029  12.984  21.853  0.00  0.00    +0.000 A 
ATOM     32  C   UNL     1      -3.193  14.007  22.303  0.00  0.00    +0.000 A 
ATOM     33  C   UNL     1      -3.672  14.879  23.290  0.00  0.00    +0.000 A 
ATOM     34  C   UNL     1      -4.956  14.716  23.824  0.00  0.00    +0.000 A 
BRANCH  29  36
ATOM     35  C   UNL     1      -7.847  12.265  23.341  0.00  0.00    +0.000 C 
ATOM     36  C   UNL     1      -7.129  13.427  24.012  0.00  0.00    +0.000 C 
ENDBRANCH  29  36
ENDBRANCH  25  32
ENDBRANCH  20  26
ENDBRANCH   1  24
TORSDOF 6
ENDMDL
MODEL 4
REMARK VINA RESULT:      -7.9      3.966     11.627
REMARK  Name = 
REMARK  7 active torsions:
REMARK  status: ('A' for Active; 'I' for Inactive)
REMARK    1  A    between atoms: C_1  and  C_2
REMARK    2  A    between atoms: C_2  and  C_3
REMARK    3  A    between atoms: C_6  and  N_7
REMARK    4  A    between atoms: C_8  and  C_10
REMARK    5  A    between atoms: N_14  and  S_15
REMARK    6  A    between atoms: S_15  and  C_18
REMARK    7  A    between atoms: C_23  and  C_24
REMARK                            x       y       z     vdW  Elec       q    Type
REMARK                         _______ _______ _______ _____ _____    ______ ____
ROOT
ATOM      1  S   UNL     1       2.007   4.848  19.355  0.00  0.00    +0.000 S 
ATOM      2  O   UNL     1       2.584   4.660  18.045  0.00  0.00    +0.000 OA
ATOM      3  O   UNL     1       0.749   4.238  19.729  0.00  0.00    +0.000 OA
ENDROOT
BRANCH   1   4
ATOM      4  C   UNL     1       1.870   6.616  19.581  0.00  0.00    +0.000 A 
ATOM      5  C   UNL     1       2.079   7.421  18.453  0.00  0.00    +0.000 A 
ATOM      6  C   UNL     1       1.860   8.798  18.507  0.00  0.00    +0.000 A 
ATOM      7  C   UNL     1       1.381   9.309  19.713  0.00  0.00    +0.000 A 
ATOM      8  N   UNL     1       1.001  10.574  20.070  0.00  0.00    +0.000 N 
ATOM      9  C   UNL     1       0.439  10.547  21.327  0.00  0.00    +0.000 A 
ATOM     10  N   UNL     1       0.596   9.334  21.846  0.00  0.00    +0.000 NA
ATOM     11  C   UNL     1       1.142   8.544  20.846  0.00  0.00    +0.000 A 
ATOM     12  C   UNL     1       1.420   7.161  20.802  0.00  0.00    +0.000 A 
ATOM     13  H   UNL     1       1.030  11.374  19.461  0.00  0.00    +0.000 HD
BRANCH   9  14
ATOM     14  C   UNL     1      -0.275  11.707  21.905  0.00  0.00    +0.000 A 
ATOM     15  C   UNL     1       0.033  13.029  21.515  0.00  0.00    +0.000 A 
ATOM     16  C   UNL     1      -0.701  14.120  22.000  0.00  0.00    +0.000 A 
ATOM     17  C   UNL     1      -1.750  13.914  22.889  0.00  0.00    +0.000 A 
ATOM     18  C   UNL     1      -2.057  12.619  23.303  0.00  0.00    +0.000 A 
ATOM     19  C   UNL     1      -1.324  11.526  22.817  0.00  0.00    +0.000 A 
ENDBRANCH   9  14
ENDBRANCH   1   4
BRANCH   1  24
ATOM     20  C   UNL     1       4.498   3.881  19.982  0.00  0.00    +0.000 C 
ATOM     21  C   UNL     1       4.248   2.392  19.775  0.00  0.00    +0.000 C 
ATOM     22  C   UNL     1       3.494   2.018  21.036  0.00  0.00    +0.000 C 
ATOM     23  C   UNL     1       2.716   3.275  21.435  0.00  0.00    +0.000 C 
ATOM     24  N   UNL     1       3.187   4.383  20.530  0.00  0.00    +0.000 NA
BRANCH  20  26
ATOM     25  N   UNL     1       5.228   3.716  17.672  0.00  0.00    +0.000 N 
ATOM     26  C   UNL     1       5.174   4.541  18.790  0.00  0.00    +0.000 C 
ATOM     27  O   UNL     1       5.496   5.727  18.823  0.00  0.00    +0.000 OA
ATOM     28  H   UNL     1       4.854   2.781  17.776  0.00  0.00    +0.000 HD
BRANCH  25  32
ATOM     29  C   UNL     1       7.050   4.790  14.002  0.00  0.00    +0.000 A 
ATOM     30  C   UNL     1       5.793   4.183  14.004  0.00  0.00    +0.000 A 
ATOM     31  C   UNL     1       5.188   3.799  15.203  0.00  0.00    +0.000 A 
ATOM     32  C   UNL     1       5.822   4.022  16.427  0.00  0.00    +0.000 A 
ATOM     33  C   UNL     1       7.090   4.616  16.426  0.00  0.00    +0.000 A 
ATOM     34  C   UNL     1       7.701   4.994  15.224  0.00  0.00    +0.000 A 
BRANCH  29  36
ATOM     35  C   UNL     1       7.293   4.345  11.553  0.00  0.00    +0.000 C 
ATOM     36  C   UNL     1       7.652   5.271  12.707  0.00  0.00    +0.000 C 
ENDBRANCH  29  36
ENDBRANCH  25  32
ENDBRANCH  20  26
ENDBRANCH   1  24
TORSDOF 6
ENDMDL
MODEL 5
REMARK VINA RESULT:      -7.8      3.922      8.616
REMARK  Name = 
REMARK  7 active torsions:
REMARK  status: ('A' for Active; 'I' for Inactive)
REMARK    1  A    between atoms: C_1  and  C_2
REMARK    2  A    between atoms: C_2  and  C_3
REMARK    3  A    between atoms: C_6  and  N_7
REMARK    4  A    between atoms: C_8  and  C_10
REMARK    5  A    between atoms: N_14  and  S_15
REMARK    6  A    between atoms: S_15  and  C_18
REMARK    7  A    between atoms: C_23  and  C_24
REMARK                            x       y       z     vdW  Elec       q    Type
REMARK                         _______ _______ _______ _____ _____    ______ ____
ROOT
ATOM      1  S   UNL     1       0.307  14.862  19.010  0.00  0.00    +0.000 S 
ATOM      2  O   UNL     1       0.242  13.562  18.383  0.00  0.00    +0.000 OA
ATOM      3  O   UNL     1      -0.418  15.999  18.486  0.00  0.00    +0.000 OA
ENDROOT
BRANCH   1   4
ATOM      4  C   UNL     1       2.043  15.282  19.086  0.00  0.00    +0.000 A 
ATOM      5  C   UNL     1       2.467  16.050  20.178  0.00  0.00    +0.000 A 
ATOM      6  C   UNL     1       3.821  16.310  20.388  0.00  0.00    +0.000 A 
ATOM      7  C   UNL     1       4.716  15.728  19.490  0.00  0.00    +0.000 A 
ATOM      8  N   UNL     1       6.084  15.722  19.455  0.00  0.00    +0.000 N 
ATOM      9  C   UNL     1       6.514  14.868  18.464  0.00  0.00    +0.000 A 
ATOM     10  N   UNL     1       5.464  14.454  17.763  0.00  0.00    +0.000 NA
ATOM     11  C   UNL     1       4.340  14.945  18.407  0.00  0.00    +0.000 A 
ATOM     12  C   UNL     1       2.965  14.734  18.169  0.00  0.00    +0.000 A 
ATOM     13  H   UNL     1       6.676  16.186  20.123  0.00  0.00    +0.000 HD
BRANCH   9  14
ATOM     14  C   UNL     1       7.931  14.467  18.319  0.00  0.00    +0.000 A 
ATOM     15  C   UNL     1       8.289  13.218  17.768  0.00  0.00    +0.000 A 
ATOM     16  C   UNL     1       9.631  12.875  17.553  0.00  0.00    +0.000 A 
ATOM     17  C   UNL     1      10.641  13.768  17.892  0.00  0.00    +0.000 A 
ATOM     18  C   UNL     1      10.310  14.998  18.458  0.00  0.00    +0.000 A 
ATOM     19  C   UNL     1       8.967  15.343  18.671  0.00  0.00    +0.000 A 
ENDBRANCH   9  14
ENDBRANCH   1   4
BRANCH   1  24
ATOM     20  C   UNL     1      -0.218  13.257  21.174  0.00  0.00    +0.000 C 
ATOM     21  C   UNL     1      -1.647  12.847  20.840  0.00  0.00    +0.000 C 
ATOM     22  C   UNL     1      -2.432  14.084  21.231  0.00  0.00    +0.000 C 
ATOM     23  C   UNL     1      -1.484  15.262  20.993  0.00  0.00    +0.000 C 
ATOM     24  N   UNL     1      -0.134  14.675  20.671  0.00  0.00    +0.000 NA
BRANCH  20  26
ATOM     25  N   UNL     1       0.258  11.155  20.055  0.00  0.00    +0.000 N 
ATOM     26  C   UNL     1       0.809  12.205  20.782  0.00  0.00    +0.000 C 
ATOM     27  O   UNL     1       2.007  12.383  20.990  0.00  0.00    +0.000 OA
ATOM     28  H   UNL     1      -0.741  11.183  19.899  0.00  0.00    +0.000 HD
BRANCH  25  32
ATOM     29  C   UNL     1       2.389   7.725  18.778  0.00  0.00    +0.000 A 
ATOM     30  C   UNL     1       2.225   8.805  17.910  0.00  0.00    +0.000 A 
ATOM     31  C   UNL     1       1.504   9.934  18.305  0.00  0.00    +0.000 A 
ATOM     32  C   UNL     1       0.939  10.012  19.580  0.00  0.00    +0.000 A 
ATOM     33  C   UNL     1       1.088   8.922  20.447  0.00  0.00    +0.000 A 
ATOM     34  C   UNL     1       1.804   7.786  20.049  0.00  0.00    +0.000 A 
BRANCH  29  36
ATOM     35  C   UNL     1       4.148   6.907  17.199  0.00  0.00    +0.000 C 
ATOM     36  C   UNL     1       3.238   6.549  18.366  0.00  0.00    +0.000 C 
ENDBRANCH  29  36
ENDBRANCH  25  32
ENDBRANCH  20  26
ENDBRANCH   1  24
TORSDOF 6
ENDMDL
MODEL 6
REMARK VINA RESULT:      -7.7      1.180      1.391
REMARK  Name = 
REMARK  7 active torsions:
REMARK  status: ('A' for Active; 'I' for Inactive)
REMARK    1  A    between atoms: C_1  and  C_2
REMARK    2  A    between atoms: C_2  and  C_3
REMARK    3  A    between atoms: C_6  and  N_7
REMARK    4  A    between atoms: C_8  and  C_10
REMARK    5  A    between atoms: N_14  and  S_15
REMARK    6  A    between atoms: S_15  and  C_18
REMARK    7  A    between atoms: C_23  and  C_24
REMARK                            x       y       z     vdW  Elec       q    Type
REMARK                         _______ _______ _______ _____ _____    ______ ____
ROOT
ATOM      1  S   UNL     1      -0.284  11.993  19.929  0.00  0.00    +0.000 S 
ATOM      2  O   UNL     1      -1.527  11.816  20.643  0.00  0.00    +0.000 OA
ATOM      3  O   UNL     1      -0.254  12.347  18.527  0.00  0.00    +0.000 OA
ENDROOT
BRANCH   1   4
ATOM      4  C   UNL     1       0.627  10.471  20.149  0.00  0.00    +0.000 A 
ATOM      5  C   UNL     1       0.628   9.907  21.432  0.00  0.00    +0.000 A 
ATOM      6  C   UNL     1       1.198   8.655  21.663  0.00  0.00    +0.000 A 
ATOM      7  C   UNL     1       1.714   7.988  20.552  0.00  0.00    +0.000 A 
ATOM      8  N   UNL     1       2.263   6.741  20.422  0.00  0.00    +0.000 N 
ATOM      9  C   UNL     1       2.472   6.468  19.089  0.00  0.00    +0.000 A 
ATOM     10  N   UNL     1       2.224   7.563  18.378  0.00  0.00    +0.000 NA
ATOM     11  C   UNL     1       1.716   8.502  19.262  0.00  0.00    +0.000 A 
ATOM     12  C   UNL     1       1.188   9.793  19.046  0.00  0.00    +0.000 A 
ATOM     13  H   UNL     1       2.390   6.090  21.178  0.00  0.00    +0.000 HD
BRANCH   9  14
ATOM     14  C   UNL     1       2.842   5.121  18.601  0.00  0.00    +0.000 A 
ATOM     15  C   UNL     1       2.315   3.953  19.193  0.00  0.00    +0.000 A 
ATOM     16  C   UNL     1       2.599   2.682  18.676  0.00  0.00    +0.000 A 
ATOM     17  C   UNL     1       3.422   2.552  17.563  0.00  0.00    +0.000 A 
ATOM     18  C   UNL     1       3.970   3.691  16.975  0.00  0.00    +0.000 A 
ATOM     19  C   UNL     1       3.684   4.963  17.491  0.00  0.00    +0.000 A 
ENDBRANCH   9  14
ENDBRANCH   1   4
BRANCH   1  24
ATOM     20  C   UNL     1       0.165  14.578  20.735  0.00  0.00    +0.000 C 
ATOM     21  C   UNL     1       0.800  15.129  19.463  0.00  0.00    +0.000 C 
ATOM     22  C   UNL     1       2.209  14.578  19.547  0.00  0.00    +0.000 C 
ATOM     23  C   UNL     1       2.083  13.245  20.290  0.00  0.00    +0.000 C 
ATOM     24  N   UNL     1       0.664  13.157  20.787  0.00  0.00    +0.000 NA
BRANCH  20  26
ATOM     25  N   UNL     1      -1.899  14.384  22.000  0.00  0.00    +0.000 N 
ATOM     26  C   UNL     1      -1.314  14.913  20.854  0.00  0.00    +0.000 C 
ATOM     27  O   UNL     1      -1.851  15.688  20.066  0.00  0.00    +0.000 OA
ATOM     28  H   UNL     1      -1.306  13.822  22.596  0.00  0.00    +0.000 HD
BRANCH  25  32
ATOM     29  C   UNL     1      -6.013  14.605  22.983  0.00  0.00    +0.000 A 
ATOM     30  C   UNL     1      -5.209  15.741  23.090  0.00  0.00    +0.000 A 
ATOM     31  C   UNL     1      -3.846  15.681  22.794  0.00  0.00    +0.000 A 
ATOM     32  C   UNL     1      -3.257  14.486  22.376  0.00  0.00    +0.000 A 
ATOM     33  C   UNL     1      -4.058  13.340  22.283  0.00  0.00    +0.000 A 
ATOM     34  C   UNL     1      -5.424  13.398  22.587  0.00  0.00    +0.000 A 
BRANCH  29  36
ATOM     35  C   UNL     1      -7.917  13.871  24.429  0.00  0.00    +0.000 C 
ATOM     36  C   UNL     1      -7.497  14.706  23.227  0.00  0.00    +0.000 C 
ENDBRANCH  29  36
ENDBRANCH  25  32
ENDBRANCH  20  26
ENDBRANCH   1  24
TORSDOF 6
ENDMDL
MODEL 7
REMARK VINA RESULT:      -7.7      4.753      8.393
REMARK  Name = 
REMARK  7 active torsions:
REMARK  status: ('A' for Active; 'I' for Inactive)
REMARK    1  A    between atoms: C_1  and  C_2
REMARK    2  A    between atoms: C_2  and  C_3
REMARK    3  A    between atoms: C_6  and  N_7
REMARK    4  A    between atoms: C_8  and  C_10
REMARK    5  A    between atoms: N_14  and  S_15
REMARK    6  A    between atoms: S_15  and  C_18
REMARK    7  A    between atoms: C_23  and  C_24
REMARK                            x       y       z     vdW  Elec       q    Type
REMARK                         _______ _______ _______ _____ _____    ______ ____
ROOT
ATOM      1  S   UNL     1       2.293  15.778  18.714  0.00  0.00    +0.000 S 
ATOM      2  O   UNL     1       1.919  14.525  18.101  0.00  0.00    +0.000 OA
ATOM      3  O   UNL     1       2.107  17.043  18.038  0.00  0.00    +0.000 OA
ENDROOT
BRANCH   1   4
ATOM      4  C   UNL     1       4.020  15.615  19.145  0.00  0.00    +0.000 A 
ATOM      5  C   UNL     1       4.379  15.910  20.468  0.00  0.00    +0.000 A 
ATOM      6  C   UNL     1       5.676  15.681  20.925  0.00  0.00    +0.000 A 
ATOM      7  C   UNL     1       6.567  15.105  20.019  0.00  0.00    +0.000 A 
ATOM      8  N   UNL     1       7.863  14.692  20.166  0.00  0.00    +0.000 N 
ATOM      9  C   UNL     1       8.267  14.032  19.027  0.00  0.00    +0.000 A 
ATOM     10  N   UNL     1       7.323  14.153  18.099  0.00  0.00    +0.000 NA
ATOM     11  C   UNL     1       6.247  14.780  18.708  0.00  0.00    +0.000 A 
ATOM     12  C   UNL     1       4.949  15.067  18.235  0.00  0.00    +0.000 A 
ATOM     13  H   UNL     1       8.395  14.766  21.016  0.00  0.00    +0.000 HD
BRANCH   9  14
ATOM     14  C   UNL     1       9.532  13.270  18.955  0.00  0.00    +0.000 A 
ATOM     15  C   UNL     1      10.345  13.083  20.094  0.00  0.00    +0.000 A 
ATOM     16  C   UNL     1      11.499  12.290  20.042  0.00  0.00    +0.000 A 
ATOM     17  C   UNL     1      11.869  11.675  18.852  0.00  0.00    +0.000 A 
ATOM     18  C   UNL     1      11.093  11.863  17.710  0.00  0.00    +0.000 A 
ATOM     19  C   UNL     1       9.936  12.656  17.761  0.00  0.00    +0.000 A 
ENDBRANCH   9  14
ENDBRANCH   1   4
BRANCH   1  24
ATOM     20  C   UNL     1       0.839  14.614  20.731  0.00  0.00    +0.000 C 
ATOM     21  C   UNL     1      -0.551  14.686  20.110  0.00  0.00    +0.000 C 
ATOM     22  C   UNL     1      -0.919  16.141  20.323  0.00  0.00    +0.000 C 
ATOM     23  C   UNL     1       0.405  16.909  20.281  0.00  0.00    +0.000 C 
ATOM     24  N   UNL     1       1.503  15.879  20.249  0.00  0.00    +0.000 NA
BRANCH  20  26
ATOM     25  N   UNL     1       0.815  12.429  19.671  0.00  0.00    +0.000 N 
ATOM     26  C   UNL     1       1.494  13.251  20.565  0.00  0.00    +0.000 C 
ATOM     27  O   UNL     1       2.581  13.006  21.082  0.00  0.00    +0.000 OA
ATOM     28  H   UNL     1      -0.034  12.800  19.265  0.00  0.00    +0.000 HD
BRANCH  25  32
ATOM     29  C   UNL     1       1.883   8.422  18.811  0.00  0.00    +0.000 A 
ATOM     30  C   UNL     1       2.146   9.427  17.880  0.00  0.00    +0.000 A 
ATOM     31  C   UNL     1       1.779  10.750  18.136  0.00  0.00    +0.000 A 
ATOM     32  C   UNL     1       1.148  11.099  19.332  0.00  0.00    +0.000 A 
ATOM     33  C   UNL     1       0.867  10.088  20.261  0.00  0.00    +0.000 A 
ATOM     34  C   UNL     1       1.228   8.760  20.002  0.00  0.00    +0.000 A 
BRANCH  29  36
ATOM     35  C   UNL     1       2.355   6.189  19.835  0.00  0.00    +0.000 C 
ATOM     36  C   UNL     1       2.358   7.014  18.556  0.00  0.00    +0.000 C 
ENDBRANCH  29  36
ENDBRANCH  25  32
ENDBRANCH  20  26
ENDBRANCH   1  24
TORSDOF 6
ENDMDL
MODEL 8
REMARK VINA RESULT:      -7.6      0.999      1.333
REMARK  Name = 
REMARK  7 active torsions:
REMARK  status: ('A' for Active; 'I' for Inactive)
REMARK    1  A    between atoms: C_1  and  C_2
REMARK    2  A    between atoms: C_2  and  C_3
REMARK    3  A    between atoms: C_6  and  N_7
REMARK    4  A    between atoms: C_8  and  C_10
REMARK    5  A    between atoms: N_14  and  S_15
REMARK    6  A    between atoms: S_15  and  C_18
REMARK    7  A    between atoms: C_23  and  C_24
REMARK                            x       y       z     vdW  Elec       q    Type
REMARK                         _______ _______ _______ _____ _____    ______ ____
ROOT
ATOM      1  S   UNL     1      -0.138  12.080  19.975  0.00  0.00    +0.000 S 
ATOM      2  O   UNL     1      -1.267  12.039  20.875  0.00  0.00    +0.000 OA
ATOM      3  O   UNL     1      -0.299  12.344  18.561  0.00  0.00    +0.000 OA
ENDROOT
BRANCH   1   4
ATOM      4  C   UNL     1       0.699  10.512  20.167  0.00  0.00    +0.000 A 
ATOM      5  C   UNL     1       0.650   9.913  21.433  0.00  0.00    +0.000 A 
ATOM      6  C   UNL     1       1.158   8.631  21.638  0.00  0.00    +0.000 A 
ATOM      7  C   UNL     1       1.664   7.972  20.518  0.00  0.00    +0.000 A 
ATOM      8  N   UNL     1       2.159   6.706  20.362  0.00  0.00    +0.000 N 
ATOM      9  C   UNL     1       2.381   6.460  19.026  0.00  0.00    +0.000 A 
ATOM     10  N   UNL     1       2.196   7.585  18.342  0.00  0.00    +0.000 NA
ATOM     11  C   UNL     1       1.714   8.521  19.244  0.00  0.00    +0.000 A 
ATOM     12  C   UNL     1       1.250   9.840  19.055  0.00  0.00    +0.000 A 
ATOM     13  H   UNL     1       2.241   6.028  21.101  0.00  0.00    +0.000 HD
BRANCH   9  14
ATOM     14  C   UNL     1       2.698   5.112  18.506  0.00  0.00    +0.000 A 
ATOM     15  C   UNL     1       3.632   4.926  17.464  0.00  0.00    +0.000 A 
ATOM     16  C   UNL     1       3.994   3.643  17.031  0.00  0.00    +0.000 A 
ATOM     17  C   UNL     1       3.425   2.522  17.623  0.00  0.00    +0.000 A 
ATOM     18  C   UNL     1       2.485   2.683  18.640  0.00  0.00    +0.000 A 
ATOM     19  C   UNL     1       2.124   3.967  19.075  0.00  0.00    +0.000 A 
ENDBRANCH   9  14
ENDBRANCH   1   4
BRANCH   1  24
ATOM     20  C   UNL     1       0.413  14.426  21.290  0.00  0.00    +0.000 C 
ATOM     21  C   UNL     1       0.181  15.411  20.150  0.00  0.00    +0.000 C 
ATOM     22  C   UNL     1       1.451  15.260  19.336  0.00  0.00    +0.000 C 
ATOM     23  C   UNL     1       1.893  13.807  19.534  0.00  0.00    +0.000 C 
ATOM     24  N   UNL     1       1.001  13.223  20.597  0.00  0.00    +0.000 NA
BRANCH  20  26
ATOM     25  N   UNL     1      -1.977  14.694  21.629  0.00  0.00    +0.000 N 
ATOM     26  C   UNL     1      -0.781  14.309  22.225  0.00  0.00    +0.000 C 
ATOM     27  O   UNL     1      -0.666  13.792  23.334  0.00  0.00    +0.000 OA
ATOM     28  H   UNL     1      -1.924  15.033  20.677  0.00  0.00    +0.000 HD
BRANCH  25  32
ATOM     29  C   UNL     1      -5.863  14.819  23.308  0.00  0.00    +0.000 A 
ATOM     30  C   UNL     1      -4.864  15.659  23.803  0.00  0.00    +0.000 A 
ATOM     31  C   UNL     1      -3.570  15.613  23.278  0.00  0.00    +0.000 A 
ATOM     32  C   UNL     1      -3.249  14.735  22.242  0.00  0.00    +0.000 A 
ATOM     33  C   UNL     1      -4.247  13.880  21.754  0.00  0.00    +0.000 A 
ATOM     34  C   UNL     1      -5.542  13.919  22.285  0.00  0.00    +0.000 A 
BRANCH  29  36
ATOM     35  C   UNL     1      -7.801  13.590  24.303  0.00  0.00    +0.000 C 
ATOM     36  C   UNL     1      -7.273  14.937  23.830  0.00  0.00    +0.000 C 
ENDBRANCH  29  36
ENDBRANCH  25  32
ENDBRANCH  20  26
ENDBRANCH   1  24
TORSDOF 6
ENDMDL
MODEL 9
REMARK VINA RESULT:      -7.6      2.922      4.672
REMARK  Name = 
REMARK  7 active torsions:
REMARK  status: ('A' for Active; 'I' for Inactive)
REMARK    1  A    between atoms: C_1  and  C_2
REMARK    2  A    between atoms: C_2  and  C_3
REMARK    3  A    between atoms: C_6  and  N_7
REMARK    4  A    between atoms: C_8  and  C_10
REMARK    5  A    between atoms: N_14  and  S_15
REMARK    6  A    between atoms: S_15  and  C_18
REMARK    7  A    between atoms: C_23  and  C_24
REMARK                            x       y       z     vdW  Elec       q    Type
REMARK                         _______ _______ _______ _____ _____    ______ ____
ROOT
ATOM      1  S   UNL     1      -0.106  14.309  21.669  0.00  0.00    +0.000 S 
ATOM      2  O   UNL     1      -0.715  15.247  20.754  0.00  0.00    +0.000 OA
ATOM      3  O   UNL     1       1.056  14.658  22.457  0.00  0.00    +0.000 OA
ENDROOT
BRANCH   1   4
ATOM      4  C   UNL     1       0.284  12.860  20.697  0.00  0.00    +0.000 A 
ATOM      5  C   UNL     1       0.811  13.074  19.416  0.00  0.00    +0.000 A 
ATOM      6  C   UNL     1       1.267  12.006  18.642  0.00  0.00    +0.000 A 
ATOM      7  C   UNL     1       1.215  10.742  19.229  0.00  0.00    +0.000 A 
ATOM      8  N   UNL     1       1.641   9.521  18.782  0.00  0.00    +0.000 N 
ATOM      9  C   UNL     1       1.521   8.594  19.793  0.00  0.00    +0.000 A 
ATOM     10  N   UNL     1       0.881   9.150  20.817  0.00  0.00    +0.000 NA
ATOM     11  C   UNL     1       0.719  10.490  20.501  0.00  0.00    +0.000 A 
ATOM     12  C   UNL     1       0.206  11.567  21.255  0.00  0.00    +0.000 A 
ATOM     13  H   UNL     1       2.076   9.357  17.890  0.00  0.00    +0.000 HD
BRANCH   9  14
ATOM     14  C   UNL     1       2.105   7.238  19.703  0.00  0.00    +0.000 A 
ATOM     15  C   UNL     1       1.833   6.253  20.678  0.00  0.00    +0.000 A 
ATOM     16  C   UNL     1       2.319   4.945  20.546  0.00  0.00    +0.000 A 
ATOM     17  C   UNL     1       3.092   4.597  19.444  0.00  0.00    +0.000 A 
ATOM     18  C   UNL     1       3.390   5.559  18.481  0.00  0.00    +0.000 A 
ATOM     19  C   UNL     1       2.902   6.868  18.611  0.00  0.00    +0.000 A 
ENDBRANCH   9  14
ENDBRANCH   1   4
BRANCH   1  24
ATOM     20  C   UNL     1      -2.753  13.990  22.319  0.00  0.00    +0.000 C 
ATOM     21  C   UNL     1      -3.051  15.389  22.847  0.00  0.00    +0.000 C 
ATOM     22  C   UNL     1      -2.431  15.345  24.230  0.00  0.00    +0.000 C 
ATOM     23  C   UNL     1      -1.247  14.382  24.117  0.00  0.00    +0.000 C 
ATOM     24  N   UNL     1      -1.330  13.749  22.753  0.00  0.00    +0.000 NA
BRANCH  20  26
ATOM     25  N   UNL     1      -3.055  12.480  20.442  0.00  0.00    +0.000 N 
ATOM     26  C   UNL     1      -3.197  13.793  20.878  0.00  0.00    +0.000 C 
ATOM     27  O   UNL     1      -3.743  14.701  20.255  0.00  0.00    +0.000 OA
ATOM     28  H   UNL     1      -2.654  11.822  21.098  0.00  0.00    +0.000 HD
BRANCH  25  32
ATOM     29  C   UNL     1      -3.791  11.099  16.506  0.00  0.00    +0.000 A 
ATOM     30  C   UNL     1      -4.858  11.479  17.321  0.00  0.00    +0.000 A 
ATOM     31  C   UNL     1      -4.636  11.913  18.630  0.00  0.00    +0.000 A 
ATOM     32  C   UNL     1      -3.342  11.985  19.150  0.00  0.00    +0.000 A 
ATOM     33  C   UNL     1      -2.271  11.589  18.339  0.00  0.00    +0.000 A 
ATOM     34  C   UNL     1      -2.492  11.146  17.030  0.00  0.00    +0.000 A 
BRANCH  29  36
ATOM     35  C   UNL     1      -2.845   9.971  14.484  0.00  0.00    +0.000 C 
ATOM     36  C   UNL     1      -4.039  10.711  15.071  0.00  0.00    +0.000 C 
ENDBRANCH  29  36
ENDBRANCH  25  32
ENDBRANCH  20  26
ENDBRANCH   1  24
TORSDOF 6
ENDMDL
