MODEL 1
REMARK VINA RESULT:      -6.9      0.000      0.000
REMARK  Name = 
REMARK  12 active torsions:
REMARK  status: ('A' for Active; 'I' for Inactive)
REMARK    1  A    between atoms: C_1  and  N_2
REMARK    2  A    between atoms: N_2  and  C_3
REMARK    3  A    between atoms: N_2  and  C_4
REMARK    4  A    between atoms: C_4  and  C_5
REMARK    5  A    between atoms: C_5  and  N_6
REMARK    6  A    between atoms: N_6  and  C_7
REMARK    7  A    between atoms: N_6  and  C_8
REMARK    8  A    between atoms: N_11  and  C_12
REMARK    9  A    between atoms: C_14  and  C_15
REMARK   10  A    between atoms: C_14  and  C_16
REMARK   11  A    between atoms: C_18  and  C_19
REMARK   12  A    between atoms: C_18  and  C_20
REMARK                            x       y       z     vdW  Elec       q    Type
REMARK                         _______ _______ _______ _____ _____    ______ ____
ROOT
ATOM      1  C   UNL     1       1.796   8.718  18.835  0.00  0.00    +0.000 A 
ATOM      2  C   UNL     1       2.863   8.196  17.966  0.00  0.00    +0.000 A 
ATOM      3  N   UNL     1       3.538   7.118  18.150  0.00  0.00    +0.000 NA
ATOM      4  N   UNL     1       3.316   6.364  19.265  0.00  0.00    +0.000 N 
ATOM      5  C   UNL     1       2.350   6.714  20.216  0.00  0.00    +0.000 A 
ATOM      6  O   UNL     1       2.160   6.074  21.245  0.00  0.00    +0.000 OA
ATOM      7  C   UNL     1       1.548   7.943  19.899  0.00  0.00    +0.000 A 
ATOM      8 CL   UNL     1       0.292   8.360  21.022  0.00  0.00    +0.000 Cl
ENDROOT
BRANCH   4   9
ATOM      9  C   UNL     1       4.171   5.163  19.422  0.00  0.00    +0.000 C 
ATOM     10  C   UNL     1       3.421   3.826  19.255  0.00  0.00    +0.000 C 
ATOM     11  C   UNL     1       2.857   3.579  17.841  0.00  0.00    +0.000 C 
ATOM     12  C   UNL     1       1.424   4.187  17.734  0.00  0.00    +0.000 C 
ATOM     13  C   UNL     1       2.593   2.057  17.650  0.00  0.00    +0.000 C 
ATOM     14  C   UNL     1       3.873   4.033  16.711  0.00  0.00    +0.000 C 
ATOM     15  C   UNL     1       5.094   5.005  16.993  0.00  0.00    +0.000 C 
ATOM     16  C   UNL     1       4.980   6.413  16.333  0.00  0.00    +0.000 C 
ATOM     17  C   UNL     1       6.344   4.409  16.280  0.00  0.00    +0.000 C 
ATOM     18  C   UNL     1       5.405   5.152  18.500  0.00  0.00    +0.000 C 
ENDBRANCH   4   9
BRANCH   1  19
ATOM     19  N   UNL     1       1.170   9.897  18.412  0.00  0.00    +0.000 N 
ATOM     20  C   UNL     1       1.982  11.102  18.233  0.00  0.00    +0.000 C 
BRANCH  19  21
ATOM     21  C   UNL     1      -0.145   9.841  17.737  0.00  0.00    +0.000 C 
BRANCH  21  22
ATOM     22  C   UNL     1      -1.336  10.469  18.514  0.00  0.00    +0.000 C 
BRANCH  22  24
ATOM     23  C   UNL     1      -3.556  11.412  18.179  0.00  0.00    +0.000 C 
ATOM     24  N   UNL     1      -2.688  10.252  17.957  0.00  0.00    +0.000 NA
ATOM     25  C   UNL     1      -2.597   9.986  16.515  0.00  0.00    +0.000 C 
ENDBRANCH  22  24
ENDBRANCH  21  22
ENDBRANCH  19  21
ENDBRANCH   1  19
TORSDOF 5
ENDMDL
MODEL 2
REMARK VINA RESULT:      -6.7      1.182      1.782
REMARK  Name = 
REMARK  12 active torsions:
REMARK  status: ('A' for Active; 'I' for Inactive)
REMARK    1  A    between atoms: C_1  and  N_2
REMARK    2  A    between atoms: N_2  and  C_3
REMARK    3  A    between atoms: N_2  and  C_4
REMARK    4  A    between atoms: C_4  and  C_5
REMARK    5  A    between atoms: C_5  and  N_6
REMARK    6  A    between atoms: N_6  and  C_7
REMARK    7  A    between atoms: N_6  and  C_8
REMARK    8  A    between atoms: N_11  and  C_12
REMARK    9  A    between atoms: C_14  and  C_15
REMARK   10  A    between atoms: C_14  and  C_16
REMARK   11  A    between atoms: C_18  and  C_19
REMARK   12  A    between atoms: C_18  and  C_20
REMARK                            x       y       z     vdW  Elec       q    Type
REMARK                         _______ _______ _______ _____ _____    ______ ____
ROOT
ATOM      1  C   UNL     1       1.737   8.723  18.716  0.00  0.00    +0.000 A 
ATOM      2  C   UNL     1       2.819   8.202  17.866  0.00  0.00    +0.000 A 
ATOM      3  N   UNL     1       3.512   7.141  18.077  0.00  0.00    +0.000 NA
ATOM      4  N   UNL     1       3.296   6.407  19.207  0.00  0.00    +0.000 N 
ATOM      5  C   UNL     1       2.318   6.760  20.144  0.00  0.00    +0.000 A 
ATOM      6  O   UNL     1       2.132   6.138  21.185  0.00  0.00    +0.000 OA
ATOM      7  C   UNL     1       1.496   7.967  19.795  0.00  0.00    +0.000 A 
ATOM      8 CL   UNL     1       0.225   8.385  20.901  0.00  0.00    +0.000 Cl
ENDROOT
BRANCH   4   9
ATOM      9  C   UNL     1       4.172   5.226  19.395  0.00  0.00    +0.000 C 
ATOM     10  C   UNL     1       3.443   3.872  19.271  0.00  0.00    +0.000 C 
ATOM     11  C   UNL     1       2.877   3.574  17.868  0.00  0.00    +0.000 C 
ATOM     12  C   UNL     1       1.434   4.155  17.750  0.00  0.00    +0.000 C 
ATOM     13  C   UNL     1       2.637   2.043  17.723  0.00  0.00    +0.000 C 
ATOM     14  C   UNL     1       3.880   4.011  16.720  0.00  0.00    +0.000 C 
ATOM     15  C   UNL     1       5.087   5.010  16.967  0.00  0.00    +0.000 C 
ATOM     16  C   UNL     1       4.946   6.397  16.266  0.00  0.00    +0.000 C 
ATOM     17  C   UNL     1       6.343   4.415  16.266  0.00  0.00    +0.000 C 
ATOM     18  C   UNL     1       5.401   5.207  18.468  0.00  0.00    +0.000 C 
ENDBRANCH   4   9
BRANCH   1  19
ATOM     19  N   UNL     1       1.092   9.882  18.264  0.00  0.00    +0.000 N 
ATOM     20  C   UNL     1      -0.294   9.783  17.803  0.00  0.00    +0.000 C 
BRANCH  19  21
ATOM     21  C   UNL     1       1.601  11.216  18.650  0.00  0.00    +0.000 C 
BRANCH  21  22
ATOM     22  C   UNL     1       1.074  11.782  19.997  0.00  0.00    +0.000 C 
BRANCH  22  24
ATOM     23  C   UNL     1      -0.039  13.410  18.569  0.00  0.00    +0.000 C 
ATOM     24  N   UNL     1       0.063  12.858  19.922  0.00  0.00    +0.000 NA
ATOM     25  C   UNL     1      -1.249  12.339  20.332  0.00  0.00    +0.000 C 
ENDBRANCH  22  24
ENDBRANCH  21  22
ENDBRANCH  19  21
ENDBRANCH   1  19
TORSDOF 5
ENDMDL
MODEL 3
REMARK VINA RESULT:      -6.6      1.253      2.311
REMARK  Name = 
REMARK  12 active torsions:
REMARK  status: ('A' for Active; 'I' for Inactive)
REMARK    1  A    between atoms: C_1  and  N_2
REMARK    2  A    between atoms: N_2  and  C_3
REMARK    3  A    between atoms: N_2  and  C_4
REMARK    4  A    between atoms: C_4  and  C_5
REMARK    5  A    between atoms: C_5  and  N_6
REMARK    6  A    between atoms: N_6  and  C_7
REMARK    7  A    between atoms: N_6  and  C_8
REMARK    8  A    between atoms: N_11  and  C_12
REMARK    9  A    between atoms: C_14  and  C_15
REMARK   10  A    between atoms: C_14  and  C_16
REMARK   11  A    between atoms: C_18  and  C_19
REMARK   12  A    between atoms: C_18  and  C_20
REMARK                            x       y       z     vdW  Elec       q    Type
REMARK                         _______ _______ _______ _____ _____    ______ ____
ROOT
ATOM      1  C   UNL     1       1.718   8.714  18.892  0.00  0.00    +0.000 A 
ATOM      2  C   UNL     1       2.794   8.243  18.006  0.00  0.00    +0.000 A 
ATOM      3  N   UNL     1       3.495   7.176  18.156  0.00  0.00    +0.000 NA
ATOM      4  N   UNL     1       3.294   6.385  19.249  0.00  0.00    +0.000 N 
ATOM      5  C   UNL     1       2.323   6.684  20.212  0.00  0.00    +0.000 A 
ATOM      6  O   UNL     1       2.151   6.009  21.222  0.00  0.00    +0.000 OA
ATOM      7  C   UNL     1       1.491   7.902  19.934  0.00  0.00    +0.000 A 
ATOM      8 CL   UNL     1       0.230   8.256  21.071  0.00  0.00    +0.000 Cl
ENDROOT
BRANCH   4   9
ATOM      9  C   UNL     1       4.177   5.200  19.368  0.00  0.00    +0.000 C 
ATOM     10  C   UNL     1       3.452   3.850  19.197  0.00  0.00    +0.000 C 
ATOM     11  C   UNL     1       2.861   3.611  17.792  0.00  0.00    +0.000 C 
ATOM     12  C   UNL     1       1.414   4.191  17.727  0.00  0.00    +0.000 C 
ATOM     13  C   UNL     1       2.625   2.088  17.584  0.00  0.00    +0.000 C 
ATOM     14  C   UNL     1       3.841   4.104  16.648  0.00  0.00    +0.000 C 
ATOM     15  C   UNL     1       5.048   5.097  16.917  0.00  0.00    +0.000 C 
ATOM     16  C   UNL     1       4.889   6.513  16.281  0.00  0.00    +0.000 C 
ATOM     17  C   UNL     1       6.294   4.540  16.167  0.00  0.00    +0.000 C 
ATOM     18  C   UNL     1       5.389   5.228  18.419  0.00  0.00    +0.000 C 
ENDBRANCH   4   9
BRANCH   1  19
ATOM     19  N   UNL     1       1.063   9.890  18.506  0.00  0.00    +0.000 N 
ATOM     20  C   UNL     1      -0.227   9.786  17.821  0.00  0.00    +0.000 C 
BRANCH  19  21
ATOM     21  C   UNL     1       1.406  11.178  19.146  0.00  0.00    +0.000 C 
BRANCH  21  22
ATOM     22  C   UNL     1       2.282  12.145  18.303  0.00  0.00    +0.000 C 
BRANCH  22  24
ATOM     23  C   UNL     1       0.396  13.659  18.593  0.00  0.00    +0.000 C 
ATOM     24  N   UNL     1       1.778  13.524  18.126  0.00  0.00    +0.000 NA
ATOM     25  C   UNL     1       2.632  14.464  18.864  0.00  0.00    +0.000 C 
ENDBRANCH  22  24
ENDBRANCH  21  22
ENDBRANCH  19  21
ENDBRANCH   1  19
TORSDOF 5
ENDMDL
MODEL 4
REMARK VINA RESULT:      -6.2      3.797      6.486
REMARK  Name = 
REMARK  12 active torsions:
REMARK  status: ('A' for Active; 'I' for Inactive)
REMARK    1  A    between atoms: C_1  and  N_2
REMARK    2  A    between atoms: N_2  and  C_3
REMARK    3  A    between atoms: N_2  and  C_4
REMARK    4  A    between atoms: C_4  and  C_5
REMARK    5  A    between atoms: C_5  and  N_6
REMARK    6  A    between atoms: N_6  and  C_7
REMARK    7  A    between atoms: N_6  and  C_8
REMARK    8  A    between atoms: N_11  and  C_12
REMARK    9  A    between atoms: C_14  and  C_15
REMARK   10  A    between atoms: C_14  and  C_16
REMARK   11  A    between atoms: C_18  and  C_19
REMARK   12  A    between atoms: C_18  and  C_20
REMARK                            x       y       z     vdW  Elec       q    Type
REMARK                         _______ _______ _______ _____ _____    ______ ____
ROOT
ATOM      1  C   UNL     1       2.287   3.895  18.832  0.00  0.00    +0.000 A 
ATOM      2  C   UNL     1       3.126   3.628  17.653  0.00  0.00    +0.000 A 
ATOM      3  N   UNL     1       3.851   4.480  17.022  0.00  0.00    +0.000 NA
ATOM      4  N   UNL     1       3.850   5.787  17.413  0.00  0.00    +0.000 N 
ATOM      5  C   UNL     1       3.098   6.234  18.506  0.00  0.00    +0.000 A 
ATOM      6  O   UNL     1       3.052   7.410  18.851  0.00  0.00    +0.000 OA
ATOM      7  C   UNL     1       2.336   5.170  19.242  0.00  0.00    +0.000 A 
ATOM      8 CL   UNL     1       1.453   5.681  20.646  0.00  0.00    +0.000 Cl
ENDROOT
BRANCH   4   9
ATOM      9  C   UNL     1       4.677   6.711  16.600  0.00  0.00    +0.000 C 
ATOM     10  C   UNL     1       5.833   7.375  17.376  0.00  0.00    +0.000 C 
ATOM     11  C   UNL     1       6.919   6.397  17.871  0.00  0.00    +0.000 C 
ATOM     12  C   UNL     1       6.530   5.849  19.278  0.00  0.00    +0.000 C 
ATOM     13  C   UNL     1       8.228   7.186  18.165  0.00  0.00    +0.000 C 
ATOM     14  C   UNL     1       7.261   5.294  16.784  0.00  0.00    +0.000 C 
ATOM     15  C   UNL     1       6.312   4.977  15.553  0.00  0.00    +0.000 C 
ATOM     16  C   UNL     1       5.629   3.575  15.593  0.00  0.00    +0.000 C 
ATOM     17  C   UNL     1       7.207   4.869  14.283  0.00  0.00    +0.000 C 
ATOM     18  C   UNL     1       5.249   6.075  15.320  0.00  0.00    +0.000 C 
ENDBRANCH   4   9
BRANCH   1  19
ATOM     19  N   UNL     1       1.612   2.797  19.379  0.00  0.00    +0.000 N 
ATOM     20  C   UNL     1       0.471   2.237  18.651  0.00  0.00    +0.000 C 
BRANCH  19  21
ATOM     21  C   UNL     1       2.271   1.948  20.394  0.00  0.00    +0.000 C 
BRANCH  21  22
ATOM     22  C   UNL     1       3.622   2.477  20.951  0.00  0.00    +0.000 C 
BRANCH  22  24
ATOM     23  C   UNL     1       5.465   0.984  21.502  0.00  0.00    +0.000 C 
ATOM     24  N   UNL     1       4.853   1.818  20.465  0.00  0.00    +0.000 NA
ATOM     25  C   UNL     1       4.543   0.986  19.295  0.00  0.00    +0.000 C 
ENDBRANCH  22  24
ENDBRANCH  21  22
ENDBRANCH  19  21
ENDBRANCH   1  19
TORSDOF 5
ENDMDL
MODEL 5
REMARK VINA RESULT:      -6.1      4.269      7.189
REMARK  Name = 
REMARK  12 active torsions:
REMARK  status: ('A' for Active; 'I' for Inactive)
REMARK    1  A    between atoms: C_1  and  N_2
REMARK    2  A    between atoms: N_2  and  C_3
REMARK    3  A    between atoms: N_2  and  C_4
REMARK    4  A    between atoms: C_4  and  C_5
REMARK    5  A    between atoms: C_5  and  N_6
REMARK    6  A    between atoms: N_6  and  C_7
REMARK    7  A    between atoms: N_6  and  C_8
REMARK    8  A    between atoms: N_11  and  C_12
REMARK    9  A    between atoms: C_14  and  C_15
REMARK   10  A    between atoms: C_14  and  C_16
REMARK   11  A    between atoms: C_18  and  C_19
REMARK   12  A    between atoms: C_18  and  C_20
REMARK                            x       y       z     vdW  Elec       q    Type
REMARK                         _______ _______ _______ _____ _____    ______ ____
ROOT
ATOM      1  C   UNL     1       5.948   4.684  16.095  0.00  0.00    +0.000 A 
ATOM      2  C   UNL     1       4.908   3.670  16.334  0.00  0.00    +0.000 A 
ATOM      3  N   UNL     1       4.352   3.397  17.460  0.00  0.00    +0.000 NA
ATOM      4  N   UNL     1       4.755   4.050  18.587  0.00  0.00    +0.000 N 
ATOM      5  C   UNL     1       5.748   5.037  18.558  0.00  0.00    +0.000 A 
ATOM      6  O   UNL     1       6.154   5.609  19.564  0.00  0.00    +0.000 OA
ATOM      7  C   UNL     1       6.299   5.357  17.199  0.00  0.00    +0.000 A 
ATOM      8 CL   UNL     1       7.477   6.629  17.120  0.00  0.00    +0.000 Cl
ENDROOT
BRANCH   4   9
ATOM      9  C   UNL     1       4.095   3.640  19.850  0.00  0.00    +0.000 C 
ATOM     10  C   UNL     1       3.399   4.792  20.604  0.00  0.00    +0.000 C 
ATOM     11  C   UNL     1       2.202   5.416  19.858  0.00  0.00    +0.000 C 
ATOM     12  C   UNL     1       2.704   6.567  18.932  0.00  0.00    +0.000 C 
ATOM     13  C   UNL     1       1.298   6.171  20.876  0.00  0.00    +0.000 C 
ATOM     14  C   UNL     1       1.308   4.316  19.149  0.00  0.00    +0.000 C 
ATOM     15  C   UNL     1       1.818   2.839  18.874  0.00  0.00    +0.000 C 
ATOM     16  C   UNL     1       2.028   2.485  17.370  0.00  0.00    +0.000 C 
ATOM     17  C   UNL     1       0.677   1.862  19.284  0.00  0.00    +0.000 C 
ATOM     18  C   UNL     1       3.089   2.487  19.681  0.00  0.00    +0.000 C 
ENDBRANCH   4   9
BRANCH   1  19
ATOM     19  N   UNL     1       6.379   4.834  14.771  0.00  0.00    +0.000 N 
ATOM     20  C   UNL     1       7.812   4.987  14.509  0.00  0.00    +0.000 C 
BRANCH  19  21
ATOM     21  C   UNL     1       5.512   4.406  13.652  0.00  0.00    +0.000 C 
BRANCH  21  22
ATOM     22  C   UNL     1       6.185   3.514  12.572  0.00  0.00    +0.000 C 
BRANCH  22  24
ATOM     23  C   UNL     1       4.274   3.011  11.150  0.00  0.00    +0.000 C 
ATOM     24  N   UNL     1       5.354   2.452  11.966  0.00  0.00    +0.000 NA
ATOM     25  C   UNL     1       6.191   1.581  11.131  0.00  0.00    +0.000 C 
ENDBRANCH  22  24
ENDBRANCH  21  22
ENDBRANCH  19  21
ENDBRANCH   1  19
TORSDOF 5
ENDMDL
MODEL 6
REMARK VINA RESULT:      -6.1      2.681      7.607
REMARK  Name = 
REMARK  12 active torsions:
REMARK  status: ('A' for Active; 'I' for Inactive)
REMARK    1  A    between atoms: C_1  and  N_2
REMARK    2  A    between atoms: N_2  and  C_3
REMARK    3  A    between atoms: N_2  and  C_4
REMARK    4  A    between atoms: C_4  and  C_5
REMARK    5  A    between atoms: C_5  and  N_6
REMARK    6  A    between atoms: N_6  and  C_7
REMARK    7  A    between atoms: N_6  and  C_8
REMARK    8  A    between atoms: N_11  and  C_12
REMARK    9  A    between atoms: C_14  and  C_15
REMARK   10  A    between atoms: C_14  and  C_16
REMARK   11  A    between atoms: C_18  and  C_19
REMARK   12  A    between atoms: C_18  and  C_20
REMARK                            x       y       z     vdW  Elec       q    Type
REMARK                         _______ _______ _______ _____ _____    ______ ____
ROOT
ATOM      1  C   UNL     1       2.152   7.343  19.642  0.00  0.00    +0.000 A 
ATOM      2  C   UNL     1       1.541   8.079  20.760  0.00  0.00    +0.000 A 
ATOM      3  N   UNL     1       1.175   9.310  20.754  0.00  0.00    +0.000 NA
ATOM      4  N   UNL     1       1.387  10.073  19.643  0.00  0.00    +0.000 N 
ATOM      5  C   UNL     1       1.975   9.548  18.486  0.00  0.00    +0.000 A 
ATOM      6  O   UNL     1       2.211  10.224  17.489  0.00  0.00    +0.000 OA
ATOM      7  C   UNL     1       2.307   8.085  18.537  0.00  0.00    +0.000 A 
ATOM      8 CL   UNL     1       2.968   7.389  17.091  0.00  0.00    +0.000 Cl
ENDROOT
BRANCH   4   9
ATOM      9  C   UNL     1       0.978  11.494  19.739  0.00  0.00    +0.000 C 
ATOM     10  C   UNL     1      -0.167  11.889  18.785  0.00  0.00    +0.000 C 
ATOM     11  C   UNL     1      -1.514  11.196  19.075  0.00  0.00    +0.000 C 
ATOM     12  C   UNL     1      -1.582   9.841  18.305  0.00  0.00    +0.000 C 
ATOM     13  C   UNL     1      -2.666  12.014  18.424  0.00  0.00    +0.000 C 
ATOM     14  C   UNL     1      -1.810  11.108  20.630  0.00  0.00    +0.000 C 
ATOM     15  C   UNL     1      -0.686  11.302  21.733  0.00  0.00    +0.000 C 
ATOM     16  C   UNL     1      -0.331  10.018  22.544  0.00  0.00    +0.000 C 
ATOM     17  C   UNL     1      -1.263  12.238  22.836  0.00  0.00    +0.000 C 
ATOM     18  C   UNL     1       0.603  11.940  21.165  0.00  0.00    +0.000 C 
ENDBRANCH   4   9
BRANCH   1  19
ATOM     19  N   UNL     1       2.434   5.989  19.866  0.00  0.00    +0.000 N 
ATOM     20  C   UNL     1       3.787   5.497  19.598  0.00  0.00    +0.000 C 
BRANCH  19  21
ATOM     21  C   UNL     1       1.567   5.186  20.755  0.00  0.00    +0.000 C 
BRANCH  21  22
ATOM     22  C   UNL     1       0.871   3.961  20.101  0.00  0.00    +0.000 C 
BRANCH  22  24
ATOM     23  C   UNL     1       2.217   2.101  19.287  0.00  0.00    +0.000 C 
ATOM     24  N   UNL     1       1.434   2.628  20.407  0.00  0.00    +0.000 NA
ATOM     25  C   UNL     1       2.289   2.710  21.598  0.00  0.00    +0.000 C 
ENDBRANCH  22  24
ENDBRANCH  21  22
ENDBRANCH  19  21
ENDBRANCH   1  19
TORSDOF 5
ENDMDL
MODEL 7
REMARK VINA RESULT:      -5.8      1.709      2.220
REMARK  Name = 
REMARK  12 active torsions:
REMARK  status: ('A' for Active; 'I' for Inactive)
REMARK    1  A    between atoms: C_1  and  N_2
REMARK    2  A    between atoms: N_2  and  C_3
REMARK    3  A    between atoms: N_2  and  C_4
REMARK    4  A    between atoms: C_4  and  C_5
REMARK    5  A    between atoms: C_5  and  N_6
REMARK    6  A    between atoms: N_6  and  C_7
REMARK    7  A    between atoms: N_6  and  C_8
REMARK    8  A    between atoms: N_11  and  C_12
REMARK    9  A    between atoms: C_14  and  C_15
REMARK   10  A    between atoms: C_14  and  C_16
REMARK   11  A    between atoms: C_18  and  C_19
REMARK   12  A    between atoms: C_18  and  C_20
REMARK                            x       y       z     vdW  Elec       q    Type
REMARK                         _______ _______ _______ _____ _____    ______ ____
ROOT
ATOM      1  C   UNL     1       1.972   8.095  19.206  0.00  0.00    +0.000 A 
ATOM      2  C   UNL     1       3.124   7.865  18.320  0.00  0.00    +0.000 A 
ATOM      3  N   UNL     1       3.930   6.865  18.360  0.00  0.00    +0.000 NA
ATOM      4  N   UNL     1       3.776   5.912  19.323  0.00  0.00    +0.000 N 
ATOM      5  C   UNL     1       2.744   5.972  20.268  0.00  0.00    +0.000 A 
ATOM      6  O   UNL     1       2.610   5.149  21.167  0.00  0.00    +0.000 OA
ATOM      7  C   UNL     1       1.797   7.127  20.115  0.00  0.00    +0.000 A 
ATOM      8 CL   UNL     1       0.464   7.187  21.225  0.00  0.00    +0.000 Cl
ENDROOT
BRANCH   4   9
ATOM      9  C   UNL     1       4.777   4.818  19.325  0.00  0.00    +0.000 C 
ATOM     10  C   UNL     1       4.170   3.404  19.233  0.00  0.00    +0.000 C 
ATOM     11  C   UNL     1       3.438   3.103  17.909  0.00  0.00    +0.000 C 
ATOM     12  C   UNL     1       1.944   3.540  18.025  0.00  0.00    +0.000 C 
ATOM     13  C   UNL     1       3.325   1.563  17.720  0.00  0.00    +0.000 C 
ATOM     14  C   UNL     1       4.219   3.683  16.657  0.00  0.00    +0.000 C 
ATOM     15  C   UNL     1       5.349   4.789  16.785  0.00  0.00    +0.000 C 
ATOM     16  C   UNL     1       4.978   6.180  16.185  0.00  0.00    +0.000 C 
ATOM     17  C   UNL     1       6.542   4.351  15.885  0.00  0.00    +0.000 C 
ATOM     18  C   UNL     1       5.856   4.959  18.235  0.00  0.00    +0.000 C 
ENDBRANCH   4   9
BRANCH   1  19
ATOM     19  N   UNL     1       1.208   9.242  18.951  0.00  0.00    +0.000 N 
ATOM     20  C   UNL     1       0.876   9.572  17.563  0.00  0.00    +0.000 C 
BRANCH  19  21
ATOM     21  C   UNL     1       0.386   9.842  20.023  0.00  0.00    +0.000 C 
BRANCH  21  22
ATOM     22  C   UNL     1       0.892  11.198  20.589  0.00  0.00    +0.000 C 
BRANCH  22  24
ATOM     23  C   UNL     1      -0.400  12.822  21.863  0.00  0.00    +0.000 C 
ATOM     24  N   UNL     1       0.396  11.594  21.924  0.00  0.00    +0.000 NA
ATOM     25  C   UNL     1      -0.423  10.515  22.491  0.00  0.00    +0.000 C 
ENDBRANCH  22  24
ENDBRANCH  21  22
ENDBRANCH  19  21
ENDBRANCH   1  19
TORSDOF 5
ENDMDL
MODEL 8
REMARK VINA RESULT:      -5.8      1.854      7.510
REMARK  Name = 
REMARK  12 active torsions:
REMARK  status: ('A' for Active; 'I' for Inactive)
REMARK    1  A    between atoms: C_1  and  N_2
REMARK    2  A    between atoms: N_2  and  C_3
REMARK    3  A    between atoms: N_2  and  C_4
REMARK    4  A    between atoms: C_4  and  C_5
REMARK    5  A    between atoms: C_5  and  N_6
REMARK    6  A    between atoms: N_6  and  C_7
REMARK    7  A    between atoms: N_6  and  C_8
REMARK    8  A    between atoms: N_11  and  C_12
REMARK    9  A    between atoms: C_14  and  C_15
REMARK   10  A    between atoms: C_14  and  C_16
REMARK   11  A    between atoms: C_18  and  C_19
REMARK   12  A    between atoms: C_18  and  C_20
REMARK                            x       y       z     vdW  Elec       q    Type
REMARK                         _______ _______ _______ _____ _____    ______ ____
ROOT
ATOM      1  C   UNL     1       2.216   7.529  18.772  0.00  0.00    +0.000 A 
ATOM      2  C   UNL     1       1.964   8.868  18.216  0.00  0.00    +0.000 A 
ATOM      3  N   UNL     1       1.490   9.881  18.849  0.00  0.00    +0.000 NA
ATOM      4  N   UNL     1       1.126   9.749  20.157  0.00  0.00    +0.000 N 
ATOM      5  C   UNL     1       1.276   8.542  20.850  0.00  0.00    +0.000 A 
ATOM      6  O   UNL     1       0.920   8.389  22.014  0.00  0.00    +0.000 OA
ATOM      7  C   UNL     1       1.906   7.424  20.071  0.00  0.00    +0.000 A 
ATOM      8 CL   UNL     1       2.173   5.938  20.926  0.00  0.00    +0.000 Cl
ENDROOT
BRANCH   4   9
ATOM      9  C   UNL     1       0.544  10.953  20.797  0.00  0.00    +0.000 C 
ATOM     10  C   UNL     1       1.256  12.271  20.430  0.00  0.00    +0.000 C 
ATOM     11  C   UNL     1       1.145  12.669  18.944  0.00  0.00    +0.000 C 
ATOM     12  C   UNL     1       2.316  12.024  18.139  0.00  0.00    +0.000 C 
ATOM     13  C   UNL     1       1.431  14.191  18.794  0.00  0.00    +0.000 C 
ATOM     14  C   UNL     1      -0.306  12.396  18.366  0.00  0.00    +0.000 C 
ATOM     15  C   UNL     1      -1.353  11.445  19.083  0.00  0.00    +0.000 C 
ATOM     16  C   UNL     1      -1.674  10.125  18.317  0.00  0.00    +0.000 C 
ATOM     17  C   UNL     1      -2.731  12.171  19.077  0.00  0.00    +0.000 C 
ATOM     18  C   UNL     1      -0.965  11.125  20.545  0.00  0.00    +0.000 C 
ENDBRANCH   4   9
BRANCH   1  19
ATOM     19  N   UNL     1       2.777   6.588  17.899  0.00  0.00    +0.000 N 
ATOM     20  C   UNL     1       4.165   6.766  17.469  0.00  0.00    +0.000 C 
BRANCH  19  21
ATOM     21  C   UNL     1       2.179   5.242  17.772  0.00  0.00    +0.000 C 
BRANCH  21  22
ATOM     22  C   UNL     1       3.175   4.073  17.535  0.00  0.00    +0.000 C 
BRANCH  22  24
ATOM     23  C   UNL     1       3.431   1.746  18.206  0.00  0.00    +0.000 C 
ATOM     24  N   UNL     1       3.392   3.139  18.660  0.00  0.00    +0.000 NA
ATOM     25  C   UNL     1       4.655   3.461  19.338  0.00  0.00    +0.000 C 
ENDBRANCH  22  24
ENDBRANCH  21  22
ENDBRANCH  19  21
ENDBRANCH   1  19
TORSDOF 5
ENDMDL
MODEL 9
REMARK VINA RESULT:      -5.8      2.497      7.653
REMARK  Name = 
REMARK  12 active torsions:
REMARK  status: ('A' for Active; 'I' for Inactive)
REMARK    1  A    between atoms: C_1  and  N_2
REMARK    2  A    between atoms: N_2  and  C_3
REMARK    3  A    between atoms: N_2  and  C_4
REMARK    4  A    between atoms: C_4  and  C_5
REMARK    5  A    between atoms: C_5  and  N_6
REMARK    6  A    between atoms: N_6  and  C_7
REMARK    7  A    between atoms: N_6  and  C_8
REMARK    8  A    between atoms: N_11  and  C_12
REMARK    9  A    between atoms: C_14  and  C_15
REMARK   10  A    between atoms: C_14  and  C_16
REMARK   11  A    between atoms: C_18  and  C_19
REMARK   12  A    between atoms: C_18  and  C_20
REMARK                            x       y       z     vdW  Elec       q    Type
REMARK                         _______ _______ _______ _____ _____    ______ ____
ROOT
ATOM      1  C   UNL     1       2.083   7.192  19.839  0.00  0.00    +0.000 A 
ATOM      2  C   UNL     1       1.525   8.002  20.934  0.00  0.00    +0.000 A 
ATOM      3  N   UNL     1       1.196   9.243  20.874  0.00  0.00    +0.000 NA
ATOM      4  N   UNL     1       1.402   9.941  19.721  0.00  0.00    +0.000 N 
ATOM      5  C   UNL     1       1.942   9.341  18.577  0.00  0.00    +0.000 A 
ATOM      6  O   UNL     1       2.173   9.958  17.542  0.00  0.00    +0.000 OA
ATOM      7  C   UNL     1       2.231   7.873  18.694  0.00  0.00    +0.000 A 
ATOM      8 CL   UNL     1       2.831   7.085  17.269  0.00  0.00    +0.000 Cl
ENDROOT
BRANCH   4   9
ATOM      9  C   UNL     1       1.039  11.378  19.756  0.00  0.00    +0.000 C 
ATOM     10  C   UNL     1      -0.059  11.778  18.750  0.00  0.00    +0.000 C 
ATOM     11  C   UNL     1      -1.438  11.141  19.018  0.00  0.00    +0.000 C 
ATOM     12  C   UNL     1      -1.528   9.763  18.292  0.00  0.00    +0.000 C 
ATOM     13  C   UNL     1      -2.539  11.973  18.300  0.00  0.00    +0.000 C 
ATOM     14  C   UNL     1      -1.788  11.117  20.564  0.00  0.00    +0.000 C 
ATOM     15  C   UNL     1      -0.694  11.312  21.697  0.00  0.00    +0.000 C 
ATOM     16  C   UNL     1      -0.411  10.046  22.562  0.00  0.00    +0.000 C 
ATOM     17  C   UNL     1      -1.275  12.304  22.747  0.00  0.00    +0.000 C 
ATOM     18  C   UNL     1       0.634  11.886  21.152  0.00  0.00    +0.000 C 
ENDBRANCH   4   9
BRANCH   1  19
ATOM     19  N   UNL     1       2.329   5.843  20.125  0.00  0.00    +0.000 N 
ATOM     20  C   UNL     1       1.193   4.967  20.423  0.00  0.00    +0.000 C 
BRANCH  19  21
ATOM     21  C   UNL     1       3.599   5.213  19.705  0.00  0.00    +0.000 C 
BRANCH  21  22
ATOM     22  C   UNL     1       3.623   3.659  19.713  0.00  0.00    +0.000 C 
BRANCH  22  24
ATOM     23  C   UNL     1       2.577   2.520  17.832  0.00  0.00    +0.000 C 
ATOM     24  N   UNL     1       3.838   2.985  18.415  0.00  0.00    +0.000 NA
ATOM     25  C   UNL     1       4.492   3.908  17.477  0.00  0.00    +0.000 C 
ENDBRANCH  22  24
ENDBRANCH  21  22
ENDBRANCH  19  21
ENDBRANCH   1  19
TORSDOF 5
ENDMDL
