MODEL 1
REMARK VINA RESULT:      -7.7      0.000      0.000
REMARK  Name = 
REMARK  6 active torsions:
REMARK  status: ('A' for Active; 'I' for Inactive)
REMARK    1  A    between atoms: C_2  and  O_3
REMARK    2  A    between atoms: C_2  and  C_4
REMARK    3  A    between atoms: C_6  and  N_7
REMARK    4  A    between atoms: N_7  and  C_8
REMARK    5  A    between atoms: C_8  and  C_9
REMARK    6  A    between atoms: C_19  and  N_20
REMARK                            x       y       z     vdW  Elec       q    Type
REMARK                         _______ _______ _______ _____ _____    ______ ____
ROOT
ATOM      1  C   UNL     1       2.294   5.972  19.369  0.00  0.00    +0.000 A 
ATOM      2  C   UNL     1       1.838   7.313  19.352  0.00  0.00    +0.000 A 
ATOM      3  C   UNL     1       2.284   8.234  18.403  0.00  0.00    +0.000 A 
ATOM      4  C   UNL     1       3.322   7.828  17.571  0.00  0.00    +0.000 A 
ATOM      5  C   UNL     1       3.795   6.510  17.595  0.00  0.00    +0.000 A 
ATOM      6  C   UNL     1       3.285   5.528  18.464  0.00  0.00    +0.000 A 
ENDROOT
BRANCH   6   7
ATOM      7  N   UNL     1       3.751   4.235  18.338  0.00  0.00    +0.000 N 
ATOM      8  C   UNL     1       3.243   3.295  17.320  0.00  0.00    +0.000 C 
ATOM      9  C   UNL     1       2.821   1.978  17.998  0.00  0.00    +0.000 C 
ATOM     10  O   UNL     1       3.889   1.415  18.779  0.00  0.00    +0.000 OA
ATOM     11  C   UNL     1       4.319   2.345  19.786  0.00  0.00    +0.000 C 
ATOM     12  C   UNL     1       4.819   3.666  19.172  0.00  0.00    +0.000 C 
ENDBRANCH   6   7
BRANCH   1  14
ATOM     13  O   UNL     1       0.722   4.462  20.392  0.00  0.00    +0.000 OA
ATOM     14  C   UNL     1       1.751   5.108  20.458  0.00  0.00    +0.000 C 
BRANCH  14  15
ATOM     15  O   UNL     1       2.529   5.108  21.571  0.00  0.00    +0.000 OA
ATOM     16  H   UNL     1       2.955   4.258  21.781  0.00  0.00    +0.000 HD
ENDBRANCH  14  15
ENDBRANCH   1  14
BRANCH   3  17
ATOM     17  N   UNL     1       1.769   9.530  18.409  0.00  0.00    +0.000 N 
ATOM     18  H   UNL     1       2.481  10.242  18.278  0.00  0.00    +0.000 HD
BRANCH  17  19
ATOM     19  C   UNL     1       0.807   9.921  19.445  0.00  0.00    +0.000 C 
BRANCH  19  20
ATOM     20  C   UNL     1      -0.527  10.324  18.852  0.00  0.00    +0.000 A 
ATOM     21  C   UNL     1      -0.945   9.797  17.614  0.00  0.00    +0.000 A 
ATOM     22  C   UNL     1      -2.140  10.208  17.020  0.00  0.00    +0.000 A 
ATOM     23  C   UNL     1      -2.930  11.163  17.650  0.00  0.00    +0.000 A 
ATOM     24 CL   UNL     1      -4.395  11.680  16.912  0.00  0.00    +0.000 Cl
ATOM     25  C   UNL     1      -2.539  11.709  18.868  0.00  0.00    +0.000 A 
ATOM     26  C   UNL     1      -1.341  11.298  19.460  0.00  0.00    +0.000 A 
ATOM     27 CL   UNL     1      -0.903  12.054  20.954  0.00  0.00    +0.000 Cl
ENDBRANCH  19  20
ENDBRANCH  17  19
ENDBRANCH   3  17
TORSDOF 6
ENDMDL
MODEL 2
REMARK VINA RESULT:      -7.5      4.446      8.122
REMARK  Name = 
REMARK  6 active torsions:
REMARK  status: ('A' for Active; 'I' for Inactive)
REMARK    1  A    between atoms: C_2  and  O_3
REMARK    2  A    between atoms: C_2  and  C_4
REMARK    3  A    between atoms: C_6  and  N_7
REMARK    4  A    between atoms: N_7  and  C_8
REMARK    5  A    between atoms: C_8  and  C_9
REMARK    6  A    between atoms: C_19  and  N_20
REMARK                            x       y       z     vdW  Elec       q    Type
REMARK                         _______ _______ _______ _____ _____    ______ ____
ROOT
ATOM      1  C   UNL     1       1.190   8.645  20.536  0.00  0.00    +0.000 A 
ATOM      2  C   UNL     1       1.880   7.413  20.421  0.00  0.00    +0.000 A 
ATOM      3  C   UNL     1       2.528   7.034  19.245  0.00  0.00    +0.000 A 
ATOM      4  C   UNL     1       2.332   7.841  18.130  0.00  0.00    +0.000 A 
ATOM      5  C   UNL     1       1.634   9.051  18.227  0.00  0.00    +0.000 A 
ATOM      6  C   UNL     1       1.066   9.515  19.428  0.00  0.00    +0.000 A 
ENDROOT
BRANCH   6   7
ATOM      7  N   UNL     1       0.486  10.767  19.439  0.00  0.00    +0.000 N 
ATOM      8  C   UNL     1      -0.964  10.981  19.258  0.00  0.00    +0.000 C 
ATOM      9  C   UNL     1      -1.198  12.016  18.143  0.00  0.00    +0.000 C 
ATOM     10  O   UNL     1      -0.492  13.243  18.397  0.00  0.00    +0.000 OA
ATOM     11  C   UNL     1       0.919  12.993  18.518  0.00  0.00    +0.000 C 
ATOM     12  C   UNL     1       1.233  12.012  19.663  0.00  0.00    +0.000 C 
ENDBRANCH   6   7
BRANCH   1  14
ATOM     13  O   UNL     1       0.976   9.595  22.737  0.00  0.00    +0.000 OA
ATOM     14  C   UNL     1       0.522   8.905  21.844  0.00  0.00    +0.000 C 
BRANCH  14  15
ATOM     15  O   UNL     1      -0.677   8.278  21.959  0.00  0.00    +0.000 OA
ATOM     16  H   UNL     1      -0.865   7.895  22.835  0.00  0.00    +0.000 HD
ENDBRANCH  14  15
ENDBRANCH   1  14
BRANCH   3  17
ATOM     17  N   UNL     1       3.226   5.827  19.204  0.00  0.00    +0.000 N 
ATOM     18  H   UNL     1       2.910   5.160  19.902  0.00  0.00    +0.000 HD
BRANCH  17  19
ATOM     19  C   UNL     1       4.689   5.841  19.101  0.00  0.00    +0.000 C 
BRANCH  19  20
ATOM     20  C   UNL     1       5.161   5.434  17.720  0.00  0.00    +0.000 A 
ATOM     21  C   UNL     1       4.356   4.615  16.904  0.00  0.00    +0.000 A 
ATOM     22  C   UNL     1       4.802   4.176  15.657  0.00  0.00    +0.000 A 
ATOM     23  C   UNL     1       6.069   4.538  15.211  0.00  0.00    +0.000 A 
ATOM     24 CL   UNL     1       6.626   3.984  13.681  0.00  0.00    +0.000 Cl
ATOM     25  C   UNL     1       6.891   5.336  15.999  0.00  0.00    +0.000 A 
ATOM     26  C   UNL     1       6.443   5.774  17.249  0.00  0.00    +0.000 A 
ATOM     27 CL   UNL     1       7.540   6.728  18.187  0.00  0.00    +0.000 Cl
ENDBRANCH  19  20
ENDBRANCH  17  19
ENDBRANCH   3  17
TORSDOF 6
ENDMDL
MODEL 3
REMARK VINA RESULT:      -7.5      4.410      8.147
REMARK  Name = 
REMARK  6 active torsions:
REMARK  status: ('A' for Active; 'I' for Inactive)
REMARK    1  A    between atoms: C_2  and  O_3
REMARK    2  A    between atoms: C_2  and  C_4
REMARK    3  A    between atoms: C_6  and  N_7
REMARK    4  A    between atoms: N_7  and  C_8
REMARK    5  A    between atoms: C_8  and  C_9
REMARK    6  A    between atoms: C_19  and  N_20
REMARK                            x       y       z     vdW  Elec       q    Type
REMARK                         _______ _______ _______ _____ _____    ______ ____
ROOT
ATOM      1  C   UNL     1       1.340   8.586  20.389  0.00  0.00    +0.000 A 
ATOM      2  C   UNL     1       2.002   7.333  20.404  0.00  0.00    +0.000 A 
ATOM      3  C   UNL     1       2.630   6.815  19.270  0.00  0.00    +0.000 A 
ATOM      4  C   UNL     1       2.440   7.500  18.076  0.00  0.00    +0.000 A 
ATOM      5  C   UNL     1       1.768   8.729  18.047  0.00  0.00    +0.000 A 
ATOM      6  C   UNL     1       1.222   9.332  19.194  0.00  0.00    +0.000 A 
ENDROOT
BRANCH   6   7
ATOM      7  N   UNL     1       0.668  10.591  19.073  0.00  0.00    +0.000 N 
ATOM      8  C   UNL     1       1.463  11.830  19.171  0.00  0.00    +0.000 C 
ATOM      9  C   UNL     1       0.821  12.776  20.202  0.00  0.00    +0.000 C 
ATOM     10  O   UNL     1      -0.561  13.035  19.901  0.00  0.00    +0.000 OA
ATOM     11  C   UNL     1      -1.305  11.805  19.862  0.00  0.00    +0.000 C 
ATOM     12  C   UNL     1      -0.755  10.834  18.801  0.00  0.00    +0.000 C 
ENDBRANCH   6   7
BRANCH   1  14
ATOM     13  O   UNL     1       1.196   9.717  22.509  0.00  0.00    +0.000 OA
ATOM     14  C   UNL     1       0.690   9.000  21.667  0.00  0.00    +0.000 C 
BRANCH  14  15
ATOM     15  O   UNL     1      -0.558   8.486  21.817  0.00  0.00    +0.000 OA
ATOM     16  H   UNL     1      -1.188   8.710  21.109  0.00  0.00    +0.000 HD
ENDBRANCH  14  15
ENDBRANCH   1  14
BRANCH   3  17
ATOM     17  N   UNL     1       3.302   5.596  19.356  0.00  0.00    +0.000 N 
ATOM     18  H   UNL     1       2.971   5.010  20.116  0.00  0.00    +0.000 HD
BRANCH  17  19
ATOM     19  C   UNL     1       4.766   5.569  19.260  0.00  0.00    +0.000 C 
BRANCH  19  20
ATOM     20  C   UNL     1       5.233   5.246  17.856  0.00  0.00    +0.000 A 
ATOM     21  C   UNL     1       4.409   4.510  16.982  0.00  0.00    +0.000 A 
ATOM     22  C   UNL     1       4.850   4.145  15.708  0.00  0.00    +0.000 A 
ATOM     23  C   UNL     1       6.128   4.501  15.293  0.00  0.00    +0.000 A 
ATOM     24 CL   UNL     1       6.676   4.040  13.729  0.00  0.00    +0.000 Cl
ATOM     25  C   UNL     1       6.969   5.219  16.137  0.00  0.00    +0.000 A 
ATOM     26  C   UNL     1       6.526   5.582  17.413  0.00  0.00    +0.000 A 
ATOM     27 CL   UNL     1       7.646   6.436  18.419  0.00  0.00    +0.000 Cl
ENDBRANCH  19  20
ENDBRANCH  17  19
ENDBRANCH   3  17
TORSDOF 6
ENDMDL
MODEL 4
REMARK VINA RESULT:      -7.4      4.452      8.114
REMARK  Name = 
REMARK  6 active torsions:
REMARK  status: ('A' for Active; 'I' for Inactive)
REMARK    1  A    between atoms: C_2  and  O_3
REMARK    2  A    between atoms: C_2  and  C_4
REMARK    3  A    between atoms: C_6  and  N_7
REMARK    4  A    between atoms: N_7  and  C_8
REMARK    5  A    between atoms: C_8  and  C_9
REMARK    6  A    between atoms: C_19  and  N_20
REMARK                            x       y       z     vdW  Elec       q    Type
REMARK                         _______ _______ _______ _____ _____    ______ ____
ROOT
ATOM      1  C   UNL     1       1.036   8.886  20.604  0.00  0.00    +0.000 A 
ATOM      2  C   UNL     1       1.656   7.617  20.490  0.00  0.00    +0.000 A 
ATOM      3  C   UNL     1       2.290   7.206  19.317  0.00  0.00    +0.000 A 
ATOM      4  C   UNL     1       2.146   8.026  18.203  0.00  0.00    +0.000 A 
ATOM      5  C   UNL     1       1.516   9.273  18.300  0.00  0.00    +0.000 A 
ATOM      6  C   UNL     1       0.967   9.764  19.498  0.00  0.00    +0.000 A 
ENDROOT
BRANCH   6   7
ATOM      7  N   UNL     1       0.457  11.046  19.509  0.00  0.00    +0.000 N 
ATOM      8  C   UNL     1      -0.984  11.338  19.373  0.00  0.00    +0.000 C 
ATOM      9  C   UNL     1      -1.199  12.369  18.251  0.00  0.00    +0.000 C 
ATOM     10  O   UNL     1      -0.418  13.558  18.462  0.00  0.00    +0.000 OA
ATOM     11  C   UNL     1       0.980  13.233  18.541  0.00  0.00    +0.000 C 
ATOM     12  C   UNL     1       1.278  12.251  19.690  0.00  0.00    +0.000 C 
ENDBRANCH   6   7
BRANCH   1  14
ATOM     13  O   UNL     1      -0.677   8.696  22.285  0.00  0.00    +0.000 OA
ATOM     14  C   UNL     1       0.375   9.178  21.909  0.00  0.00    +0.000 C 
BRANCH  14  15
ATOM     15  O   UNL     1       1.070  10.064  22.668  0.00  0.00    +0.000 OA
ATOM     16  H   UNL     1       0.825  10.999  22.547  0.00  0.00    +0.000 HD
ENDBRANCH  14  15
ENDBRANCH   1  14
BRANCH   3  17
ATOM     17  N   UNL     1       2.920   5.962  19.277  0.00  0.00    +0.000 N 
ATOM     18  H   UNL     1       2.579   5.320  19.985  0.00  0.00    +0.000 HD
BRANCH  17  19
ATOM     19  C   UNL     1       4.380   5.896  19.154  0.00  0.00    +0.000 C 
BRANCH  19  20
ATOM     20  C   UNL     1       4.809   5.402  17.787  0.00  0.00    +0.000 A 
ATOM     21  C   UNL     1       5.178   6.319  16.782  0.00  0.00    +0.000 A 
ATOM     22  C   UNL     1       5.512   5.886  15.498  0.00  0.00    +0.000 A 
ATOM     23  C   UNL     1       5.468   4.530  15.194  0.00  0.00    +0.000 A 
ATOM     24 CL   UNL     1       5.865   3.999  13.606  0.00  0.00    +0.000 Cl
ATOM     25  C   UNL     1       5.097   3.603  16.161  0.00  0.00    +0.000 A 
ATOM     26  C   UNL     1       4.762   4.038  17.447  0.00  0.00    +0.000 A 
ATOM     27 CL   UNL     1       4.271   2.827  18.582  0.00  0.00    +0.000 Cl
ENDBRANCH  19  20
ENDBRANCH  17  19
ENDBRANCH   3  17
TORSDOF 6
ENDMDL
MODEL 5
REMARK VINA RESULT:      -7.3      1.218      2.220
REMARK  Name = 
REMARK  6 active torsions:
REMARK  status: ('A' for Active; 'I' for Inactive)
REMARK    1  A    between atoms: C_2  and  O_3
REMARK    2  A    between atoms: C_2  and  C_4
REMARK    3  A    between atoms: C_6  and  N_7
REMARK    4  A    between atoms: N_7  and  C_8
REMARK    5  A    between atoms: C_8  and  C_9
REMARK    6  A    between atoms: C_19  and  N_20
REMARK                            x       y       z     vdW  Elec       q    Type
REMARK                         _______ _______ _______ _____ _____    ______ ____
ROOT
ATOM      1  C   UNL     1       2.342   5.949  19.355  0.00  0.00    +0.000 A 
ATOM      2  C   UNL     1       1.918   7.302  19.349  0.00  0.00    +0.000 A 
ATOM      3  C   UNL     1       2.366   8.213  18.392  0.00  0.00    +0.000 A 
ATOM      4  C   UNL     1       3.377   7.785  17.540  0.00  0.00    +0.000 A 
ATOM      5  C   UNL     1       3.819   6.456  17.552  0.00  0.00    +0.000 A 
ATOM      6  C   UNL     1       3.304   5.485  18.430  0.00  0.00    +0.000 A 
ENDROOT
BRANCH   6   7
ATOM      7  N   UNL     1       3.736   4.181  18.292  0.00  0.00    +0.000 N 
ATOM      8  C   UNL     1       3.206   3.264  17.265  0.00  0.00    +0.000 C 
ATOM      9  C   UNL     1       2.749   1.952  17.929  0.00  0.00    +0.000 C 
ATOM     10  O   UNL     1       3.800   1.354  18.706  0.00  0.00    +0.000 OA
ATOM     11  C   UNL     1       4.252   2.263  19.723  0.00  0.00    +0.000 C 
ATOM     12  C   UNL     1       4.787   3.577  19.123  0.00  0.00    +0.000 C 
ENDBRANCH   6   7
BRANCH   1  14
ATOM     13  O   UNL     1       0.783   4.432  20.387  0.00  0.00    +0.000 OA
ATOM     14  C   UNL     1       1.800   5.097  20.453  0.00  0.00    +0.000 C 
BRANCH  14  15
ATOM     15  O   UNL     1       2.565   5.131  21.575  0.00  0.00    +0.000 OA
ATOM     16  H   UNL     1       2.073   5.099  22.415  0.00  0.00    +0.000 HD
ENDBRANCH  14  15
ENDBRANCH   1  14
BRANCH   3  17
ATOM     17  N   UNL     1       1.882   9.521  18.411  0.00  0.00    +0.000 N 
ATOM     18  H   UNL     1       2.299  10.090  19.142  0.00  0.00    +0.000 HD
BRANCH  17  19
ATOM     19  C   UNL     1       0.439   9.759  18.306  0.00  0.00    +0.000 C 
BRANCH  19  20
ATOM     20  C   UNL     1      -0.104  10.476  19.525  0.00  0.00    +0.000 A 
ATOM     21  C   UNL     1       0.268  10.062  20.820  0.00  0.00    +0.000 A 
ATOM     22  C   UNL     1      -0.274  10.666  21.955  0.00  0.00    +0.000 A 
ATOM     23  C   UNL     1      -1.208  11.686  21.814  0.00  0.00    +0.000 A 
ATOM     24 CL   UNL     1      -1.887  12.421  23.213  0.00  0.00    +0.000 Cl
ATOM     25  C   UNL     1      -1.604  12.109  20.550  0.00  0.00    +0.000 A 
ATOM     26  C   UNL     1      -1.061  11.502  19.413  0.00  0.00    +0.000 A 
ATOM     27 CL   UNL     1      -1.635  12.055  17.877  0.00  0.00    +0.000 Cl
ENDBRANCH  19  20
ENDBRANCH  17  19
ENDBRANCH   3  17
TORSDOF 6
ENDMDL
MODEL 6
REMARK VINA RESULT:      -7.3      4.470      8.218
REMARK  Name = 
REMARK  6 active torsions:
REMARK  status: ('A' for Active; 'I' for Inactive)
REMARK    1  A    between atoms: C_2  and  O_3
REMARK    2  A    between atoms: C_2  and  C_4
REMARK    3  A    between atoms: C_6  and  N_7
REMARK    4  A    between atoms: N_7  and  C_8
REMARK    5  A    between atoms: C_8  and  C_9
REMARK    6  A    between atoms: C_19  and  N_20
REMARK                            x       y       z     vdW  Elec       q    Type
REMARK                         _______ _______ _______ _____ _____    ______ ____
ROOT
ATOM      1  C   UNL     1       0.904   9.149  21.249  0.00  0.00    +0.000 A 
ATOM      2  C   UNL     1       1.557   7.905  21.062  0.00  0.00    +0.000 A 
ATOM      3  C   UNL     1       2.120   7.543  19.837  0.00  0.00    +0.000 A 
ATOM      4  C   UNL     1       1.873   8.382  18.757  0.00  0.00    +0.000 A 
ATOM      5  C   UNL     1       1.209   9.604  18.927  0.00  0.00    +0.000 A 
ATOM      6  C   UNL     1       0.729  10.048  20.173  0.00  0.00    +0.000 A 
ENDROOT
BRANCH   6   7
ATOM      7  N   UNL     1       0.179  11.312  20.250  0.00  0.00    +0.000 N 
ATOM      8  C   UNL     1      -1.238  11.590  19.944  0.00  0.00    +0.000 C 
ATOM      9  C   UNL     1      -1.331  12.737  18.922  0.00  0.00    +0.000 C 
ATOM     10  O   UNL     1      -0.628  13.908  19.369  0.00  0.00    +0.000 OA
ATOM     11  C   UNL     1       0.756  13.602  19.609  0.00  0.00    +0.000 C 
ATOM     12  C   UNL     1       0.926  12.504  20.675  0.00  0.00    +0.000 C 
ENDBRANCH   6   7
BRANCH   1  14
ATOM     13  O   UNL     1      -0.862   9.415  22.863  0.00  0.00    +0.000 OA
ATOM     14  C   UNL     1       0.326   9.389  22.604  0.00  0.00    +0.000 C 
BRANCH  14  15
ATOM     15  O   UNL     1       1.274   9.587  23.556  0.00  0.00    +0.000 OA
ATOM     16  H   UNL     1       1.010   9.348  24.462  0.00  0.00    +0.000 HD
ENDBRANCH  14  15
ENDBRANCH   1  14
BRANCH   3  17
ATOM     17  N   UNL     1       2.787   6.323  19.724  0.00  0.00    +0.000 N 
ATOM     18  H   UNL     1       3.791   6.404  19.852  0.00  0.00    +0.000 HD
BRANCH  17  19
ATOM     19  C   UNL     1       2.462   5.423  18.612  0.00  0.00    +0.000 C 
BRANCH  19  20
ATOM     20  C   UNL     1       3.634   5.248  17.667  0.00  0.00    +0.000 A 
ATOM     21  C   UNL     1       4.360   6.369  17.217  0.00  0.00    +0.000 A 
ATOM     22  C   UNL     1       5.398   6.235  16.295  0.00  0.00    +0.000 A 
ATOM     23  C   UNL     1       5.720   4.977  15.797  0.00  0.00    +0.000 A 
ATOM     24 CL   UNL     1       6.991   4.812  14.650  0.00  0.00    +0.000 Cl
ATOM     25  C   UNL     1       5.015   3.853  16.214  0.00  0.00    +0.000 A 
ATOM     26  C   UNL     1       3.973   3.990  17.137  0.00  0.00    +0.000 A 
ATOM     27 CL   UNL     1       3.117   2.551  17.574  0.00  0.00    +0.000 Cl
ENDBRANCH  19  20
ENDBRANCH  17  19
ENDBRANCH   3  17
TORSDOF 6
ENDMDL
MODEL 7
REMARK VINA RESULT:      -7.3      4.380      8.154
REMARK  Name = 
REMARK  6 active torsions:
REMARK  status: ('A' for Active; 'I' for Inactive)
REMARK    1  A    between atoms: C_2  and  O_3
REMARK    2  A    between atoms: C_2  and  C_4
REMARK    3  A    between atoms: C_6  and  N_7
REMARK    4  A    between atoms: N_7  and  C_8
REMARK    5  A    between atoms: C_8  and  C_9
REMARK    6  A    between atoms: C_19  and  N_20
REMARK                            x       y       z     vdW  Elec       q    Type
REMARK                         _______ _______ _______ _____ _____    ______ ____
ROOT
ATOM      1  C   UNL     1       1.156   8.826  20.487  0.00  0.00    +0.000 A 
ATOM      2  C   UNL     1       1.760   7.544  20.478  0.00  0.00    +0.000 A 
ATOM      3  C   UNL     1       2.399   7.035  19.347  0.00  0.00    +0.000 A 
ATOM      4  C   UNL     1       2.278   7.767  18.172  0.00  0.00    +0.000 A 
ATOM      5  C   UNL     1       1.663   9.026  18.165  0.00  0.00    +0.000 A 
ATOM      6  C   UNL     1       1.110   9.616  19.316  0.00  0.00    +0.000 A 
ENDROOT
BRANCH   6   7
ATOM      7  N   UNL     1       0.618  10.902  19.221  0.00  0.00    +0.000 N 
ATOM      8  C   UNL     1       1.443  12.098  19.481  0.00  0.00    +0.000 C 
ATOM      9  C   UNL     1       0.731  13.005  20.501  0.00  0.00    +0.000 C 
ATOM     10  O   UNL     1      -0.601  13.341  20.078  0.00  0.00    +0.000 OA
ATOM     11  C   UNL     1      -1.381  12.150  19.883  0.00  0.00    +0.000 C 
ATOM     12  C   UNL     1      -0.760  11.222  18.822  0.00  0.00    +0.000 C 
ENDBRANCH   6   7
BRANCH   1  14
ATOM     13  O   UNL     1       0.919  10.043  22.550  0.00  0.00    +0.000 OA
ATOM     14  C   UNL     1       0.486   9.228  21.759  0.00  0.00    +0.000 C 
BRANCH  14  15
ATOM     15  O   UNL     1      -0.688   8.578  21.966  0.00  0.00    +0.000 OA
ATOM     16  H   UNL     1      -0.716   8.008  22.755  0.00  0.00    +0.000 HD
ENDBRANCH  14  15
ENDBRANCH   1  14
BRANCH   3  17
ATOM     17  N   UNL     1       3.012   5.783  19.411  0.00  0.00    +0.000 N 
ATOM     18  H   UNL     1       2.676   5.214  20.181  0.00  0.00    +0.000 HD
BRANCH  17  19
ATOM     19  C   UNL     1       4.469   5.684  19.268  0.00  0.00    +0.000 C 
BRANCH  19  20
ATOM     20  C   UNL     1       4.869   5.234  17.878  0.00  0.00    +0.000 A 
ATOM     21  C   UNL     1       5.360   6.164  16.941  0.00  0.00    +0.000 A 
ATOM     22  C   UNL     1       5.670   5.780  15.635  0.00  0.00    +0.000 A 
ATOM     23  C   UNL     1       5.482   4.459  15.242  0.00  0.00    +0.000 A 
ATOM     24 CL   UNL     1       5.851   3.988  13.629  0.00  0.00    +0.000 Cl
ATOM     25  C   UNL     1       4.990   3.520  16.142  0.00  0.00    +0.000 A 
ATOM     26  C   UNL     1       4.678   3.907  17.448  0.00  0.00    +0.000 A 
ATOM     27 CL   UNL     1       4.030   2.690  18.495  0.00  0.00    +0.000 Cl
ENDBRANCH  19  20
ENDBRANCH  17  19
ENDBRANCH   3  17
TORSDOF 6
ENDMDL
MODEL 8
REMARK VINA RESULT:      -7.2      1.174      1.926
REMARK  Name = 
REMARK  6 active torsions:
REMARK  status: ('A' for Active; 'I' for Inactive)
REMARK    1  A    between atoms: C_2  and  O_3
REMARK    2  A    between atoms: C_2  and  C_4
REMARK    3  A    between atoms: C_6  and  N_7
REMARK    4  A    between atoms: N_7  and  C_8
REMARK    5  A    between atoms: C_8  and  C_9
REMARK    6  A    between atoms: C_19  and  N_20
REMARK                            x       y       z     vdW  Elec       q    Type
REMARK                         _______ _______ _______ _____ _____    ______ ____
ROOT
ATOM      1  C   UNL     1       2.146   5.654  19.825  0.00  0.00    +0.000 A 
ATOM      2  C   UNL     1       1.651   6.960  20.062  0.00  0.00    +0.000 A 
ATOM      3  C   UNL     1       1.946   8.029  19.215  0.00  0.00    +0.000 A 
ATOM      4  C   UNL     1       2.884   7.799  18.215  0.00  0.00    +0.000 A 
ATOM      5  C   UNL     1       3.396   6.516  17.985  0.00  0.00    +0.000 A 
ATOM      6  C   UNL     1       3.030   5.395  18.752  0.00  0.00    +0.000 A 
ENDROOT
BRANCH   6   7
ATOM      7  N   UNL     1       3.516   4.158  18.379  0.00  0.00    +0.000 N 
ATOM      8  C   UNL     1       2.938   3.368  17.275  0.00  0.00    +0.000 C 
ATOM      9  C   UNL     1       2.619   1.946  17.768  0.00  0.00    +0.000 C 
ATOM     10  O   UNL     1       3.771   1.312  18.349  0.00  0.00    +0.000 OA
ATOM     11  C   UNL     1       4.271   2.090  19.449  0.00  0.00    +0.000 C 
ATOM     12  C   UNL     1       4.674   3.511  19.012  0.00  0.00    +0.000 C 
ENDBRANCH   6   7
BRANCH   1  14
ATOM     13  O   UNL     1       2.425   4.324  21.811  0.00  0.00    +0.000 OA
ATOM     14  C   UNL     1       1.770   4.617  20.829  0.00  0.00    +0.000 C 
BRANCH  14  15
ATOM     15  O   UNL     1       0.593   4.003  20.541  0.00  0.00    +0.000 OA
ATOM     16  H   UNL     1       0.007   3.848  21.302  0.00  0.00    +0.000 HD
ENDBRANCH  14  15
ENDBRANCH   1  14
BRANCH   3  17
ATOM     17  N   UNL     1       1.396   9.284  19.476  0.00  0.00    +0.000 N 
ATOM     18  H   UNL     1       0.823   9.301  20.314  0.00  0.00    +0.000 HD
BRANCH  17  19
ATOM     19  C   UNL     1       0.770  10.040  18.386  0.00  0.00    +0.000 C 
BRANCH  19  20
ATOM     20  C   UNL     1      -0.382  10.891  18.879  0.00  0.00    +0.000 A 
ATOM     21  C   UNL     1      -0.245  11.668  20.047  0.00  0.00    +0.000 A 
ATOM     22  C   UNL     1      -1.317  12.405  20.554  0.00  0.00    +0.000 A 
ATOM     23  C   UNL     1      -2.547  12.368  19.907  0.00  0.00    +0.000 A 
ATOM     24 CL   UNL     1      -3.871  13.265  20.539  0.00  0.00    +0.000 Cl
ATOM     25  C   UNL     1      -2.715  11.602  18.758  0.00  0.00    +0.000 A 
ATOM     26  C   UNL     1      -1.642  10.863  18.253  0.00  0.00    +0.000 A 
ATOM     27 CL   UNL     1      -1.943   9.903  16.845  0.00  0.00    +0.000 Cl
ENDBRANCH  19  20
ENDBRANCH  17  19
ENDBRANCH   3  17
TORSDOF 6
ENDMDL
MODEL 9
REMARK VINA RESULT:      -7.2      4.455      8.293
REMARK  Name = 
REMARK  6 active torsions:
REMARK  status: ('A' for Active; 'I' for Inactive)
REMARK    1  A    between atoms: C_2  and  O_3
REMARK    2  A    between atoms: C_2  and  C_4
REMARK    3  A    between atoms: C_6  and  N_7
REMARK    4  A    between atoms: N_7  and  C_8
REMARK    5  A    between atoms: C_8  and  C_9
REMARK    6  A    between atoms: C_19  and  N_20
REMARK                            x       y       z     vdW  Elec       q    Type
REMARK                         _______ _______ _______ _____ _____    ______ ____
ROOT
ATOM      1  C   UNL     1       0.745   9.206  20.779  0.00  0.00    +0.000 A 
ATOM      2  C   UNL     1       1.505   8.012  20.714  0.00  0.00    +0.000 A 
ATOM      3  C   UNL     1       2.191   7.633  19.560  0.00  0.00    +0.000 A 
ATOM      4  C   UNL     1       1.966   8.390  18.416  0.00  0.00    +0.000 A 
ATOM      5  C   UNL     1       1.198   9.561  18.464  0.00  0.00    +0.000 A 
ATOM      6  C   UNL     1       0.587  10.030  19.641  0.00  0.00    +0.000 A 
ENDROOT
BRANCH   6   7
ATOM      7  N   UNL     1      -0.064  11.246  19.602  0.00  0.00    +0.000 N 
ATOM      8  C   UNL     1       0.645  12.539  19.669  0.00  0.00    +0.000 C 
ATOM      9  C   UNL     1       0.027  13.411  20.776  0.00  0.00    +0.000 C 
ATOM     10  O   UNL     1      -1.391  13.573  20.598  0.00  0.00    +0.000 OA
ATOM     11  C   UNL     1      -2.045  12.294  20.587  0.00  0.00    +0.000 C 
ATOM     12  C   UNL     1      -1.520  11.389  19.456  0.00  0.00    +0.000 C 
ENDBRANCH   6   7
BRANCH   1  14
ATOM     13  O   UNL     1      -0.886   8.817  22.506  0.00  0.00    +0.000 OA
ATOM     14  C   UNL     1       0.044   9.468  22.070  0.00  0.00    +0.000 C 
BRANCH  14  15
ATOM     15  O   UNL     1       0.549  10.538  22.738  0.00  0.00    +0.000 OA
ATOM     16  H   UNL     1       1.517  10.636  22.695  0.00  0.00    +0.000 HD
ENDBRANCH  14  15
ENDBRANCH   1  14
BRANCH   3  17
ATOM     17  N   UNL     1       2.958   6.467  19.568  0.00  0.00    +0.000 N 
ATOM     18  H   UNL     1       3.955   6.647  19.632  0.00  0.00    +0.000 HD
BRANCH  17  19
ATOM     19  C   UNL     1       2.667   5.404  18.601  0.00  0.00    +0.000 C 
BRANCH  19  20
ATOM     20  C   UNL     1       3.790   5.232  17.598  0.00  0.00    +0.000 A 
ATOM     21  C   UNL     1       4.426   6.359  17.041  0.00  0.00    +0.000 A 
ATOM     22  C   UNL     1       5.416   6.221  16.066  0.00  0.00    +0.000 A 
ATOM     23  C   UNL     1       5.776   4.953  15.623  0.00  0.00    +0.000 A 
ATOM     24 CL   UNL     1       6.985   4.784  14.411  0.00  0.00    +0.000 Cl
ATOM     25  C   UNL     1       5.158   3.823  16.146  0.00  0.00    +0.000 A 
ATOM     26  C   UNL     1       4.166   3.962  17.121  0.00  0.00    +0.000 A 
ATOM     27 CL   UNL     1       3.415   2.511  17.692  0.00  0.00    +0.000 Cl
ENDBRANCH  19  20
ENDBRANCH  17  19
ENDBRANCH   3  17
TORSDOF 6
ENDMDL
