MODEL 1
REMARK VINA RESULT:      -7.7      0.000      0.000
REMARK  Name = 
REMARK  4 active torsions:
REMARK  status: ('A' for Active; 'I' for Inactive)
REMARK    1  A    between atoms: N_3  and  C_4
REMARK    2  A    between atoms: N_15  and  C_16
REMARK    3  A    between atoms: C_16  and  C_17
REMARK    4  A    between atoms: C_17  and  C_18
REMARK                            x       y       z     vdW  Elec       q    Type
REMARK                         _______ _______ _______ _____ _____    ______ ____
ROOT
ATOM      1  O   UNL     1       7.490   9.580  17.228  0.00  0.00    +0.000 OA
ATOM      2  C   UNL     1       7.956   8.716  17.969  0.00  0.00    +0.000 C 
ATOM      3  N   UNL     1       8.943   8.954  18.893  0.00  0.00    +0.000 N 
ATOM      4  N   UNL     1       7.493   7.414  17.912  0.00  0.00    +0.000 N 
ATOM      5  C   UNL     1       7.894   6.286  18.761  0.00  0.00    +0.000 C 
ATOM      6  C   UNL     1       6.669   5.657  19.452  0.00  0.00    +0.000 C 
ATOM      7  N   UNL     1       5.581   5.266  18.525  0.00  0.00    +0.000 NA
ATOM      8  C   UNL     1       5.205   6.469  17.737  0.00  0.00    +0.000 C 
ATOM      9  C   UNL     1       6.385   7.124  16.991  0.00  0.00    +0.000 C 
ATOM     10  H   UNL     1       9.485   8.164  19.185  0.00  0.00    +0.000 HD
ENDROOT
BRANCH   3  11
ATOM     11  C   UNL     1       9.488  10.216  19.214  0.00  0.00    +0.000 A 
ATOM     12  C   UNL     1      10.221  10.993  18.307  0.00  0.00    +0.000 A 
ATOM     13  C   UNL     1      10.830  12.180  18.717  0.00  0.00    +0.000 A 
ATOM     14  C   UNL     1      10.672  12.610  20.025  0.00  0.00    +0.000 A 
ATOM     15  F   UNL     1      11.284  13.730  20.428  0.00  0.00    +0.000 F 
ATOM     16  C   UNL     1       9.892  11.879  20.913  0.00  0.00    +0.000 A 
ATOM     17  F   UNL     1       9.725  12.305  22.173  0.00  0.00    +0.000 F 
ATOM     18  C   UNL     1       9.289  10.690  20.514  0.00  0.00    +0.000 A 
ENDBRANCH   3  11
BRANCH   7  19
ATOM     19  C   UNL     1       5.964   4.159  17.624  0.00  0.00    +0.000 C 
BRANCH  19  20
ATOM     20  C   UNL     1       4.850   3.739  16.659  0.00  0.00    +0.000 C 
BRANCH  20  21
ATOM     21  C   UNL     1       3.632   3.295  17.415  0.00  0.00    +0.000 A 
ATOM     22  C   UNL     1       2.399   3.901  17.207  0.00  0.00    +0.000 A 
ATOM     23  N   UNL     1       1.275   3.516  17.856  0.00  0.00    +0.000 NA
ATOM     24  C   UNL     1       1.434   2.491  18.723  0.00  0.00    +0.000 A 
ATOM     25  C   UNL     1       2.656   1.871  18.929  0.00  0.00    +0.000 A 
ATOM     26  N   UNL     1       3.777   2.256  18.281  0.00  0.00    +0.000 NA
ENDBRANCH  20  21
ENDBRANCH  19  20
ENDBRANCH   7  19
TORSDOF 4
ENDMDL
MODEL 2
REMARK VINA RESULT:      -7.6      0.669      1.403
REMARK  Name = 
REMARK  4 active torsions:
REMARK  status: ('A' for Active; 'I' for Inactive)
REMARK    1  A    between atoms: N_3  and  C_4
REMARK    2  A    between atoms: N_15  and  C_16
REMARK    3  A    between atoms: C_16  and  C_17
REMARK    4  A    between atoms: C_17  and  C_18
REMARK                            x       y       z     vdW  Elec       q    Type
REMARK                         _______ _______ _______ _____ _____    ______ ____
ROOT
ATOM      1  O   UNL     1       7.422   9.586  17.233  0.00  0.00    +0.000 OA
ATOM      2  C   UNL     1       7.907   8.711  17.950  0.00  0.00    +0.000 C 
ATOM      3  N   UNL     1       8.914   8.939  18.856  0.00  0.00    +0.000 N 
ATOM      4  N   UNL     1       7.447   7.409  17.882  0.00  0.00    +0.000 N 
ATOM      5  C   UNL     1       7.871   6.269  18.704  0.00  0.00    +0.000 C 
ATOM      6  C   UNL     1       6.663   5.625  19.412  0.00  0.00    +0.000 C 
ATOM      7  N   UNL     1       5.557   5.245  18.503  0.00  0.00    +0.000 NA
ATOM      8  C   UNL     1       5.160   6.459  17.742  0.00  0.00    +0.000 C 
ATOM      9  C   UNL     1       6.321   7.129  16.981  0.00  0.00    +0.000 C 
ATOM     10  H   UNL     1       9.465   8.147  19.124  0.00  0.00    +0.000 HD
ENDROOT
BRANCH   3  11
ATOM     11  C   UNL     1       9.460  10.198  19.185  0.00  0.00    +0.000 A 
ATOM     12  C   UNL     1       9.437  10.735  20.479  0.00  0.00    +0.000 A 
ATOM     13  C   UNL     1       9.893  12.032  20.719  0.00  0.00    +0.000 A 
ATOM     14  C   UNL     1      10.407  12.778  19.671  0.00  0.00    +0.000 A 
ATOM     15  F   UNL     1      10.812  14.035  19.894  0.00  0.00    +0.000 F 
ATOM     16  C   UNL     1      10.494  12.229  18.397  0.00  0.00    +0.000 A 
ATOM     17  F   UNL     1      11.008  12.946  17.387  0.00  0.00    +0.000 F 
ATOM     18  C   UNL     1      10.034  10.940  18.148  0.00  0.00    +0.000 A 
ENDBRANCH   3  11
BRANCH   7  19
ATOM     19  C   UNL     1       5.924   4.153  17.577  0.00  0.00    +0.000 C 
BRANCH  19  20
ATOM     20  C   UNL     1       4.792   3.747  16.627  0.00  0.00    +0.000 C 
BRANCH  20  21
ATOM     21  C   UNL     1       3.590   3.287  17.399  0.00  0.00    +0.000 A 
ATOM     22  C   UNL     1       2.365   3.932  17.270  0.00  0.00    +0.000 A 
ATOM     23  N   UNL     1       1.256   3.535  17.935  0.00  0.00    +0.000 NA
ATOM     24  C   UNL     1       1.419   2.459  18.737  0.00  0.00    +0.000 A 
ATOM     25  C   UNL     1       2.632   1.801  18.864  0.00  0.00    +0.000 A 
ATOM     26  N   UNL     1       3.739   2.198  18.200  0.00  0.00    +0.000 NA
ENDBRANCH  20  21
ENDBRANCH  19  20
ENDBRANCH   7  19
TORSDOF 4
ENDMDL
MODEL 3
REMARK VINA RESULT:      -7.4      5.464      7.478
REMARK  Name = 
REMARK  4 active torsions:
REMARK  status: ('A' for Active; 'I' for Inactive)
REMARK    1  A    between atoms: N_3  and  C_4
REMARK    2  A    between atoms: N_15  and  C_16
REMARK    3  A    between atoms: C_16  and  C_17
REMARK    4  A    between atoms: C_17  and  C_18
REMARK                            x       y       z     vdW  Elec       q    Type
REMARK                         _______ _______ _______ _____ _____    ______ ____
ROOT
ATOM      1  O   UNL     1       1.734   8.645  19.196  0.00  0.00    +0.000 OA
ATOM      2  C   UNL     1       1.739   7.810  20.099  0.00  0.00    +0.000 C 
ATOM      3  N   UNL     1       1.266   8.053  21.366  0.00  0.00    +0.000 N 
ATOM      4  N   UNL     1       2.234   6.538  19.881  0.00  0.00    +0.000 N 
ATOM      5  C   UNL     1       2.256   5.414  20.825  0.00  0.00    +0.000 C 
ATOM      6  C   UNL     1       1.548   4.183  20.229  0.00  0.00    +0.000 C 
ATOM      7  N   UNL     1       2.058   3.772  18.900  0.00  0.00    +0.000 NA
ATOM      8  C   UNL     1       1.961   4.948  17.996  0.00  0.00    +0.000 C 
ATOM      9  C   UNL     1       2.683   6.204  18.522  0.00  0.00    +0.000 C 
ATOM     10  H   UNL     1       1.620   7.468  22.097  0.00  0.00    +0.000 HD
ENDROOT
BRANCH   3  11
ATOM     11  C   UNL     1       0.612   9.229  21.792  0.00  0.00    +0.000 A 
ATOM     12  C   UNL     1      -0.284   9.267  22.869  0.00  0.00    +0.000 A 
ATOM     13  C   UNL     1      -0.985  10.434  23.171  0.00  0.00    +0.000 A 
ATOM     14  C   UNL     1      -0.761  11.577  22.419  0.00  0.00    +0.000 A 
ATOM     15  F   UNL     1      -1.460  12.688  22.686  0.00  0.00    +0.000 F 
ATOM     16  C   UNL     1       0.173  11.566  21.390  0.00  0.00    +0.000 A 
ATOM     17  F   UNL     1       0.401  12.676  20.674  0.00  0.00    +0.000 F 
ATOM     18  C   UNL     1       0.870  10.403  21.078  0.00  0.00    +0.000 A 
ENDBRANCH   3  11
BRANCH   7  19
ATOM     19  C   UNL     1       3.448   3.271  18.947  0.00  0.00    +0.000 C 
BRANCH  19  20
ATOM     20  C   UNL     1       4.214   3.462  17.634  0.00  0.00    +0.000 C 
BRANCH  20  21
ATOM     21  C   UNL     1       5.473   4.249  17.863  0.00  0.00    +0.000 A 
ATOM     22  C   UNL     1       6.321   4.566  16.809  0.00  0.00    +0.000 A 
ATOM     23  N   UNL     1       7.453   5.289  16.974  0.00  0.00    +0.000 NA
ATOM     24  C   UNL     1       7.703   5.687  18.241  0.00  0.00    +0.000 A 
ATOM     25  C   UNL     1       6.858   5.386  19.297  0.00  0.00    +0.000 A 
ATOM     26  N   UNL     1       5.728   4.665  19.132  0.00  0.00    +0.000 NA
ENDBRANCH  20  21
ENDBRANCH  19  20
ENDBRANCH   7  19
TORSDOF 4
ENDMDL
MODEL 4
REMARK VINA RESULT:      -7.3      5.439      7.453
REMARK  Name = 
REMARK  4 active torsions:
REMARK  status: ('A' for Active; 'I' for Inactive)
REMARK    1  A    between atoms: N_3  and  C_4
REMARK    2  A    between atoms: N_15  and  C_16
REMARK    3  A    between atoms: C_16  and  C_17
REMARK    4  A    between atoms: C_17  and  C_18
REMARK                            x       y       z     vdW  Elec       q    Type
REMARK                         _______ _______ _______ _____ _____    ______ ____
ROOT
ATOM      1  O   UNL     1       1.700   8.602  19.170  0.00  0.00    +0.000 OA
ATOM      2  C   UNL     1       1.664   7.754  20.061  0.00  0.00    +0.000 C 
ATOM      3  N   UNL     1       1.201   8.001  21.330  0.00  0.00    +0.000 N 
ATOM      4  N   UNL     1       2.100   6.464  19.824  0.00  0.00    +0.000 N 
ATOM      5  C   UNL     1       2.068   5.327  20.752  0.00  0.00    +0.000 C 
ATOM      6  C   UNL     1       1.305   4.139  20.136  0.00  0.00    +0.000 C 
ATOM      7  N   UNL     1       1.798   3.724  18.802  0.00  0.00    +0.000 NA
ATOM      8  C   UNL     1       1.758   4.917  17.915  0.00  0.00    +0.000 C 
ATOM      9  C   UNL     1       2.537   6.130  18.461  0.00  0.00    +0.000 C 
ATOM     10  H   UNL     1       1.525   7.389  22.053  0.00  0.00    +0.000 HD
ENDROOT
BRANCH   3  11
ATOM     11  C   UNL     1       0.601   9.199  21.773  0.00  0.00    +0.000 A 
ATOM     12  C   UNL     1      -0.286   9.264  22.856  0.00  0.00    +0.000 A 
ATOM     13  C   UNL     1      -0.934  10.458  23.175  0.00  0.00    +0.000 A 
ATOM     14  C   UNL     1      -0.665  11.598  22.433  0.00  0.00    +0.000 A 
ATOM     15  F   UNL     1      -1.313  12.735  22.716  0.00  0.00    +0.000 F 
ATOM     16  C   UNL     1       0.261  11.557  21.398  0.00  0.00    +0.000 A 
ATOM     17  F   UNL     1       0.533  12.664  20.692  0.00  0.00    +0.000 F 
ATOM     18  C   UNL     1       0.905  10.368  21.069  0.00  0.00    +0.000 A 
ENDBRANCH   3  11
BRANCH   7  19
ATOM     19  C   UNL     1       3.163   3.159  18.844  0.00  0.00    +0.000 C 
BRANCH  19  20
ATOM     20  C   UNL     1       3.897   3.226  17.501  0.00  0.00    +0.000 C 
BRANCH  20  21
ATOM     21  C   UNL     1       5.222   3.916  17.654  0.00  0.00    +0.000 A 
ATOM     22  C   UNL     1       5.641   4.397  18.888  0.00  0.00    +0.000 A 
ATOM     23  N   UNL     1       6.836   5.007  19.069  0.00  0.00    +0.000 NA
ATOM     24  C   UNL     1       7.601   5.114  17.960  0.00  0.00    +0.000 A 
ATOM     25  C   UNL     1       7.199   4.627  16.727  0.00  0.00    +0.000 A 
ATOM     26  N   UNL     1       6.007   4.018  16.547  0.00  0.00    +0.000 NA
ENDBRANCH  20  21
ENDBRANCH  19  20
ENDBRANCH   7  19
TORSDOF 4
ENDMDL
MODEL 5
REMARK VINA RESULT:      -7.3      8.204     10.029
REMARK  Name = 
REMARK  4 active torsions:
REMARK  status: ('A' for Active; 'I' for Inactive)
REMARK    1  A    between atoms: N_3  and  C_4
REMARK    2  A    between atoms: N_15  and  C_16
REMARK    3  A    between atoms: C_16  and  C_17
REMARK    4  A    between atoms: C_17  and  C_18
REMARK                            x       y       z     vdW  Elec       q    Type
REMARK                         _______ _______ _______ _____ _____    ______ ____
ROOT
ATOM      1  O   UNL     1       2.226   8.934  17.342  0.00  0.00    +0.000 OA
ATOM      2  C   UNL     1       1.928   8.460  18.437  0.00  0.00    +0.000 C 
ATOM      3  N   UNL     1       2.305   7.207  18.854  0.00  0.00    +0.000 N 
ATOM      4  N   UNL     1       1.176   9.188  19.340  0.00  0.00    +0.000 N 
ATOM      5  C   UNL     1       0.790   8.797  20.701  0.00  0.00    +0.000 C 
ATOM      6  C   UNL     1       1.251   9.851  21.726  0.00  0.00    +0.000 C 
ATOM      7  N   UNL     1       0.805  11.230  21.422  0.00  0.00    +0.000 NA
ATOM      8  C   UNL     1       1.271  11.564  20.050  0.00  0.00    +0.000 C 
ATOM      9  C   UNL     1       0.810  10.563  18.971  0.00  0.00    +0.000 C 
ATOM     10  H   UNL     1       1.748   6.785  19.571  0.00  0.00    +0.000 HD
ENDROOT
BRANCH   3  11
ATOM     11  C   UNL     1       3.166   6.330  18.160  0.00  0.00    +0.000 A 
ATOM     12  C   UNL     1       4.411   6.718  17.644  0.00  0.00    +0.000 A 
ATOM     13  C   UNL     1       5.166   5.836  16.871  0.00  0.00    +0.000 A 
ATOM     14  C   UNL     1       4.694   4.553  16.644  0.00  0.00    +0.000 A 
ATOM     15  F   UNL     1       5.402   3.718  15.872  0.00  0.00    +0.000 F 
ATOM     16  C   UNL     1       3.493   4.140  17.206  0.00  0.00    +0.000 A 
ATOM     17  F   UNL     1       3.046   2.892  17.000  0.00  0.00    +0.000 F 
ATOM     18  C   UNL     1       2.730   5.016  17.971  0.00  0.00    +0.000 A 
ENDBRANCH   3  11
BRANCH   7  19
ATOM     19  C   UNL     1      -0.660  11.397  21.524  0.00  0.00    +0.000 C 
BRANCH  19  20
ATOM     20  C   UNL     1      -1.211  11.139  22.930  0.00  0.00    +0.000 C 
BRANCH  20  21
ATOM     21  C   UNL     1      -2.111  12.261  23.362  0.00  0.00    +0.000 A 
ATOM     22  C   UNL     1      -1.664  13.577  23.365  0.00  0.00    +0.000 A 
ATOM     23  N   UNL     1      -2.450  14.616  23.729  0.00  0.00    +0.000 NA
ATOM     24  C   UNL     1      -3.710  14.286  24.090  0.00  0.00    +0.000 A 
ATOM     25  C   UNL     1      -4.170  12.979  24.080  0.00  0.00    +0.000 A 
ATOM     26  N   UNL     1      -3.384  11.942  23.716  0.00  0.00    +0.000 NA
ENDBRANCH  20  21
ENDBRANCH  19  20
ENDBRANCH   7  19
TORSDOF 4
ENDMDL
MODEL 6
REMARK VINA RESULT:      -7.3      5.753      7.724
REMARK  Name = 
REMARK  4 active torsions:
REMARK  status: ('A' for Active; 'I' for Inactive)
REMARK    1  A    between atoms: N_3  and  C_4
REMARK    2  A    between atoms: N_15  and  C_16
REMARK    3  A    between atoms: C_16  and  C_17
REMARK    4  A    between atoms: C_17  and  C_18
REMARK                            x       y       z     vdW  Elec       q    Type
REMARK                         _______ _______ _______ _____ _____    ______ ____
ROOT
ATOM      1  O   UNL     1       1.617   6.206  20.623  0.00  0.00    +0.000 OA
ATOM      2  C   UNL     1       2.025   6.977  19.755  0.00  0.00    +0.000 C 
ATOM      3  N   UNL     1       1.731   8.318  19.726  0.00  0.00    +0.000 N 
ATOM      4  N   UNL     1       2.832   6.520  18.729  0.00  0.00    +0.000 N 
ATOM      5  C   UNL     1       3.450   7.313  17.659  0.00  0.00    +0.000 C 
ATOM      6  C   UNL     1       4.977   7.110  17.639  0.00  0.00    +0.000 C 
ATOM      7  N   UNL     1       5.402   5.693  17.565  0.00  0.00    +0.000 NA
ATOM      8  C   UNL     1       4.771   4.973  18.703  0.00  0.00    +0.000 C 
ATOM      9  C   UNL     1       3.236   5.107  18.757  0.00  0.00    +0.000 C 
ATOM     10  H   UNL     1       1.802   8.774  18.838  0.00  0.00    +0.000 HD
ENDROOT
BRANCH   3  11
ATOM     11  C   UNL     1       1.028   9.031  20.721  0.00  0.00    +0.000 A 
ATOM     12  C   UNL     1       1.201   8.814  22.094  0.00  0.00    +0.000 A 
ATOM     13  C   UNL     1       0.396   9.471  23.026  0.00  0.00    +0.000 A 
ATOM     14  C   UNL     1      -0.557  10.374  22.584  0.00  0.00    +0.000 A 
ATOM     15  F   UNL     1      -1.354  10.978  23.476  0.00  0.00    +0.000 F 
ATOM     16  C   UNL     1      -0.691  10.644  21.228  0.00  0.00    +0.000 A 
ATOM     17  F   UNL     1      -1.602  11.532  20.804  0.00  0.00    +0.000 F 
ATOM     18  C   UNL     1       0.102   9.987  20.293  0.00  0.00    +0.000 A 
ENDBRANCH   3  11
BRANCH   7  19
ATOM     19  C   UNL     1       5.040   5.050  16.284  0.00  0.00    +0.000 C 
BRANCH  19  20
ATOM     20  C   UNL     1       6.010   3.943  15.857  0.00  0.00    +0.000 C 
BRANCH  20  21
ATOM     21  C   UNL     1       6.549   4.211  14.481  0.00  0.00    +0.000 A 
ATOM     22  C   UNL     1       6.062   3.524  13.375  0.00  0.00    +0.000 A 
ATOM     23  N   UNL     1       6.509   3.752  12.118  0.00  0.00    +0.000 NA
ATOM     24  C   UNL     1       7.465   4.700  12.010  0.00  0.00    +0.000 A 
ATOM     25  C   UNL     1       7.949   5.399  13.104  0.00  0.00    +0.000 A 
ATOM     26  N   UNL     1       7.502   5.172  14.358  0.00  0.00    +0.000 NA
ENDBRANCH  20  21
ENDBRANCH  19  20
ENDBRANCH   7  19
TORSDOF 4
ENDMDL
MODEL 7
REMARK VINA RESULT:      -7.2      8.137      9.883
REMARK  Name = 
REMARK  4 active torsions:
REMARK  status: ('A' for Active; 'I' for Inactive)
REMARK    1  A    between atoms: N_3  and  C_4
REMARK    2  A    between atoms: N_15  and  C_16
REMARK    3  A    between atoms: C_16  and  C_17
REMARK    4  A    between atoms: C_17  and  C_18
REMARK                            x       y       z     vdW  Elec       q    Type
REMARK                         _______ _______ _______ _____ _____    ______ ____
ROOT
ATOM      1  O   UNL     1       2.176   9.163  17.455  0.00  0.00    +0.000 OA
ATOM      2  C   UNL     1       1.913   8.591  18.513  0.00  0.00    +0.000 C 
ATOM      3  N   UNL     1       2.345   7.324  18.823  0.00  0.00    +0.000 N 
ATOM      4  N   UNL     1       1.145   9.213  19.479  0.00  0.00    +0.000 N 
ATOM      5  C   UNL     1       0.795   8.700  20.809  0.00  0.00    +0.000 C 
ATOM      6  C   UNL     1       1.228   9.686  21.910  0.00  0.00    +0.000 C 
ATOM      7  N   UNL     1       0.724  11.066  21.723  0.00  0.00    +0.000 NA
ATOM      8  C   UNL     1       1.157  11.527  20.377  0.00  0.00    +0.000 C 
ATOM      9  C   UNL     1       0.720  10.597  19.226  0.00  0.00    +0.000 C 
ATOM     10  H   UNL     1       1.815   6.825  19.510  0.00  0.00    +0.000 HD
ENDROOT
BRANCH   3  11
ATOM     11  C   UNL     1       3.230   6.541  18.051  0.00  0.00    +0.000 A 
ATOM     12  C   UNL     1       4.338   7.069  17.376  0.00  0.00    +0.000 A 
ATOM     13  C   UNL     1       5.111   6.264  16.538  0.00  0.00    +0.000 A 
ATOM     14  C   UNL     1       4.797   4.920  16.406  0.00  0.00    +0.000 A 
ATOM     15  F   UNL     1       5.516   4.155  15.575  0.00  0.00    +0.000 F 
ATOM     16  C   UNL     1       3.739   4.375  17.123  0.00  0.00    +0.000 A 
ATOM     17  F   UNL     1       3.447   3.071  17.007  0.00  0.00    +0.000 F 
ATOM     18  C   UNL     1       2.959   5.173  17.954  0.00  0.00    +0.000 A 
ENDBRANCH   3  11
BRANCH   7  19
ATOM     19  C   UNL     1      -0.745  11.165  21.853  0.00  0.00    +0.000 C 
BRANCH  19  20
ATOM     20  C   UNL     1      -1.204  12.286  22.792  0.00  0.00    +0.000 C 
BRANCH  20  21
ATOM     21  C   UNL     1      -2.690  12.483  22.697  0.00  0.00    +0.000 A 
ATOM     22  C   UNL     1      -3.509  12.302  23.805  0.00  0.00    +0.000 A 
ATOM     23  N   UNL     1      -4.848  12.488  23.763  0.00  0.00    +0.000 NA
ATOM     24  C   UNL     1      -5.339  12.868  22.563  0.00  0.00    +0.000 A 
ATOM     25  C   UNL     1      -4.531  13.063  21.454  0.00  0.00    +0.000 A 
ATOM     26  N   UNL     1      -3.194  12.877  21.497  0.00  0.00    +0.000 NA
ENDBRANCH  20  21
ENDBRANCH  19  20
ENDBRANCH   7  19
TORSDOF 4
ENDMDL
MODEL 8
REMARK VINA RESULT:      -7.1      7.762      9.577
REMARK  Name = 
REMARK  4 active torsions:
REMARK  status: ('A' for Active; 'I' for Inactive)
REMARK    1  A    between atoms: N_3  and  C_4
REMARK    2  A    between atoms: N_15  and  C_16
REMARK    3  A    between atoms: C_16  and  C_17
REMARK    4  A    between atoms: C_17  and  C_18
REMARK                            x       y       z     vdW  Elec       q    Type
REMARK                         _______ _______ _______ _____ _____    ______ ____
ROOT
ATOM      1  O   UNL     1       2.029   8.806  17.477  0.00  0.00    +0.000 OA
ATOM      2  C   UNL     1       1.902   8.266  18.575  0.00  0.00    +0.000 C 
ATOM      3  N   UNL     1       2.452   7.050  18.896  0.00  0.00    +0.000 N 
ATOM      4  N   UNL     1       1.176   8.878  19.581  0.00  0.00    +0.000 N 
ATOM      5  C   UNL     1       0.981   8.403  20.956  0.00  0.00    +0.000 C 
ATOM      6  C   UNL     1       1.433   9.468  21.973  0.00  0.00    +0.000 C 
ATOM      7  N   UNL     1       0.813  10.799  21.776  0.00  0.00    +0.000 NA
ATOM      8  C   UNL     1       1.093  11.225  20.380  0.00  0.00    +0.000 C 
ATOM      9  C   UNL     1       0.629  10.215  19.311  0.00  0.00    +0.000 C 
ATOM     10  H   UNL     1       2.022   6.547  19.648  0.00  0.00    +0.000 HD
ENDROOT
BRANCH   3  11
ATOM     11  C   UNL     1       3.323   6.296  18.081  0.00  0.00    +0.000 A 
ATOM     12  C   UNL     1       3.061   4.977  17.684  0.00  0.00    +0.000 A 
ATOM     13  C   UNL     1       4.013   4.246  16.972  0.00  0.00    +0.000 A 
ATOM     14  C   UNL     1       5.212   4.847  16.623  0.00  0.00    +0.000 A 
ATOM     15  F   UNL     1       6.139   4.135  15.971  0.00  0.00    +0.000 F 
ATOM     16  C   UNL     1       5.453   6.174  16.956  0.00  0.00    +0.000 A 
ATOM     17  F   UNL     1       6.606   6.760  16.603  0.00  0.00    +0.000 F 
ATOM     18  C   UNL     1       4.512   6.907  17.674  0.00  0.00    +0.000 A 
ENDBRANCH   3  11
BRANCH   7  19
ATOM     19  C   UNL     1      -0.643  10.799  22.034  0.00  0.00    +0.000 C 
BRANCH  19  20
ATOM     20  C   UNL     1      -1.111  11.968  22.908  0.00  0.00    +0.000 C 
BRANCH  20  21
ATOM     21  C   UNL     1      -2.553  12.287  22.638  0.00  0.00    +0.000 A 
ATOM     22  C   UNL     1      -3.480  12.342  23.672  0.00  0.00    +0.000 A 
ATOM     23  N   UNL     1      -4.784  12.645  23.471  0.00  0.00    +0.000 NA
ATOM     24  C   UNL     1      -5.125  12.895  22.188  0.00  0.00    +0.000 A 
ATOM     25  C   UNL     1      -4.207  12.855  21.150  0.00  0.00    +0.000 A 
ATOM     26  N   UNL     1      -2.906  12.553  21.352  0.00  0.00    +0.000 NA
ENDBRANCH  20  21
ENDBRANCH  19  20
ENDBRANCH   7  19
TORSDOF 4
ENDMDL
MODEL 9
REMARK VINA RESULT:      -7.1      8.010      9.851
REMARK  Name = 
REMARK  4 active torsions:
REMARK  status: ('A' for Active; 'I' for Inactive)
REMARK    1  A    between atoms: N_3  and  C_4
REMARK    2  A    between atoms: N_15  and  C_16
REMARK    3  A    between atoms: C_16  and  C_17
REMARK    4  A    between atoms: C_17  and  C_18
REMARK                            x       y       z     vdW  Elec       q    Type
REMARK                         _______ _______ _______ _____ _____    ______ ____
ROOT
ATOM      1  O   UNL     1       2.179   9.066  17.340  0.00  0.00    +0.000 OA
ATOM      2  C   UNL     1       1.870   8.555  18.415  0.00  0.00    +0.000 C 
ATOM      3  N   UNL     1       2.234   7.284  18.788  0.00  0.00    +0.000 N 
ATOM      4  N   UNL     1       1.117   9.255  19.339  0.00  0.00    +0.000 N 
ATOM      5  C   UNL     1       0.718   8.818  20.682  0.00  0.00    +0.000 C 
ATOM      6  C   UNL     1       1.180   9.830  21.748  0.00  0.00    +0.000 C 
ATOM      7  N   UNL     1       0.748  11.224  21.491  0.00  0.00    +0.000 NA
ATOM      8  C   UNL     1       1.226  11.603  20.136  0.00  0.00    +0.000 C 
ATOM      9  C   UNL     1       0.765  10.646  19.018  0.00  0.00    +0.000 C 
ATOM     10  H   UNL     1       1.668   6.841  19.486  0.00  0.00    +0.000 HD
ENDROOT
BRANCH   3  11
ATOM     11  C   UNL     1       3.093   6.426  18.069  0.00  0.00    +0.000 A 
ATOM     12  C   UNL     1       2.796   5.082  17.803  0.00  0.00    +0.000 A 
ATOM     13  C   UNL     1       3.734   4.255  17.186  0.00  0.00    +0.000 A 
ATOM     14  C   UNL     1       4.957   4.781  16.799  0.00  0.00    +0.000 A 
ATOM     15  F   UNL     1       5.871   3.979  16.238  0.00  0.00    +0.000 F 
ATOM     16  C   UNL     1       5.233   6.128  17.000  0.00  0.00    +0.000 A 
ATOM     17  F   UNL     1       6.409   6.641  16.609  0.00  0.00    +0.000 F 
ATOM     18  C   UNL     1       4.306   6.957  17.622  0.00  0.00    +0.000 A 
ENDBRANCH   3  11
BRANCH   7  19
ATOM     19  C   UNL     1      -0.717  11.398  21.589  0.00  0.00    +0.000 C 
BRANCH  19  20
ATOM     20  C   UNL     1      -1.271  11.161  22.998  0.00  0.00    +0.000 C 
BRANCH  20  21
ATOM     21  C   UNL     1      -2.187  12.279  23.404  0.00  0.00    +0.000 A 
ATOM     22  C   UNL     1      -1.760  13.601  23.377  0.00  0.00    +0.000 A 
ATOM     23  N   UNL     1      -2.562  14.636  23.717  0.00  0.00    +0.000 NA
ATOM     24  C   UNL     1      -3.817  14.296  24.084  0.00  0.00    +0.000 A 
ATOM     25  C   UNL     1      -4.258  12.982  24.103  0.00  0.00    +0.000 A 
ATOM     26  N   UNL     1      -3.457  11.949  23.763  0.00  0.00    +0.000 NA
ENDBRANCH  20  21
ENDBRANCH  19  20
ENDBRANCH   7  19
TORSDOF 4
ENDMDL
