MODEL 1
REMARK VINA RESULT:      -7.4      0.000      0.000
REMARK  Name = 
REMARK  1 active torsions:
REMARK  status: ('A' for Active; 'I' for Inactive)
REMARK    1  A    between atoms: C_7  and  C_8
REMARK                            x       y       z     vdW  Elec       q    Type
REMARK                         _______ _______ _______ _____ _____    ______ ____
ROOT
ATOM      1  C   UNL     1       3.733   3.829  17.783  0.00  0.00    +0.000 A 
ATOM      2  C   UNL     1       2.420   4.226  17.459  0.00  0.00    +0.000 A 
ATOM      3  C   UNL     1       1.387   4.117  18.394  0.00  0.00    +0.000 A 
ATOM      4  C   UNL     1       1.689   3.578  19.626  0.00  0.00    +0.000 A 
ATOM      5  C   UNL     1       2.971   3.161  19.951  0.00  0.00    +0.000 A 
ATOM      6  C   UNL     1       4.013   3.289  19.047  0.00  0.00    +0.000 A 
ATOM      7  C   UNL     1       2.979   2.675  21.350  0.00  0.00    +0.000 C 
ATOM      8  C   UNL     1       1.469   2.541  21.566  0.00  0.00    +0.000 C 
ATOM      9  O   UNL     1       0.782   3.414  20.640  0.00  0.00    +0.000 OA
ENDROOT
BRANCH   1  16
ATOM     10  O   UNL     1       7.017   4.300  14.929  0.00  0.00    +0.000 OA
ATOM     11  C   UNL     1       6.825   5.049  15.867  0.00  0.00    +0.000 C 
ATOM     12  O   UNL     1       7.562   6.154  16.165  0.00  0.00    +0.000 OA
ATOM     13  C   UNL     1       6.955   6.881  17.235  0.00  0.00    +0.000 C 
ATOM     14  C   UNL     1       6.018   5.933  17.947  0.00  0.00    +0.000 C 
ATOM     15  C   UNL     1       5.771   4.915  16.899  0.00  0.00    +0.000 C 
ATOM     16  C   UNL     1       4.808   3.990  16.799  0.00  0.00    +0.000 C 
ENDBRANCH   1  16
TORSDOF 1
ENDMDL
MODEL 2
REMARK VINA RESULT:      -7.3      1.533      6.149
REMARK  Name = 
REMARK  1 active torsions:
REMARK  status: ('A' for Active; 'I' for Inactive)
REMARK    1  A    between atoms: C_7  and  C_8
REMARK                            x       y       z     vdW  Elec       q    Type
REMARK                         _______ _______ _______ _____ _____    ______ ____
ROOT
ATOM      1  C   UNL     1       5.272   4.120  18.137  0.00  0.00    +0.000 A 
ATOM      2  C   UNL     1       6.426   4.873  18.438  0.00  0.00    +0.000 A 
ATOM      3  C   UNL     1       7.227   5.393  17.419  0.00  0.00    +0.000 A 
ATOM      4  C   UNL     1       6.873   5.116  16.116  0.00  0.00    +0.000 A 
ATOM      5  C   UNL     1       5.755   4.357  15.805  0.00  0.00    +0.000 A 
ATOM      6  C   UNL     1       4.932   3.859  16.803  0.00  0.00    +0.000 A 
ATOM      7  C   UNL     1       5.621   4.278  14.333  0.00  0.00    +0.000 C 
ATOM      8  C   UNL     1       7.018   4.766  13.939  0.00  0.00    +0.000 C 
ATOM      9  O   UNL     1       7.560   5.561  15.018  0.00  0.00    +0.000 OA
ENDROOT
BRANCH   1  16
ATOM     10  O   UNL     1       2.651   2.634  21.311  0.00  0.00    +0.000 OA
ATOM     11  C   UNL     1       2.529   3.726  20.790  0.00  0.00    +0.000 C 
ATOM     12  O   UNL     1       1.598   4.663  21.119  0.00  0.00    +0.000 OA
ATOM     13  C   UNL     1       1.852   5.881  20.417  0.00  0.00    +0.000 C 
ATOM     14  C   UNL     1       2.735   5.545  19.238  0.00  0.00    +0.000 C 
ATOM     15  C   UNL     1       3.342   4.266  19.677  0.00  0.00    +0.000 C 
ATOM     16  C   UNL     1       4.424   3.620  19.224  0.00  0.00    +0.000 C 
ENDBRANCH   1  16
TORSDOF 1
ENDMDL
MODEL 3
REMARK VINA RESULT:      -7.2      0.990      1.721
REMARK  Name = 
REMARK  1 active torsions:
REMARK  status: ('A' for Active; 'I' for Inactive)
REMARK    1  A    between atoms: C_7  and  C_8
REMARK                            x       y       z     vdW  Elec       q    Type
REMARK                         _______ _______ _______ _____ _____    ______ ____
ROOT
ATOM      1  C   UNL     1       4.047   5.197  18.463  0.00  0.00    +0.000 A 
ATOM      2  C   UNL     1       2.809   5.438  17.832  0.00  0.00    +0.000 A 
ATOM      3  C   UNL     1       1.621   4.945  18.376  0.00  0.00    +0.000 A 
ATOM      4  C   UNL     1       1.704   4.188  19.525  0.00  0.00    +0.000 A 
ATOM      5  C   UNL     1       2.917   3.923  20.144  0.00  0.00    +0.000 A 
ATOM      6  C   UNL     1       4.101   4.430  19.635  0.00  0.00    +0.000 A 
ATOM      7  C   UNL     1       2.669   3.130  21.369  0.00  0.00    +0.000 C 
ATOM      8  C   UNL     1       1.225   2.703  21.091  0.00  0.00    +0.000 C 
ATOM      9  O   UNL     1       0.625   3.644  20.171  0.00  0.00    +0.000 OA
ENDROOT
BRANCH   1  16
ATOM     10  O   UNL     1       7.657   6.904  16.671  0.00  0.00    +0.000 OA
ATOM     11  C   UNL     1       7.051   5.959  16.202  0.00  0.00    +0.000 C 
ATOM     12  O   UNL     1       7.402   5.268  15.083  0.00  0.00    +0.000 OA
ATOM     13  C   UNL     1       6.558   4.126  14.921  0.00  0.00    +0.000 C 
ATOM     14  C   UNL     1       5.316   4.365  15.747  0.00  0.00    +0.000 C 
ATOM     15  C   UNL     1       5.798   5.370  16.724  0.00  0.00    +0.000 C 
ATOM     16  C   UNL     1       5.276   5.760  17.895  0.00  0.00    +0.000 C 
ENDBRANCH   1  16
TORSDOF 1
ENDMDL
MODEL 4
REMARK VINA RESULT:      -7.2      1.074      1.392
REMARK  Name = 
REMARK  1 active torsions:
REMARK  status: ('A' for Active; 'I' for Inactive)
REMARK    1  A    between atoms: C_7  and  C_8
REMARK                            x       y       z     vdW  Elec       q    Type
REMARK                         _______ _______ _______ _____ _____    ______ ____
ROOT
ATOM      1  C   UNL     1       3.876   3.759  17.685  0.00  0.00    +0.000 A 
ATOM      2  C   UNL     1       3.743   2.356  17.729  0.00  0.00    +0.000 A 
ATOM      3  C   UNL     1       2.932   1.743  18.687  0.00  0.00    +0.000 A 
ATOM      4  C   UNL     1       2.297   2.552  19.606  0.00  0.00    +0.000 A 
ATOM      5  C   UNL     1       2.437   3.932  19.589  0.00  0.00    +0.000 A 
ATOM      6  C   UNL     1       3.213   4.557  18.627  0.00  0.00    +0.000 A 
ATOM      7  C   UNL     1       1.601   4.512  20.665  0.00  0.00    +0.000 C 
ATOM      8  C   UNL     1       1.323   3.238  21.467  0.00  0.00    +0.000 C 
ATOM      9  O   UNL     1       1.470   2.093  20.597  0.00  0.00    +0.000 OA
ENDROOT
BRANCH   1  16
ATOM     10  O   UNL     1       6.427   5.554  14.616  0.00  0.00    +0.000 OA
ATOM     11  C   UNL     1       6.618   5.677  15.811  0.00  0.00    +0.000 C 
ATOM     12  O   UNL     1       7.618   6.402  16.384  0.00  0.00    +0.000 OA
ATOM     13  C   UNL     1       7.441   6.456  17.801  0.00  0.00    +0.000 C 
ATOM     14  C   UNL     1       6.520   5.319  18.182  0.00  0.00    +0.000 C 
ATOM     15  C   UNL     1       5.831   5.053  16.897  0.00  0.00    +0.000 C 
ATOM     16  C   UNL     1       4.700   4.380  16.644  0.00  0.00    +0.000 C 
ENDBRANCH   1  16
TORSDOF 1
ENDMDL
MODEL 5
REMARK VINA RESULT:      -7.1      2.050      3.258
REMARK  Name = 
REMARK  1 active torsions:
REMARK  status: ('A' for Active; 'I' for Inactive)
REMARK    1  A    between atoms: C_7  and  C_8
REMARK                            x       y       z     vdW  Elec       q    Type
REMARK                         _______ _______ _______ _____ _____    ______ ____
ROOT
ATOM      1  C   UNL     1       5.168   4.929  16.359  0.00  0.00    +0.000 A 
ATOM      2  C   UNL     1       4.450   5.999  16.932  0.00  0.00    +0.000 A 
ATOM      3  C   UNL     1       3.401   5.761  17.824  0.00  0.00    +0.000 A 
ATOM      4  C   UNL     1       3.070   4.450  18.094  0.00  0.00    +0.000 A 
ATOM      5  C   UNL     1       3.751   3.388  17.520  0.00  0.00    +0.000 A 
ATOM      6  C   UNL     1       4.814   3.606  16.657  0.00  0.00    +0.000 A 
ATOM      7  C   UNL     1       3.193   2.120  18.041  0.00  0.00    +0.000 C 
ATOM      8  C   UNL     1       1.898   2.662  18.653  0.00  0.00    +0.000 C 
ATOM      9  O   UNL     1       2.070   4.067  18.948  0.00  0.00    +0.000 OA
ENDROOT
BRANCH   1  16
ATOM     10  O   UNL     1       8.447   5.795  13.594  0.00  0.00    +0.000 OA
ATOM     11  C   UNL     1       7.530   5.038  13.339  0.00  0.00    +0.000 C 
ATOM     12  O   UNL     1       7.387   4.323  12.189  0.00  0.00    +0.000 OA
ATOM     13  C   UNL     1       6.286   3.420  12.301  0.00  0.00    +0.000 C 
ATOM     14  C   UNL     1       5.410   3.917  13.428  0.00  0.00    +0.000 C 
ATOM     15  C   UNL     1       6.365   4.745  14.203  0.00  0.00    +0.000 C 
ATOM     16  C   UNL     1       6.291   5.205  15.459  0.00  0.00    +0.000 C 
ENDBRANCH   1  16
TORSDOF 1
ENDMDL
MODEL 6
REMARK VINA RESULT:      -7.1      1.472      6.312
REMARK  Name = 
REMARK  1 active torsions:
REMARK  status: ('A' for Active; 'I' for Inactive)
REMARK    1  A    between atoms: C_7  and  C_8
REMARK                            x       y       z     vdW  Elec       q    Type
REMARK                         _______ _______ _______ _____ _____    ______ ____
ROOT
ATOM      1  C   UNL     1       4.670   5.326  18.296  0.00  0.00    +0.000 A 
ATOM      2  C   UNL     1       5.956   5.092  18.825  0.00  0.00    +0.000 A 
ATOM      3  C   UNL     1       7.051   4.885  17.982  0.00  0.00    +0.000 A 
ATOM      4  C   UNL     1       6.825   4.881  16.622  0.00  0.00    +0.000 A 
ATOM      5  C   UNL     1       5.561   5.085  16.087  0.00  0.00    +0.000 A 
ATOM      6  C   UNL     1       4.471   5.323  16.908  0.00  0.00    +0.000 A 
ATOM      7  C   UNL     1       5.656   5.068  14.610  0.00  0.00    +0.000 C 
ATOM      8  C   UNL     1       7.050   4.451  14.466  0.00  0.00    +0.000 C 
ATOM      9  O   UNL     1       7.800   4.694  15.678  0.00  0.00    +0.000 OA
ENDROOT
BRANCH   1  16
ATOM     10  O   UNL     1       1.358   6.016  21.071  0.00  0.00    +0.000 OA
ATOM     11  C   UNL     1       1.619   4.932  20.586  0.00  0.00    +0.000 C 
ATOM     12  O   UNL     1       0.922   3.781  20.795  0.00  0.00    +0.000 OA
ATOM     13  C   UNL     1       1.412   2.744  19.943  0.00  0.00    +0.000 C 
ATOM     14  C   UNL     1       2.795   3.150  19.490  0.00  0.00    +0.000 C 
ATOM     15  C   UNL     1       2.753   4.619  19.689  0.00  0.00    +0.000 C 
ATOM     16  C   UNL     1       3.545   5.582  19.200  0.00  0.00    +0.000 C 
ENDBRANCH   1  16
TORSDOF 1
ENDMDL
MODEL 7
REMARK VINA RESULT:      -7.1      1.652      5.879
REMARK  Name = 
REMARK  1 active torsions:
REMARK  status: ('A' for Active; 'I' for Inactive)
REMARK    1  A    between atoms: C_7  and  C_8
REMARK                            x       y       z     vdW  Elec       q    Type
REMARK                         _______ _______ _______ _____ _____    ______ ____
ROOT
ATOM      1  C   UNL     1       4.649   4.594  17.788  0.00  0.00    +0.000 A 
ATOM      2  C   UNL     1       4.484   5.357  16.613  0.00  0.00    +0.000 A 
ATOM      3  C   UNL     1       5.416   6.334  16.257  0.00  0.00    +0.000 A 
ATOM      4  C   UNL     1       6.479   6.552  17.108  0.00  0.00    +0.000 A 
ATOM      5  C   UNL     1       6.641   5.826  18.280  0.00  0.00    +0.000 A 
ATOM      6  C   UNL     1       5.743   4.832  18.632  0.00  0.00    +0.000 A 
ATOM      7  C   UNL     1       7.891   6.260  18.944  0.00  0.00    +0.000 C 
ATOM      8  C   UNL     1       8.139   7.555  18.166  0.00  0.00    +0.000 C 
ATOM      9  O   UNL     1       7.469   7.472  16.888  0.00  0.00    +0.000 OA
ENDROOT
BRANCH   1  16
ATOM     10  O   UNL     1       1.670   1.532  18.733  0.00  0.00    +0.000 OA
ATOM     11  C   UNL     1       1.663   2.651  19.209  0.00  0.00    +0.000 C 
ATOM     12  O   UNL     1       0.766   3.121  20.119  0.00  0.00    +0.000 OA
ATOM     13  C   UNL     1       1.157   4.417  20.576  0.00  0.00    +0.000 C 
ATOM     14  C   UNL     1       2.118   4.981  19.555  0.00  0.00    +0.000 C 
ATOM     15  C   UNL     1       2.603   3.748  18.891  0.00  0.00    +0.000 C 
ATOM     16  C   UNL     1       3.679   3.546  18.119  0.00  0.00    +0.000 C 
ENDBRANCH   1  16
TORSDOF 1
ENDMDL
MODEL 8
REMARK VINA RESULT:      -7.0      1.875      2.214
REMARK  Name = 
REMARK  1 active torsions:
REMARK  status: ('A' for Active; 'I' for Inactive)
REMARK    1  A    between atoms: C_7  and  C_8
REMARK                            x       y       z     vdW  Elec       q    Type
REMARK                         _______ _______ _______ _____ _____    ______ ____
ROOT
ATOM      1  C   UNL     1       3.881   5.098  17.793  0.00  0.00    +0.000 A 
ATOM      2  C   UNL     1       3.649   3.993  16.947  0.00  0.00    +0.000 A 
ATOM      3  C   UNL     1       2.619   3.089  17.217  0.00  0.00    +0.000 A 
ATOM      4  C   UNL     1       1.864   3.292  18.352  0.00  0.00    +0.000 A 
ATOM      5  C   UNL     1       2.096   4.360  19.207  0.00  0.00    +0.000 A 
ATOM      6  C   UNL     1       3.093   5.283  18.938  0.00  0.00    +0.000 A 
ATOM      7  C   UNL     1       1.098   4.326  20.300  0.00  0.00    +0.000 C 
ATOM      8  C   UNL     1       0.577   2.900  20.106  0.00  0.00    +0.000 C 
ATOM      9  O   UNL     1       0.823   2.490  18.741  0.00  0.00    +0.000 OA
ENDROOT
BRANCH   1  16
ATOM     10  O   UNL     1       7.114   7.870  16.791  0.00  0.00    +0.000 OA
ATOM     11  C   UNL     1       7.190   7.034  17.670  0.00  0.00    +0.000 C 
ATOM     12  O   UNL     1       8.257   6.842  18.494  0.00  0.00    +0.000 OA
ATOM     13  C   UNL     1       7.935   5.887  19.507  0.00  0.00    +0.000 C 
ATOM     14  C   UNL     1       6.739   5.102  19.020  0.00  0.00    +0.000 C 
ATOM     15  C   UNL     1       6.159   6.032  18.022  0.00  0.00    +0.000 C 
ATOM     16  C   UNL     1       4.941   6.056  17.466  0.00  0.00    +0.000 C 
ENDBRANCH   1  16
TORSDOF 1
ENDMDL
MODEL 9
REMARK VINA RESULT:      -7.0      1.258      6.100
REMARK  Name = 
REMARK  1 active torsions:
REMARK  status: ('A' for Active; 'I' for Inactive)
REMARK    1  A    between atoms: C_7  and  C_8
REMARK                            x       y       z     vdW  Elec       q    Type
REMARK                         _______ _______ _______ _____ _____    ______ ____
ROOT
ATOM      1  C   UNL     1       3.323   4.426  17.426  0.00  0.00    +0.000 A 
ATOM      2  C   UNL     1       3.581   5.788  17.681  0.00  0.00    +0.000 A 
ATOM      3  C   UNL     1       4.659   6.439  17.076  0.00  0.00    +0.000 A 
ATOM      4  C   UNL     1       5.478   5.697  16.252  0.00  0.00    +0.000 A 
ATOM      5  C   UNL     1       5.251   4.350  16.010  0.00  0.00    +0.000 A 
ATOM      6  C   UNL     1       4.169   3.697  16.578  0.00  0.00    +0.000 A 
ATOM      7  C   UNL     1       6.269   3.854  15.056  0.00  0.00    +0.000 C 
ATOM      8  C   UNL     1       7.264   5.014  15.143  0.00  0.00    +0.000 C 
ATOM      9  O   UNL     1       6.567   6.200  15.590  0.00  0.00    +0.000 OA
ENDROOT
BRANCH   1  16
ATOM     10  O   UNL     1      -0.161   2.582  19.326  0.00  0.00    +0.000 OA
ATOM     11  C   UNL     1       0.830   2.939  19.933  0.00  0.00    +0.000 C 
ATOM     12  O   UNL     1       1.033   2.801  21.273  0.00  0.00    +0.000 OA
ATOM     13  C   UNL     1       2.368   3.180  21.613  0.00  0.00    +0.000 C 
ATOM     14  C   UNL     1       2.895   4.033  20.481  0.00  0.00    +0.000 C 
ATOM     15  C   UNL     1       2.015   3.617  19.363  0.00  0.00    +0.000 C 
ATOM     16  C   UNL     1       2.161   3.777  18.041  0.00  0.00    +0.000 C 
ENDBRANCH   1  16
TORSDOF 1
ENDMDL
