MODEL 1
REMARK VINA RESULT:      -6.0      0.000      0.000
REMARK  Name = 
REMARK  7 active torsions:
REMARK  status: ('A' for Active; 'I' for Inactive)
REMARK    1  A    between atoms: C_1  and  C_2
REMARK    2  A    between atoms: C_2  and  C_3
REMARK    3  A    between atoms: C_3  and  O_4
REMARK    4  A    between atoms: O_4  and  C_5
REMARK    5  A    between atoms: C_5  and  C_6
REMARK    6  A    between atoms: C_8  and  O_9
REMARK    7  A    between atoms: C_10  and  O_11
REMARK                            x       y       z     vdW  Elec       q    Type
REMARK                         _______ _______ _______ _____ _____    ______ ____
ROOT
ATOM      1  C   UNL     1       3.658   4.330  17.838  0.00  0.00    +0.000 A 
ATOM      2  C   UNL     1       4.485   4.669  18.920  0.00  0.00    +0.000 A 
ATOM      3  C   UNL     1       5.858   4.821  18.715  0.00  0.00    +0.000 A 
ATOM      4  C   UNL     1       6.418   4.638  17.453  0.00  0.00    +0.000 A 
ATOM      5  C   UNL     1       5.609   4.299  16.375  0.00  0.00    +0.000 A 
ATOM      6 BR   UNL     1       6.317   4.043  14.638  0.00  0.00    +0.000 Br
ATOM      7  C   UNL     1       4.231   4.142  16.569  0.00  0.00    +0.000 A 
ENDROOT
BRANCH   3   8
ATOM      8  O   UNL     1       6.697   5.154  19.744  0.00  0.00    +0.000 OA
ATOM      9  H   UNL     1       6.158   5.274  20.546  0.00  0.00    +0.000 HD
ENDBRANCH   3   8
BRANCH   4  10
ATOM     10  O   UNL     1       7.772   4.792  17.311  0.00  0.00    +0.000 OA
ATOM     11  H   UNL     1       7.985   4.349  16.466  0.00  0.00    +0.000 HD
ENDBRANCH   4  10
BRANCH   1  12
ATOM     12  C   UNL     1       2.170   4.165  18.021  0.00  0.00    +0.000 C 
BRANCH  12  13
ATOM     13  O   UNL     1       1.873   2.809  18.345  0.00  0.00    +0.000 OA
BRANCH  13  14
ATOM     14  C   UNL     1       0.775   2.723  19.253  0.00  0.00    +0.000 C 
BRANCH  14  16
ATOM     15  C   UNL     1       1.724   2.822  21.575  0.00  0.00    +0.000 C 
ATOM     16  C   UNL     1       1.066   3.609  20.457  0.00  0.00    +0.000 C 
ENDBRANCH  14  16
ENDBRANCH  13  14
ENDBRANCH  12  13
ENDBRANCH   1  12
TORSDOF 6
ENDMDL
MODEL 2
REMARK VINA RESULT:      -5.9      1.814      2.433
REMARK  Name = 
REMARK  7 active torsions:
REMARK  status: ('A' for Active; 'I' for Inactive)
REMARK    1  A    between atoms: C_1  and  C_2
REMARK    2  A    between atoms: C_2  and  C_3
REMARK    3  A    between atoms: C_3  and  O_4
REMARK    4  A    between atoms: O_4  and  C_5
REMARK    5  A    between atoms: C_5  and  C_6
REMARK    6  A    between atoms: C_8  and  O_9
REMARK    7  A    between atoms: C_10  and  O_11
REMARK                            x       y       z     vdW  Elec       q    Type
REMARK                         _______ _______ _______ _____ _____    ______ ____
ROOT
ATOM      1  C   UNL     1       3.975   4.651  17.575  0.00  0.00    +0.000 A 
ATOM      2  C   UNL     1       4.351   4.063  16.356  0.00  0.00    +0.000 A 
ATOM      3  C   UNL     1       5.703   3.995  16.013  0.00  0.00    +0.000 A 
ATOM      4  C   UNL     1       6.683   4.506  16.860  0.00  0.00    +0.000 A 
ATOM      5  C   UNL     1       6.323   5.092  18.068  0.00  0.00    +0.000 A 
ATOM      6 BR   UNL     1       7.614   5.797  19.260  0.00  0.00    +0.000 Br
ATOM      7  C   UNL     1       4.971   5.168  18.422  0.00  0.00    +0.000 A 
ENDROOT
BRANCH   3   8
ATOM      8  O   UNL     1       6.109   3.428  14.836  0.00  0.00    +0.000 OA
ATOM      9  H   UNL     1       5.838   2.493  14.842  0.00  0.00    +0.000 HD
ENDBRANCH   3   8
BRANCH   4  10
ATOM     10  O   UNL     1       7.993   4.419  16.470  0.00  0.00    +0.000 OA
ATOM     11  H   UNL     1       7.966   3.963  15.606  0.00  0.00    +0.000 HD
ENDBRANCH   4  10
BRANCH   1  12
ATOM     12  C   UNL     1       2.526   4.733  17.982  0.00  0.00    +0.000 C 
BRANCH  12  13
ATOM     13  O   UNL     1       1.825   3.593  17.492  0.00  0.00    +0.000 OA
BRANCH  13  14
ATOM     14  C   UNL     1       1.481   2.703  18.554  0.00  0.00    +0.000 C 
BRANCH  14  16
ATOM     15  C   UNL     1       1.341   2.885  21.054  0.00  0.00    +0.000 C 
ATOM     16  C   UNL     1       0.963   3.521  19.729  0.00  0.00    +0.000 C 
ENDBRANCH  14  16
ENDBRANCH  13  14
ENDBRANCH  12  13
ENDBRANCH   1  12
TORSDOF 6
ENDMDL
MODEL 3
REMARK VINA RESULT:      -5.8      1.229      1.451
REMARK  Name = 
REMARK  7 active torsions:
REMARK  status: ('A' for Active; 'I' for Inactive)
REMARK    1  A    between atoms: C_1  and  C_2
REMARK    2  A    between atoms: C_2  and  C_3
REMARK    3  A    between atoms: C_3  and  O_4
REMARK    4  A    between atoms: O_4  and  C_5
REMARK    5  A    between atoms: C_5  and  C_6
REMARK    6  A    between atoms: C_8  and  O_9
REMARK    7  A    between atoms: C_10  and  O_11
REMARK                            x       y       z     vdW  Elec       q    Type
REMARK                         _______ _______ _______ _____ _____    ______ ____
ROOT
ATOM      1  C   UNL     1       3.958   5.263  17.978  0.00  0.00    +0.000 A 
ATOM      2  C   UNL     1       4.872   5.344  19.041  0.00  0.00    +0.000 A 
ATOM      3  C   UNL     1       6.215   5.032  18.818  0.00  0.00    +0.000 A 
ATOM      4  C   UNL     1       6.659   4.638  17.559  0.00  0.00    +0.000 A 
ATOM      5  C   UNL     1       5.763   4.551  16.500  0.00  0.00    +0.000 A 
ATOM      6 BR   UNL     1       6.313   4.027  14.766  0.00  0.00    +0.000 Br
ATOM      7  C   UNL     1       4.413   4.860  16.711  0.00  0.00    +0.000 A 
ENDROOT
BRANCH   3   8
ATOM      8  O   UNL     1       7.136   5.101  19.828  0.00  0.00    +0.000 OA
ATOM      9  H   UNL     1       6.873   4.470  20.521  0.00  0.00    +0.000 HD
ENDBRANCH   3   8
BRANCH   4  10
ATOM     10  O   UNL     1       7.985   4.336  17.399  0.00  0.00    +0.000 OA
ATOM     11  H   UNL     1       8.460   5.024  17.905  0.00  0.00    +0.000 HD
ENDBRANCH   4  10
BRANCH   1  12
ATOM     12  C   UNL     1       2.502   5.602  18.180  0.00  0.00    +0.000 C 
BRANCH  12  13
ATOM     13  O   UNL     1       1.906   4.650  19.057  0.00  0.00    +0.000 OA
BRANCH  13  14
ATOM     14  C   UNL     1       1.426   3.514  18.339  0.00  0.00    +0.000 C 
BRANCH  14  16
ATOM     15  C   UNL     1       3.193   1.730  18.341  0.00  0.00    +0.000 C 
ATOM     16  C   UNL     1       1.939   2.252  19.019  0.00  0.00    +0.000 C 
ENDBRANCH  14  16
ENDBRANCH  13  14
ENDBRANCH  12  13
ENDBRANCH   1  12
TORSDOF 6
ENDMDL
MODEL 4
REMARK VINA RESULT:      -5.8      1.288      1.448
REMARK  Name = 
REMARK  7 active torsions:
REMARK  status: ('A' for Active; 'I' for Inactive)
REMARK    1  A    between atoms: C_1  and  C_2
REMARK    2  A    between atoms: C_2  and  C_3
REMARK    3  A    between atoms: C_3  and  O_4
REMARK    4  A    between atoms: O_4  and  C_5
REMARK    5  A    between atoms: C_5  and  C_6
REMARK    6  A    between atoms: C_8  and  O_9
REMARK    7  A    between atoms: C_10  and  O_11
REMARK                            x       y       z     vdW  Elec       q    Type
REMARK                         _______ _______ _______ _____ _____    ______ ____
ROOT
ATOM      1  C   UNL     1       4.039   5.119  18.211  0.00  0.00    +0.000 A 
ATOM      2  C   UNL     1       5.058   5.281  19.163  0.00  0.00    +0.000 A 
ATOM      3  C   UNL     1       6.386   5.054  18.795  0.00  0.00    +0.000 A 
ATOM      4  C   UNL     1       6.714   4.666  17.499  0.00  0.00    +0.000 A 
ATOM      5  C   UNL     1       5.713   4.500  16.548  0.00  0.00    +0.000 A 
ATOM      6 BR   UNL     1       6.102   3.979  14.770  0.00  0.00    +0.000 Br
ATOM      7  C   UNL     1       4.378   4.723  16.906  0.00  0.00    +0.000 A 
ENDROOT
BRANCH   3   8
ATOM      8  O   UNL     1       7.407   5.204  19.694  0.00  0.00    +0.000 OA
ATOM      9  H   UNL     1       7.957   5.953  19.405  0.00  0.00    +0.000 HD
ENDBRANCH   3   8
BRANCH   4  10
ATOM     10  O   UNL     1       8.031   4.449  17.196  0.00  0.00    +0.000 OA
ATOM     11  H   UNL     1       8.525   5.058  17.780  0.00  0.00    +0.000 HD
ENDBRANCH   4  10
BRANCH   1  12
ATOM     12  C   UNL     1       2.595   5.364  18.570  0.00  0.00    +0.000 C 
BRANCH  12  13
ATOM     13  O   UNL     1       2.515   5.929  19.876  0.00  0.00    +0.000 OA
BRANCH  13  14
ATOM     14  C   UNL     1       1.551   5.247  20.677  0.00  0.00    +0.000 C 
BRANCH  14  16
ATOM     15  C   UNL     1       1.345   2.784  21.123  0.00  0.00    +0.000 C 
ATOM     16  C   UNL     1       2.209   4.021  21.296  0.00  0.00    +0.000 C 
ENDBRANCH  14  16
ENDBRANCH  13  14
ENDBRANCH  12  13
ENDBRANCH   1  12
TORSDOF 6
ENDMDL
MODEL 5
REMARK VINA RESULT:      -5.7      3.119      5.615
REMARK  Name = 
REMARK  7 active torsions:
REMARK  status: ('A' for Active; 'I' for Inactive)
REMARK    1  A    between atoms: C_1  and  C_2
REMARK    2  A    between atoms: C_2  and  C_3
REMARK    3  A    between atoms: C_3  and  O_4
REMARK    4  A    between atoms: O_4  and  C_5
REMARK    5  A    between atoms: C_5  and  C_6
REMARK    6  A    between atoms: C_8  and  O_9
REMARK    7  A    between atoms: C_10  and  O_11
REMARK                            x       y       z     vdW  Elec       q    Type
REMARK                         _______ _______ _______ _____ _____    ______ ____
ROOT
ATOM      1  C   UNL     1       6.381   4.519  15.479  0.00  0.00    +0.000 A 
ATOM      2  C   UNL     1       7.343   4.743  16.477  0.00  0.00    +0.000 A 
ATOM      3  C   UNL     1       6.982   4.619  17.820  0.00  0.00    +0.000 A 
ATOM      4  C   UNL     1       5.681   4.282  18.184  0.00  0.00    +0.000 A 
ATOM      5  C   UNL     1       4.720   4.061  17.205  0.00  0.00    +0.000 A 
ATOM      6 BR   UNL     1       2.938   3.593  17.644  0.00  0.00    +0.000 Br
ATOM      7  C   UNL     1       5.069   4.183  15.855  0.00  0.00    +0.000 A 
ENDROOT
BRANCH   3   8
ATOM      8  O   UNL     1       7.892   4.827  18.821  0.00  0.00    +0.000 OA
ATOM      9  H   UNL     1       7.614   5.613  19.324  0.00  0.00    +0.000 HD
ENDBRANCH   3   8
BRANCH   4  10
ATOM     10  O   UNL     1       5.381   4.183  19.517  0.00  0.00    +0.000 OA
ATOM     11  H   UNL     1       4.662   3.523  19.561  0.00  0.00    +0.000 HD
ENDBRANCH   4  10
BRANCH   1  12
ATOM     12  C   UNL     1       6.737   4.634  14.018  0.00  0.00    +0.000 C 
BRANCH  12  13
ATOM     13  O   UNL     1       5.761   3.955  13.232  0.00  0.00    +0.000 OA
BRANCH  13  14
ATOM     14  C   UNL     1       6.372   3.223  12.169  0.00  0.00    +0.000 C 
BRANCH  14  16
ATOM     15  C   UNL     1       4.044   3.200  11.227  0.00  0.00    +0.000 C 
ATOM     16  C   UNL     1       5.304   2.390  11.473  0.00  0.00    +0.000 C 
ENDBRANCH  14  16
ENDBRANCH  13  14
ENDBRANCH  12  13
ENDBRANCH   1  12
TORSDOF 6
ENDMDL
MODEL 6
REMARK VINA RESULT:      -5.7      1.943      2.595
REMARK  Name = 
REMARK  7 active torsions:
REMARK  status: ('A' for Active; 'I' for Inactive)
REMARK    1  A    between atoms: C_1  and  C_2
REMARK    2  A    between atoms: C_2  and  C_3
REMARK    3  A    between atoms: C_3  and  O_4
REMARK    4  A    between atoms: O_4  and  C_5
REMARK    5  A    between atoms: C_5  and  C_6
REMARK    6  A    between atoms: C_8  and  O_9
REMARK    7  A    between atoms: C_10  and  O_11
REMARK                            x       y       z     vdW  Elec       q    Type
REMARK                         _______ _______ _______ _____ _____    ______ ____
ROOT
ATOM      1  C   UNL     1       4.056   4.314  17.916  0.00  0.00    +0.000 A 
ATOM      2  C   UNL     1       4.363   3.805  16.644  0.00  0.00    +0.000 A 
ATOM      3  C   UNL     1       5.673   3.885  16.169  0.00  0.00    +0.000 A 
ATOM      4  C   UNL     1       6.679   4.467  16.936  0.00  0.00    +0.000 A 
ATOM      5  C   UNL     1       6.386   4.977  18.196  0.00  0.00    +0.000 A 
ATOM      6 BR   UNL     1       7.716   5.773  19.284  0.00  0.00    +0.000 Br
ATOM      7  C   UNL     1       5.076   4.903  18.683  0.00  0.00    +0.000 A 
ENDROOT
BRANCH   3   8
ATOM      8  O   UNL     1       6.011   3.399  14.935  0.00  0.00    +0.000 OA
ATOM      9  H   UNL     1       6.568   2.610  15.064  0.00  0.00    +0.000 HD
ENDBRANCH   3   8
BRANCH   4  10
ATOM     10  O   UNL     1       7.944   4.527  16.417  0.00  0.00    +0.000 OA
ATOM     11  H   UNL     1       8.512   4.112  17.096  0.00  0.00    +0.000 HD
ENDBRANCH   4  10
BRANCH   1  12
ATOM     12  C   UNL     1       2.653   4.236  18.465  0.00  0.00    +0.000 C 
BRANCH  12  13
ATOM     13  O   UNL     1       2.388   5.384  19.268  0.00  0.00    +0.000 OA
BRANCH  13  14
ATOM     14  C   UNL     1       1.793   5.018  20.512  0.00  0.00    +0.000 C 
BRANCH  14  16
ATOM     15  C   UNL     1       1.492   2.741  21.528  0.00  0.00    +0.000 C 
ATOM     16  C   UNL     1       1.146   3.648  20.361  0.00  0.00    +0.000 C 
ENDBRANCH  14  16
ENDBRANCH  13  14
ENDBRANCH  12  13
ENDBRANCH   1  12
TORSDOF 6
ENDMDL
MODEL 7
REMARK VINA RESULT:      -5.6      2.158      2.626
REMARK  Name = 
REMARK  7 active torsions:
REMARK  status: ('A' for Active; 'I' for Inactive)
REMARK    1  A    between atoms: C_1  and  C_2
REMARK    2  A    between atoms: C_2  and  C_3
REMARK    3  A    between atoms: C_3  and  O_4
REMARK    4  A    between atoms: O_4  and  C_5
REMARK    5  A    between atoms: C_5  and  C_6
REMARK    6  A    between atoms: C_8  and  O_9
REMARK    7  A    between atoms: C_10  and  O_11
REMARK                            x       y       z     vdW  Elec       q    Type
REMARK                         _______ _______ _______ _____ _____    ______ ____
ROOT
ATOM      1  C   UNL     1       3.955   5.353  17.555  0.00  0.00    +0.000 A 
ATOM      2  C   UNL     1       4.270   4.177  16.855  0.00  0.00    +0.000 A 
ATOM      3  C   UNL     1       5.568   3.988  16.377  0.00  0.00    +0.000 A 
ATOM      4  C   UNL     1       6.554   4.950  16.581  0.00  0.00    +0.000 A 
ATOM      5  C   UNL     1       6.253   6.120  17.270  0.00  0.00    +0.000 A 
ATOM      6 BR   UNL     1       7.556   7.458  17.581  0.00  0.00    +0.000 Br
ATOM      7  C   UNL     1       4.954   6.322  17.752  0.00  0.00    +0.000 A 
ENDROOT
BRANCH   3   8
ATOM      8  O   UNL     1       5.914   2.854  15.693  0.00  0.00    +0.000 OA
ATOM      9  H   UNL     1       6.816   2.603  15.961  0.00  0.00    +0.000 HD
ENDBRANCH   3   8
BRANCH   4  10
ATOM     10  O   UNL     1       7.808   4.716  16.084  0.00  0.00    +0.000 OA
ATOM     11  H   UNL     1       8.033   5.526  15.585  0.00  0.00    +0.000 HD
ENDBRANCH   4  10
BRANCH   1  12
ATOM     12  C   UNL     1       2.566   5.587  18.093  0.00  0.00    +0.000 C 
BRANCH  12  13
ATOM     13  O   UNL     1       2.645   6.043  19.441  0.00  0.00    +0.000 OA
BRANCH  13  14
ATOM     14  C   UNL     1       2.622   4.949  20.358  0.00  0.00    +0.000 C 
BRANCH  14  16
ATOM     15  C   UNL     1       1.114   2.943  20.294  0.00  0.00    +0.000 C 
ATOM     16  C   UNL     1       1.190   4.447  20.484  0.00  0.00    +0.000 C 
ENDBRANCH  14  16
ENDBRANCH  13  14
ENDBRANCH  12  13
ENDBRANCH   1  12
TORSDOF 6
ENDMDL
MODEL 8
REMARK VINA RESULT:      -5.6      2.072      2.593
REMARK  Name = 
REMARK  7 active torsions:
REMARK  status: ('A' for Active; 'I' for Inactive)
REMARK    1  A    between atoms: C_1  and  C_2
REMARK    2  A    between atoms: C_2  and  C_3
REMARK    3  A    between atoms: C_3  and  O_4
REMARK    4  A    between atoms: O_4  and  C_5
REMARK    5  A    between atoms: C_5  and  C_6
REMARK    6  A    between atoms: C_8  and  O_9
REMARK    7  A    between atoms: C_10  and  O_11
REMARK                            x       y       z     vdW  Elec       q    Type
REMARK                         _______ _______ _______ _____ _____    ______ ____
ROOT
ATOM      1  C   UNL     1       4.727   4.511  17.796  0.00  0.00    +0.000 A 
ATOM      2  C   UNL     1       4.960   3.758  16.634  0.00  0.00    +0.000 A 
ATOM      3  C   UNL     1       5.975   4.144  15.757  0.00  0.00    +0.000 A 
ATOM      4  C   UNL     1       6.756   5.268  16.014  0.00  0.00    +0.000 A 
ATOM      5  C   UNL     1       6.532   6.024  17.159  0.00  0.00    +0.000 A 
ATOM      6 BR   UNL     1       7.566   7.557  17.562  0.00  0.00    +0.000 Br
ATOM      7  C   UNL     1       5.516   5.647  18.047  0.00  0.00    +0.000 A 
ENDROOT
BRANCH   3   8
ATOM      8  O   UNL     1       6.235   3.434  14.616  0.00  0.00    +0.000 OA
ATOM      9  H   UNL     1       5.386   3.241  14.181  0.00  0.00    +0.000 HD
ENDBRANCH   3   8
BRANCH   4  10
ATOM     10  O   UNL     1       7.732   5.606  15.115  0.00  0.00    +0.000 OA
ATOM     11  H   UNL     1       8.288   4.805  15.039  0.00  0.00    +0.000 HD
ENDBRANCH   4  10
BRANCH   1  12
ATOM     12  C   UNL     1       3.645   4.119  18.771  0.00  0.00    +0.000 C 
BRANCH  12  13
ATOM     13  O   UNL     1       3.284   2.755  18.563  0.00  0.00    +0.000 OA
BRANCH  13  14
ATOM     14  C   UNL     1       1.910   2.531  18.877  0.00  0.00    +0.000 C 
BRANCH  14  16
ATOM     15  C   UNL     1       1.321   2.822  21.300  0.00  0.00    +0.000 C 
ATOM     16  C   UNL     1       1.489   3.515  19.960  0.00  0.00    +0.000 C 
ENDBRANCH  14  16
ENDBRANCH  13  14
ENDBRANCH  12  13
ENDBRANCH   1  12
TORSDOF 6
ENDMDL
MODEL 9
REMARK VINA RESULT:      -5.6      2.126      2.806
REMARK  Name = 
REMARK  7 active torsions:
REMARK  status: ('A' for Active; 'I' for Inactive)
REMARK    1  A    between atoms: C_1  and  C_2
REMARK    2  A    between atoms: C_2  and  C_3
REMARK    3  A    between atoms: C_3  and  O_4
REMARK    4  A    between atoms: O_4  and  C_5
REMARK    5  A    between atoms: C_5  and  C_6
REMARK    6  A    between atoms: C_8  and  O_9
REMARK    7  A    between atoms: C_10  and  O_11
REMARK                            x       y       z     vdW  Elec       q    Type
REMARK                         _______ _______ _______ _____ _____    ______ ____
ROOT
ATOM      1  C   UNL     1       4.477   4.459  17.327  0.00  0.00    +0.000 A 
ATOM      2  C   UNL     1       4.783   3.758  16.150  0.00  0.00    +0.000 A 
ATOM      3  C   UNL     1       5.892   4.138  15.391  0.00  0.00    +0.000 A 
ATOM      4  C   UNL     1       6.696   5.205  15.783  0.00  0.00    +0.000 A 
ATOM      5  C   UNL     1       6.402   5.908  16.945  0.00  0.00    +0.000 A 
ATOM      6 BR   UNL     1       7.465   7.362  17.529  0.00  0.00    +0.000 Br
ATOM      7  C   UNL     1       5.291   5.537  17.714  0.00  0.00    +0.000 A 
ENDROOT
BRANCH   3   8
ATOM      8  O   UNL     1       6.223   3.478  14.239  0.00  0.00    +0.000 OA
ATOM      9  H   UNL     1       6.103   2.524  14.392  0.00  0.00    +0.000 HD
ENDBRANCH   3   8
BRANCH   4  10
ATOM     10  O   UNL     1       7.766   5.539  14.997  0.00  0.00    +0.000 OA
ATOM     11  H   UNL     1       8.546   5.426  15.576  0.00  0.00    +0.000 HD
ENDBRANCH   4  10
BRANCH   1  12
ATOM     12  C   UNL     1       3.293   4.071  18.176  0.00  0.00    +0.000 C 
BRANCH  12  13
ATOM     13  O   UNL     1       2.812   5.214  18.880  0.00  0.00    +0.000 OA
BRANCH  13  14
ATOM     14  C   UNL     1       2.594   4.917  20.259  0.00  0.00    +0.000 C 
BRANCH  14  16
ATOM     15  C   UNL     1       1.328   3.005  21.280  0.00  0.00    +0.000 C 
ATOM     16  C   UNL     1       1.237   4.242  20.405  0.00  0.00    +0.000 C 
ENDBRANCH  14  16
ENDBRANCH  13  14
ENDBRANCH  12  13
ENDBRANCH   1  12
TORSDOF 6
ENDMDL
