MODEL 1
REMARK VINA RESULT:      -6.1      0.000      0.000
REMARK  Name = 
REMARK  5 active torsions:
REMARK  status: ('A' for Active; 'I' for Inactive)
REMARK    1  A    between atoms: C_1  and  C_2
REMARK    2  A    between atoms: C_4  and  S_5
REMARK    3  A    between atoms: S_5  and  N_8
REMARK    4  A    between atoms: C_12  and  C_13
REMARK    5  A    between atoms: C_21  and  C_22
REMARK                            x       y       z     vdW  Elec       q    Type
REMARK                         _______ _______ _______ _____ _____    ______ ____
ROOT
ATOM      1  N   UNL     1      -0.741  10.704  19.786  0.00  0.00    +0.000 NA
ATOM      2  C   UNL     1      -1.608   9.810  19.035  0.00  0.00    +0.000 C 
ATOM      3  C   UNL     1      -1.628  10.486  17.679  0.00  0.00    +0.000 C 
ATOM      4  C   UNL     1      -1.617  11.975  18.006  0.00  0.00    +0.000 C 
ATOM      5  C   UNL     1      -0.911  12.112  19.368  0.00  0.00    +0.000 C 
ENDROOT
BRANCH   5   6
ATOM      6  C   UNL     1      -1.710  13.006  20.337  0.00  0.00    +0.000 C 
ATOM      7  O   UNL     1      -2.885  12.747  20.618  0.00  0.00    +0.000 OA
ATOM      8  N   UNL     1      -1.065  14.111  20.890  0.00  0.00    +0.000 N 
ATOM      9  C   UNL     1       0.321  14.548  20.672  0.00  0.00    +0.000 C 
ATOM     10  C   UNL     1       1.070  14.647  22.006  0.00  0.00    +0.000 C 
ATOM     11  O   UNL     1       0.386  15.526  22.907  0.00  0.00    +0.000 OA
ATOM     12  C   UNL     1      -0.952  15.062  23.164  0.00  0.00    +0.000 C 
ATOM     13  C   UNL     1      -1.766  14.958  21.867  0.00  0.00    +0.000 C 
ENDBRANCH   5   6
BRANCH   1  14
ATOM     14  S   UNL     1       0.406  10.171  20.865  0.00  0.00    +0.000 S 
ATOM     15  O   UNL     1      -0.293   9.547  21.964  0.00  0.00    +0.000 OA
ATOM     16  O   UNL     1       1.379  11.219  21.073  0.00  0.00    +0.000 OA
BRANCH  14  20
ATOM     17  C   UNL     1       2.036   5.156  20.759  0.00  0.00    +0.000 C 
ATOM     18  C   UNL     1       2.001   6.484  20.049  0.00  0.00    +0.000 A 
ATOM     19  C   UNL     1       1.326   7.574  20.622  0.00  0.00    +0.000 A 
ATOM     20  C   UNL     1       1.266   8.832  19.984  0.00  0.00    +0.000 A 
ATOM     21  C   UNL     1       1.896   9.003  18.738  0.00  0.00    +0.000 A 
ATOM     22  C   UNL     1       1.914  10.259  17.929  0.00  0.00    +0.000 C 
ATOM     23  C   UNL     1       2.569   7.902  18.169  0.00  0.00    +0.000 A 
ATOM     24  C   UNL     1       2.623   6.663  18.805  0.00  0.00    +0.000 A 
ATOM     25 CL   UNL     1       3.464   5.382  18.010  0.00  0.00    +0.000 Cl
ENDBRANCH  14  20
ENDBRANCH   1  14
TORSDOF 3
ENDMDL
MODEL 2
REMARK VINA RESULT:      -6.1      6.375      8.660
REMARK  Name = 
REMARK  5 active torsions:
REMARK  status: ('A' for Active; 'I' for Inactive)
REMARK    1  A    between atoms: C_1  and  C_2
REMARK    2  A    between atoms: C_4  and  S_5
REMARK    3  A    between atoms: S_5  and  N_8
REMARK    4  A    between atoms: C_12  and  C_13
REMARK    5  A    between atoms: C_21  and  C_22
REMARK                            x       y       z     vdW  Elec       q    Type
REMARK                         _______ _______ _______ _____ _____    ______ ____
ROOT
ATOM      1  N   UNL     1       4.146   6.523  17.932  0.00  0.00    +0.000 NA
ATOM      2  C   UNL     1       3.940   7.578  16.954  0.00  0.00    +0.000 C 
ATOM      3  C   UNL     1       3.163   8.592  17.771  0.00  0.00    +0.000 C 
ATOM      4  C   UNL     1       2.266   7.741  18.663  0.00  0.00    +0.000 C 
ATOM      5  C   UNL     1       3.000   6.400  18.858  0.00  0.00    +0.000 C 
ENDROOT
BRANCH   5   6
ATOM      6  C   UNL     1       2.066   5.198  18.610  0.00  0.00    +0.000 C 
ATOM      7  O   UNL     1       1.711   4.895  17.467  0.00  0.00    +0.000 OA
ATOM      8  N   UNL     1       1.640   4.463  19.715  0.00  0.00    +0.000 N 
ATOM      9  C   UNL     1       1.978   4.682  21.128  0.00  0.00    +0.000 C 
ATOM     10  C   UNL     1       2.604   3.421  21.734  0.00  0.00    +0.000 C 
ATOM     11  O   UNL     1       1.729   2.296  21.579  0.00  0.00    +0.000 OA
ATOM     12  C   UNL     1       1.448   2.049  20.190  0.00  0.00    +0.000 C 
ATOM     13  C   UNL     1       0.799   3.272  19.524  0.00  0.00    +0.000 C 
ENDBRANCH   5   6
BRANCH   1  14
ATOM     14  S   UNL     1       5.570   5.677  18.076  0.00  0.00    +0.000 S 
ATOM     15  O   UNL     1       5.338   4.596  19.005  0.00  0.00    +0.000 OA
ATOM     16  O   UNL     1       6.658   6.612  18.248  0.00  0.00    +0.000 OA
BRANCH  14  20
ATOM     17  C   UNL     1       8.030   5.633  13.411  0.00  0.00    +0.000 C 
ATOM     18  C   UNL     1       6.992   4.991  14.293  0.00  0.00    +0.000 A 
ATOM     19  C   UNL     1       6.763   5.484  15.588  0.00  0.00    +0.000 A 
ATOM     20  C   UNL     1       5.804   4.904  16.446  0.00  0.00    +0.000 A 
ATOM     21  C   UNL     1       5.056   3.800  15.998  0.00  0.00    +0.000 A 
ATOM     22  C   UNL     1       4.017   3.066  16.783  0.00  0.00    +0.000 C 
ATOM     23  C   UNL     1       5.295   3.310  14.698  0.00  0.00    +0.000 A 
ATOM     24  C   UNL     1       6.245   3.888  13.856  0.00  0.00    +0.000 A 
ATOM     25 CL   UNL     1       6.462   3.197  12.289  0.00  0.00    +0.000 Cl
ENDBRANCH  14  20
ENDBRANCH   1  14
TORSDOF 3
ENDMDL
MODEL 3
REMARK VINA RESULT:      -5.8      4.178      5.889
REMARK  Name = 
REMARK  5 active torsions:
REMARK  status: ('A' for Active; 'I' for Inactive)
REMARK    1  A    between atoms: C_1  and  C_2
REMARK    2  A    between atoms: C_4  and  S_5
REMARK    3  A    between atoms: S_5  and  N_8
REMARK    4  A    between atoms: C_12  and  C_13
REMARK    5  A    between atoms: C_21  and  C_22
REMARK                            x       y       z     vdW  Elec       q    Type
REMARK                         _______ _______ _______ _____ _____    ______ ____
ROOT
ATOM      1  N   UNL     1      -0.668  12.040  20.615  0.00  0.00    +0.000 NA
ATOM      2  C   UNL     1      -0.585  10.971  21.597  0.00  0.00    +0.000 C 
ATOM      3  C   UNL     1      -1.417  11.541  22.728  0.00  0.00    +0.000 C 
ATOM      4  C   UNL     1      -1.099  13.032  22.709  0.00  0.00    +0.000 C 
ATOM      5  C   UNL     1      -0.714  13.371  21.256  0.00  0.00    +0.000 C 
ENDROOT
BRANCH   5   6
ATOM      6  C   UNL     1       0.591  14.191  21.189  0.00  0.00    +0.000 C 
ATOM      7  O   UNL     1       1.643  13.750  21.662  0.00  0.00    +0.000 OA
ATOM      8  N   UNL     1       0.546  15.441  20.574  0.00  0.00    +0.000 N 
ATOM      9  C   UNL     1      -0.612  16.100  19.955  0.00  0.00    +0.000 C 
ATOM     10  C   UNL     1      -0.313  16.457  18.495  0.00  0.00    +0.000 C 
ATOM     11  O   UNL     1       0.859  17.277  18.404  0.00  0.00    +0.000 OA
ATOM     12  C   UNL     1       2.004  16.603  18.958  0.00  0.00    +0.000 C 
ATOM     13  C   UNL     1       1.776  16.233  20.431  0.00  0.00    +0.000 C 
ENDBRANCH   5   6
BRANCH   1  14
ATOM     14  S   UNL     1      -0.850  11.770  18.985  0.00  0.00    +0.000 S 
ATOM     15  O   UNL     1      -0.448  10.407  18.726  0.00  0.00    +0.000 OA
ATOM     16  O   UNL     1      -0.286  12.884  18.258  0.00  0.00    +0.000 OA
BRANCH  14  20
ATOM     17  C   UNL     1      -5.662  12.858  20.849  0.00  0.00    +0.000 C 
ATOM     18  C   UNL     1      -4.846  12.345  19.692  0.00  0.00    +0.000 A 
ATOM     19  C   UNL     1      -3.445  12.298  19.780  0.00  0.00    +0.000 A 
ATOM     20  C   UNL     1      -2.647  11.830  18.714  0.00  0.00    +0.000 A 
ATOM     21  C   UNL     1      -3.267  11.401  17.527  0.00  0.00    +0.000 A 
ATOM     22  C   UNL     1      -2.569  10.893  16.306  0.00  0.00    +0.000 C 
ATOM     23  C   UNL     1      -4.673  11.455  17.445  0.00  0.00    +0.000 A 
ATOM     24  C   UNL     1      -5.455  11.919  18.502  0.00  0.00    +0.000 A 
ATOM     25 CL   UNL     1      -7.167  11.954  18.287  0.00  0.00    +0.000 Cl
ENDBRANCH  14  20
ENDBRANCH   1  14
TORSDOF 3
ENDMDL
MODEL 4
REMARK VINA RESULT:      -5.8      5.432      8.592
REMARK  Name = 
REMARK  5 active torsions:
REMARK  status: ('A' for Active; 'I' for Inactive)
REMARK    1  A    between atoms: C_1  and  C_2
REMARK    2  A    between atoms: C_4  and  S_5
REMARK    3  A    between atoms: S_5  and  N_8
REMARK    4  A    between atoms: C_12  and  C_13
REMARK    5  A    between atoms: C_21  and  C_22
REMARK                            x       y       z     vdW  Elec       q    Type
REMARK                         _______ _______ _______ _____ _____    ______ ____
ROOT
ATOM      1  N   UNL     1       2.819   4.303  18.834  0.00  0.00    +0.000 NA
ATOM      2  C   UNL     1       1.453   4.054  18.402  0.00  0.00    +0.000 C 
ATOM      3  C   UNL     1       1.493   2.563  18.137  0.00  0.00    +0.000 C 
ATOM      4  C   UNL     1       2.882   2.325  17.554  0.00  0.00    +0.000 C 
ATOM      5  C   UNL     1       3.785   3.434  18.129  0.00  0.00    +0.000 C 
ENDROOT
BRANCH   5   6
ATOM      6  C   UNL     1       4.620   4.117  17.028  0.00  0.00    +0.000 C 
ATOM      7  O   UNL     1       4.140   4.338  15.911  0.00  0.00    +0.000 OA
ATOM      8  N   UNL     1       5.930   4.481  17.332  0.00  0.00    +0.000 N 
ATOM      9  C   UNL     1       6.643   4.303  18.605  0.00  0.00    +0.000 C 
ATOM     10  C   UNL     1       7.163   5.648  19.124  0.00  0.00    +0.000 C 
ATOM     11  O   UNL     1       8.000   6.279  18.146  0.00  0.00    +0.000 OA
ATOM     12  C   UNL     1       7.280   6.505  16.921  0.00  0.00    +0.000 C 
ATOM     13  C   UNL     1       6.745   5.190  16.335  0.00  0.00    +0.000 C 
ENDBRANCH   5   6
BRANCH   1  14
ATOM     14  S   UNL     1       3.209   5.329  20.083  0.00  0.00    +0.000 S 
ATOM     15  O   UNL     1       4.631   5.569  20.016  0.00  0.00    +0.000 OA
ATOM     16  O   UNL     1       2.568   4.864  21.292  0.00  0.00    +0.000 OA
BRANCH  14  20
ATOM     17  C   UNL     1      -0.235   9.135  21.295  0.00  0.00    +0.000 C 
ATOM     18  C   UNL     1       0.758   8.608  20.293  0.00  0.00    +0.000 A 
ATOM     19  C   UNL     1       1.464   7.423  20.555  0.00  0.00    +0.000 A 
ATOM     20  C   UNL     1       2.407   6.902  19.643  0.00  0.00    +0.000 A 
ATOM     21  C   UNL     1       2.652   7.586  18.439  0.00  0.00    +0.000 A 
ATOM     22  C   UNL     1       3.624   7.177  17.379  0.00  0.00    +0.000 C 
ATOM     23  C   UNL     1       1.941   8.777  18.186  0.00  0.00    +0.000 A 
ATOM     24  C   UNL     1       1.011   9.286  19.092  0.00  0.00    +0.000 A 
ATOM     25 CL   UNL     1       0.208  10.759  18.684  0.00  0.00    +0.000 Cl
ENDBRANCH  14  20
ENDBRANCH   1  14
TORSDOF 3
ENDMDL
MODEL 5
REMARK VINA RESULT:      -5.8      3.738      5.767
REMARK  Name = 
REMARK  5 active torsions:
REMARK  status: ('A' for Active; 'I' for Inactive)
REMARK    1  A    between atoms: C_1  and  C_2
REMARK    2  A    between atoms: C_4  and  S_5
REMARK    3  A    between atoms: S_5  and  N_8
REMARK    4  A    between atoms: C_12  and  C_13
REMARK    5  A    between atoms: C_21  and  C_22
REMARK                            x       y       z     vdW  Elec       q    Type
REMARK                         _______ _______ _______ _____ _____    ______ ____
ROOT
ATOM      1  N   UNL     1      -0.448  11.662  20.917  0.00  0.00    +0.000 NA
ATOM      2  C   UNL     1       0.660  10.737  21.089  0.00  0.00    +0.000 C 
ATOM      3  C   UNL     1       0.016   9.655  21.932  0.00  0.00    +0.000 C 
ATOM      4  C   UNL     1      -0.923  10.417  22.861  0.00  0.00    +0.000 C 
ATOM      5  C   UNL     1      -1.318  11.704  22.112  0.00  0.00    +0.000 C 
ENDROOT
BRANCH   5   6
ATOM      6  C   UNL     1      -1.168  12.952  23.006  0.00  0.00    +0.000 C 
ATOM      7  O   UNL     1      -0.094  13.557  23.076  0.00  0.00    +0.000 OA
ATOM      8  N   UNL     1      -2.282  13.377  23.727  0.00  0.00    +0.000 N 
ATOM      9  C   UNL     1      -3.625  12.782  23.744  0.00  0.00    +0.000 C 
ATOM     10  C   UNL     1      -4.680  13.821  23.347  0.00  0.00    +0.000 C 
ATOM     11  O   UNL     1      -4.611  14.967  24.203  0.00  0.00    +0.000 OA
ATOM     12  C   UNL     1      -3.311  15.582  24.138  0.00  0.00    +0.000 C 
ATOM     13  C   UNL     1      -2.206  14.597  24.544  0.00  0.00    +0.000 C 
ENDBRANCH   5   6
BRANCH   1  14
ATOM     14  S   UNL     1      -0.770  12.446  19.487  0.00  0.00    +0.000 S 
ATOM     15  O   UNL     1       0.096  11.879  18.480  0.00  0.00    +0.000 OA
ATOM     16  O   UNL     1      -0.827  13.869  19.732  0.00  0.00    +0.000 OA
BRANCH  14  20
ATOM     17  C   UNL     1      -5.974  13.068  20.074  0.00  0.00    +0.000 C 
ATOM     18  C   UNL     1      -4.866  12.285  19.422  0.00  0.00    +0.000 A 
ATOM     19  C   UNL     1      -3.524  12.632  19.654  0.00  0.00    +0.000 A 
ATOM     20  C   UNL     1      -2.459  11.925  19.056  0.00  0.00    +0.000 A 
ATOM     21  C   UNL     1      -2.742  10.845  18.201  0.00  0.00    +0.000 A 
ATOM     22  C   UNL     1      -1.734  10.007  17.482  0.00  0.00    +0.000 C 
ATOM     23  C   UNL     1      -4.091  10.506  17.972  0.00  0.00    +0.000 A 
ATOM     24  C   UNL     1      -5.138  11.209  18.565  0.00  0.00    +0.000 A 
ATOM     25 CL   UNL     1      -6.752  10.714  18.203  0.00  0.00    +0.000 Cl
ENDBRANCH  14  20
ENDBRANCH   1  14
TORSDOF 3
ENDMDL
MODEL 6
REMARK VINA RESULT:      -5.8      3.700      5.788
REMARK  Name = 
REMARK  5 active torsions:
REMARK  status: ('A' for Active; 'I' for Inactive)
REMARK    1  A    between atoms: C_1  and  C_2
REMARK    2  A    between atoms: C_4  and  S_5
REMARK    3  A    between atoms: S_5  and  N_8
REMARK    4  A    between atoms: C_12  and  C_13
REMARK    5  A    between atoms: C_21  and  C_22
REMARK                            x       y       z     vdW  Elec       q    Type
REMARK                         _______ _______ _______ _____ _____    ______ ____
ROOT
ATOM      1  N   UNL     1      -0.426  11.069  20.936  0.00  0.00    +0.000 NA
ATOM      2  C   UNL     1       0.758  10.258  21.175  0.00  0.00    +0.000 C 
ATOM      3  C   UNL     1       0.257   9.311  22.247  0.00  0.00    +0.000 C 
ATOM      4  C   UNL     1      -0.667  10.172  23.102  0.00  0.00    +0.000 C 
ATOM      5  C   UNL     1      -1.209  11.275  22.173  0.00  0.00    +0.000 C 
ENDROOT
BRANCH   5   6
ATOM      6  C   UNL     1      -1.088  12.672  22.815  0.00  0.00    +0.000 C 
ATOM      7  O   UNL     1      -0.056  13.340  22.695  0.00  0.00    +0.000 OA
ATOM      8  N   UNL     1      -2.180  13.158  23.532  0.00  0.00    +0.000 N 
ATOM      9  C   UNL     1      -3.474  12.501  23.758  0.00  0.00    +0.000 C 
ATOM     10  C   UNL     1      -4.622  13.388  23.263  0.00  0.00    +0.000 C 
ATOM     11  O   UNL     1      -4.577  14.674  23.894  0.00  0.00    +0.000 OA
ATOM     12  C   UNL     1      -3.330  15.339  23.621  0.00  0.00    +0.000 C 
ATOM     13  C   UNL     1      -2.135  14.509  24.111  0.00  0.00    +0.000 C 
ENDBRANCH   5   6
BRANCH   1  14
ATOM     14  S   UNL     1      -0.906  11.558  19.421  0.00  0.00    +0.000 S 
ATOM     15  O   UNL     1      -2.312  11.879  19.498  0.00  0.00    +0.000 OA
ATOM     16  O   UNL     1      -0.385  10.632  18.441  0.00  0.00    +0.000 OA
BRANCH  14  20
ATOM     17  C   UNL     1      -1.032  16.830  19.396  0.00  0.00    +0.000 C 
ATOM     18  C   UNL     1      -0.214  15.589  19.154  0.00  0.00    +0.000 A 
ATOM     19  C   UNL     1      -0.775  14.320  19.369  0.00  0.00    +0.000 A 
ATOM     20  C   UNL     1      -0.038  13.135  19.159  0.00  0.00    +0.000 A 
ATOM     21  C   UNL     1       1.298  13.221  18.727  0.00  0.00    +0.000 A 
ATOM     22  C   UNL     1       2.215  12.069  18.473  0.00  0.00    +0.000 C 
ATOM     23  C   UNL     1       1.854  14.500  18.517  0.00  0.00    +0.000 A 
ATOM     24  C   UNL     1       1.119  15.666  18.726  0.00  0.00    +0.000 A 
ATOM     25 CL   UNL     1       1.907  17.178  18.450  0.00  0.00    +0.000 Cl
ENDBRANCH  14  20
ENDBRANCH   1  14
TORSDOF 3
ENDMDL
MODEL 7
REMARK VINA RESULT:      -5.7      1.283      1.999
REMARK  Name = 
REMARK  5 active torsions:
REMARK  status: ('A' for Active; 'I' for Inactive)
REMARK    1  A    between atoms: C_1  and  C_2
REMARK    2  A    between atoms: C_4  and  S_5
REMARK    3  A    between atoms: S_5  and  N_8
REMARK    4  A    between atoms: C_12  and  C_13
REMARK    5  A    between atoms: C_21  and  C_22
REMARK                            x       y       z     vdW  Elec       q    Type
REMARK                         _______ _______ _______ _____ _____    ______ ____
ROOT
ATOM      1  N   UNL     1      -0.489  10.929  18.756  0.00  0.00    +0.000 NA
ATOM      2  C   UNL     1      -1.223   9.710  18.457  0.00  0.00    +0.000 C 
ATOM      3  C   UNL     1      -2.006  10.128  17.229  0.00  0.00    +0.000 C 
ATOM      4  C   UNL     1      -2.373  11.583  17.500  0.00  0.00    +0.000 C 
ATOM      5  C   UNL     1      -1.277  12.138  18.431  0.00  0.00    +0.000 C 
ENDROOT
BRANCH   5   6
ATOM      6  C   UNL     1      -1.879  12.888  19.635  0.00  0.00    +0.000 C 
ATOM      7  O   UNL     1      -2.806  12.400  20.289  0.00  0.00    +0.000 OA
ATOM      8  N   UNL     1      -1.342  14.131  19.966  0.00  0.00    +0.000 N 
ATOM      9  C   UNL     1      -0.239  14.841  19.304  0.00  0.00    +0.000 C 
ATOM     10  C   UNL     1       0.873  15.164  20.308  0.00  0.00    +0.000 C 
ATOM     11  O   UNL     1       0.358  15.921  21.410  0.00  0.00    +0.000 OA
ATOM     12  C   UNL     1      -0.682  15.196  22.092  0.00  0.00    +0.000 C 
ATOM     13  C   UNL     1      -1.841  14.857  21.143  0.00  0.00    +0.000 C 
ENDBRANCH   5   6
BRANCH   1  14
ATOM     14  S   UNL     1       1.097  10.942  19.252  0.00  0.00    +0.000 S 
ATOM     15  O   UNL     1       1.151  11.652  20.508  0.00  0.00    +0.000 OA
ATOM     16  O   UNL     1       1.937  11.303  18.133  0.00  0.00    +0.000 OA
BRANCH  14  20
ATOM     17  C   UNL     1       3.288   6.366  17.810  0.00  0.00    +0.000 C 
ATOM     18  C   UNL     1       2.498   7.110  18.854  0.00  0.00    +0.000 A 
ATOM     19  C   UNL     1       2.197   8.470  18.676  0.00  0.00    +0.000 A 
ATOM     20  C   UNL     1       1.465   9.202  19.636  0.00  0.00    +0.000 A 
ATOM     21  C   UNL     1       1.025   8.558  20.806  0.00  0.00    +0.000 A 
ATOM     22  C   UNL     1       0.255   9.190  21.920  0.00  0.00    +0.000 C 
ATOM     23  C   UNL     1       1.335   7.193  20.978  0.00  0.00    +0.000 A 
ATOM     24  C   UNL     1       2.059   6.476  20.026  0.00  0.00    +0.000 A 
ATOM     25 CL   UNL     1       2.392   4.813  20.347  0.00  0.00    +0.000 Cl
ENDBRANCH  14  20
ENDBRANCH   1  14
TORSDOF 3
ENDMDL
MODEL 8
REMARK VINA RESULT:      -5.7      2.307      3.152
REMARK  Name = 
REMARK  5 active torsions:
REMARK  status: ('A' for Active; 'I' for Inactive)
REMARK    1  A    between atoms: C_1  and  C_2
REMARK    2  A    between atoms: C_4  and  S_5
REMARK    3  A    between atoms: S_5  and  N_8
REMARK    4  A    between atoms: C_12  and  C_13
REMARK    5  A    between atoms: C_21  and  C_22
REMARK                            x       y       z     vdW  Elec       q    Type
REMARK                         _______ _______ _______ _____ _____    ______ ____
ROOT
ATOM      1  N   UNL     1      -0.942  12.439  19.905  0.00  0.00    +0.000 NA
ATOM      2  C   UNL     1      -2.273  12.127  19.409  0.00  0.00    +0.000 C 
ATOM      3  C   UNL     1      -1.985  11.837  17.950  0.00  0.00    +0.000 C 
ATOM      4  C   UNL     1      -0.889  12.831  17.582  0.00  0.00    +0.000 C 
ATOM      5  C   UNL     1      -0.124  13.130  18.886  0.00  0.00    +0.000 C 
ENDROOT
BRANCH   5   6
ATOM      6  C   UNL     1       0.069  14.645  19.098  0.00  0.00    +0.000 C 
ATOM      7  O   UNL     1      -0.900  15.390  19.279  0.00  0.00    +0.000 OA
ATOM      8  N   UNL     1       1.370  15.147  19.084  0.00  0.00    +0.000 N 
ATOM      9  C   UNL     1       2.621  14.400  18.896  0.00  0.00    +0.000 C 
ATOM     10  C   UNL     1       3.568  14.630  20.079  0.00  0.00    +0.000 C 
ATOM     11  O   UNL     1       3.822  16.028  20.262  0.00  0.00    +0.000 OA
ATOM     12  C   UNL     1       2.598  16.747  20.505  0.00  0.00    +0.000 C 
ATOM     13  C   UNL     1       1.609  16.574  19.343  0.00  0.00    +0.000 C 
ENDBRANCH   5   6
BRANCH   1  14
ATOM     14  S   UNL     1      -0.376  11.929  21.383  0.00  0.00    +0.000 S 
ATOM     15  O   UNL     1      -1.525  11.632  22.205  0.00  0.00    +0.000 OA
ATOM     16  O   UNL     1       0.667  12.828  21.823  0.00  0.00    +0.000 OA
BRANCH  14  20
ATOM     17  C   UNL     1       1.968   8.716  17.919  0.00  0.00    +0.000 C 
ATOM     18  C   UNL     1       1.483   8.906  19.332  0.00  0.00    +0.000 A 
ATOM     19  C   UNL     1       0.887  10.118  19.718  0.00  0.00    +0.000 A 
ATOM     20  C   UNL     1       0.426  10.334  21.034  0.00  0.00    +0.000 A 
ATOM     21  C   UNL     1       0.568   9.313  21.991  0.00  0.00    +0.000 A 
ATOM     22  C   UNL     1       0.147   9.387  23.423  0.00  0.00    +0.000 C 
ATOM     23  C   UNL     1       1.170   8.101  21.595  0.00  0.00    +0.000 A 
ATOM     24  C   UNL     1       1.623   7.895  20.293  0.00  0.00    +0.000 A 
ATOM     25 CL   UNL     1       2.357   6.376  19.924  0.00  0.00    +0.000 Cl
ENDBRANCH  14  20
ENDBRANCH   1  14
TORSDOF 3
ENDMDL
MODEL 9
REMARK VINA RESULT:      -5.7      4.090      5.761
REMARK  Name = 
REMARK  5 active torsions:
REMARK  status: ('A' for Active; 'I' for Inactive)
REMARK    1  A    between atoms: C_1  and  C_2
REMARK    2  A    between atoms: C_4  and  S_5
REMARK    3  A    between atoms: S_5  and  N_8
REMARK    4  A    between atoms: C_12  and  C_13
REMARK    5  A    between atoms: C_21  and  C_22
REMARK                            x       y       z     vdW  Elec       q    Type
REMARK                         _______ _______ _______ _____ _____    ______ ____
ROOT
ATOM      1  N   UNL     1      -0.265  12.345  20.969  0.00  0.00    +0.000 NA
ATOM      2  C   UNL     1      -0.555  11.629  22.201  0.00  0.00    +0.000 C 
ATOM      3  C   UNL     1      -1.349  12.666  22.967  0.00  0.00    +0.000 C 
ATOM      4  C   UNL     1      -0.681  13.988  22.605  0.00  0.00    +0.000 C 
ATOM      5  C   UNL     1      -0.062  13.789  21.208  0.00  0.00    +0.000 C 
ENDROOT
BRANCH   5   6
ATOM      6  C   UNL     1       1.400  14.277  21.158  0.00  0.00    +0.000 C 
ATOM      7  O   UNL     1       2.329  13.532  21.484  0.00  0.00    +0.000 OA
ATOM      8  N   UNL     1       1.639  15.581  20.728  0.00  0.00    +0.000 N 
ATOM      9  C   UNL     1       0.655  16.583  20.296  0.00  0.00    +0.000 C 
ATOM     10  C   UNL     1       0.976  17.078  18.882  0.00  0.00    +0.000 C 
ATOM     11  O   UNL     1       2.308  17.601  18.818  0.00  0.00    +0.000 OA
ATOM     12  C   UNL     1       3.274  16.599  19.185  0.00  0.00    +0.000 C 
ATOM     13  C   UNL     1       3.019  16.072  20.605  0.00  0.00    +0.000 C 
ENDBRANCH   5   6
BRANCH   1  14
ATOM     14  S   UNL     1      -0.318  11.635  19.467  0.00  0.00    +0.000 S 
ATOM     15  O   UNL     1       0.077  10.255  19.627  0.00  0.00    +0.000 OA
ATOM     16  O   UNL     1       0.324  12.508  18.510  0.00  0.00    +0.000 OA
BRANCH  14  20
ATOM     17  C   UNL     1      -5.223  13.306  20.452  0.00  0.00    +0.000 C 
ATOM     18  C   UNL     1      -4.337  12.433  19.603  0.00  0.00    +0.000 A 
ATOM     19  C   UNL     1      -2.950  12.411  19.820  0.00  0.00    +0.000 A 
ATOM     20  C   UNL     1      -2.087  11.611  19.040  0.00  0.00    +0.000 A 
ATOM     21  C   UNL     1      -2.625  10.814  18.014  0.00  0.00    +0.000 A 
ATOM     22  C   UNL     1      -1.851   9.926  17.094  0.00  0.00    +0.000 C 
ATOM     23  C   UNL     1      -4.019  10.846  17.801  0.00  0.00    +0.000 A 
ATOM     24  C   UNL     1      -4.865  11.639  18.575  0.00  0.00    +0.000 A 
ATOM     25 CL   UNL     1      -6.553  11.608  18.216  0.00  0.00    +0.000 Cl
ENDBRANCH  14  20
ENDBRANCH   1  14
TORSDOF 3
ENDMDL
