MODEL 1
REMARK VINA RESULT:      -7.6      0.000      0.000
REMARK  Name = 
REMARK  11 active torsions:
REMARK  status: ('A' for Active; 'I' for Inactive)
REMARK    1  A    between atoms: C_1  and  O_2
REMARK    2  A    between atoms: O_2  and  C_3
REMARK    3  A    between atoms: C_3  and  C_5
REMARK    4  A    between atoms: C_6  and  C_7
REMARK    5  A    between atoms: C_7  and  C_8
REMARK    6  A    between atoms: C_11  and  C_12
REMARK    7  A    between atoms: N_14  and  C_15
REMARK    8  A    between atoms: C_15  and  C_16
REMARK    9  A    between atoms: C_16  and  O_17
REMARK   10  A    between atoms: C_25  and  C_26
REMARK   11  A    between atoms: N_29  and  C_30
REMARK                            x       y       z     vdW  Elec       q    Type
REMARK                         _______ _______ _______ _____ _____    ______ ____
ROOT
ATOM      1  C   UNL     1      -1.216  12.254  20.204  0.00  0.00    +0.000 A 
ATOM      2  C   UNL     1      -0.711  11.615  19.130  0.00  0.00    +0.000 A 
ATOM      3  C   UNL     1      -1.695  11.264  18.079  0.00  0.00    +0.000 A 
ATOM      4  O   UNL     1      -1.334  10.800  17.003  0.00  0.00    +0.000 OA
ATOM      5  C   UNL     1      -3.123  11.429  18.353  0.00  0.00    +0.000 A 
ATOM      6  C   UNL     1      -4.076  10.945  17.451  0.00  0.00    +0.000 A 
ATOM      7  C   UNL     1      -5.431  11.083  17.727  0.00  0.00    +0.000 A 
ATOM      8  C   UNL     1      -5.796  11.725  18.902  0.00  0.00    +0.000 A 
ATOM      9  C   UNL     1      -7.227  11.958  19.272  0.00  0.00    +0.000 C 
ATOM     10  N   UNL     1      -4.871  12.219  19.743  0.00  0.00    +0.000 NA
ATOM     11  C   UNL     1      -3.542  12.064  19.507  0.00  0.00    +0.000 A 
ATOM     12  N   UNL     1      -2.582  12.585  20.437  0.00  0.00    +0.000 N 
ENDROOT
BRANCH  12  13
ATOM     13  C   UNL     1      -3.036  13.244  21.658  0.00  0.00    +0.000 A 
ATOM     14  C   UNL     1      -3.270  12.507  22.823  0.00  0.00    +0.000 A 
ATOM     15  C   UNL     1      -3.359  13.131  24.066  0.00  0.00    +0.000 A 
ATOM     16  C   UNL     1      -3.161  14.506  24.174  0.00  0.00    +0.000 A 
ATOM     17  C   UNL     1      -2.973  15.276  23.039  0.00  0.00    +0.000 A 
ATOM     18  C   UNL     1      -3.034  14.661  21.789  0.00  0.00    +0.000 A 
ENDBRANCH  12  13
BRANCH   1  19
ATOM     19  C   UNL     1      -0.206  12.449  21.330  0.00  0.00    +0.000 C 
ATOM     20  O   UNL     1       0.070  11.683  22.185  0.00  0.00    +0.000 OA
BRANCH  19  22
ATOM     21  C   UNL     1       0.608  14.588  22.044  0.00  0.00    +0.000 C 
ATOM     22  O   UNL     1       0.502  13.545  21.102  0.00  0.00    +0.000 OA
ENDBRANCH  19  22
ENDBRANCH   1  19
BRANCH   2  23
ATOM     23  C   UNL     1       0.709  11.203  18.798  0.00  0.00    +0.000 C 
BRANCH  23  24
ATOM     24  C   UNL     1       1.057   9.726  18.916  0.00  0.00    +0.000 A 
ATOM     25  C   UNL     1       1.629   9.026  17.844  0.00  0.00    +0.000 A 
ATOM     26  C   UNL     1       2.222   7.770  18.038  0.00  0.00    +0.000 A 
ATOM     27  C   UNL     1       2.269   7.194  19.313  0.00  0.00    +0.000 A 
ATOM     28  C   UNL     1       1.599   7.838  20.365  0.00  0.00    +0.000 A 
ATOM     29  C   UNL     1       0.982   9.083  20.159  0.00  0.00    +0.000 A 
BRANCH  27  30
ATOM     30  C   UNL     1       3.162   6.013  19.567  0.00  0.00    +0.000 C 
ATOM     31  O   UNL     1       2.765   5.071  20.246  0.00  0.00    +0.000 OA
ATOM     32  N   UNL     1       4.431   6.051  19.013  0.00  0.00    +0.000 N 
ATOM     33  H   UNL     1       4.647   6.743  18.309  0.00  0.00    +0.000 HD
BRANCH  32  34
ATOM     34  C   UNL     1       5.372   4.945  19.172  0.00  0.00    +0.000 C 
BRANCH  34  35
ATOM     35  C   UNL     1       5.939   4.490  17.826  0.00  0.00    +0.000 C 
BRANCH  35  36
ATOM     36  O   UNL     1       7.337   4.211  17.929  0.00  0.00    +0.000 OA
ATOM     37  H   UNL     1       7.766   4.633  17.167  0.00  0.00    +0.000 HD
ENDBRANCH  35  36
ENDBRANCH  34  35
ENDBRANCH  32  34
ENDBRANCH  27  30
ENDBRANCH  23  24
ENDBRANCH   2  23
TORSDOF 9
ENDMDL
MODEL 2
REMARK VINA RESULT:      -7.6      1.225      1.698
REMARK  Name = 
REMARK  11 active torsions:
REMARK  status: ('A' for Active; 'I' for Inactive)
REMARK    1  A    between atoms: C_1  and  O_2
REMARK    2  A    between atoms: O_2  and  C_3
REMARK    3  A    between atoms: C_3  and  C_5
REMARK    4  A    between atoms: C_6  and  C_7
REMARK    5  A    between atoms: C_7  and  C_8
REMARK    6  A    between atoms: C_11  and  C_12
REMARK    7  A    between atoms: N_14  and  C_15
REMARK    8  A    between atoms: C_15  and  C_16
REMARK    9  A    between atoms: C_16  and  O_17
REMARK   10  A    between atoms: C_25  and  C_26
REMARK   11  A    between atoms: N_29  and  C_30
REMARK                            x       y       z     vdW  Elec       q    Type
REMARK                         _______ _______ _______ _____ _____    ______ ____
ROOT
ATOM      1  C   UNL     1      -0.993  12.100  20.515  0.00  0.00    +0.000 A 
ATOM      2  C   UNL     1      -0.475  11.488  19.432  0.00  0.00    +0.000 A 
ATOM      3  C   UNL     1      -1.426  11.247  18.323  0.00  0.00    +0.000 A 
ATOM      4  O   UNL     1      -1.041  10.816  17.240  0.00  0.00    +0.000 OA
ATOM      5  C   UNL     1      -2.854  11.479  18.541  0.00  0.00    +0.000 A 
ATOM      6  C   UNL     1      -3.789  11.096  17.575  0.00  0.00    +0.000 A 
ATOM      7  C   UNL     1      -5.146  11.298  17.798  0.00  0.00    +0.000 A 
ATOM      8  C   UNL     1      -5.529  11.900  18.987  0.00  0.00    +0.000 A 
ATOM      9  C   UNL     1      -6.961  12.196  19.305  0.00  0.00    +0.000 C 
ATOM     10  N   UNL     1      -4.619  12.298  19.893  0.00  0.00    +0.000 NA
ATOM     11  C   UNL     1      -3.291  12.079  19.708  0.00  0.00    +0.000 A 
ATOM     12  N   UNL     1      -2.348  12.498  20.705  0.00  0.00    +0.000 N 
ENDROOT
BRANCH  12  13
ATOM     13  C   UNL     1      -2.822  13.120  21.938  0.00  0.00    +0.000 A 
ATOM     14  C   UNL     1      -3.068  14.495  21.995  0.00  0.00    +0.000 A 
ATOM     15  C   UNL     1      -3.836  15.050  23.018  0.00  0.00    +0.000 A 
ATOM     16  C   UNL     1      -4.421  14.226  23.977  0.00  0.00    +0.000 A 
ATOM     17  C   UNL     1      -4.164  12.866  23.980  0.00  0.00    +0.000 A 
ATOM     18  C   UNL     1      -3.276  12.344  23.041  0.00  0.00    +0.000 A 
ENDBRANCH  12  13
BRANCH   1  19
ATOM     19  C   UNL     1      -0.028  12.181  21.693  0.00  0.00    +0.000 C 
ATOM     20  O   UNL     1       0.099  11.400  22.570  0.00  0.00    +0.000 OA
BRANCH  19  22
ATOM     21  C   UNL     1       0.627  14.465  22.012  0.00  0.00    +0.000 C 
ATOM     22  O   UNL     1       0.829  13.171  21.493  0.00  0.00    +0.000 OA
ENDBRANCH  19  22
ENDBRANCH   1  19
BRANCH   2  23
ATOM     23  C   UNL     1       0.935  11.012  19.142  0.00  0.00    +0.000 C 
BRANCH  23  24
ATOM     24  C   UNL     1       1.193   9.513  19.191  0.00  0.00    +0.000 A 
ATOM     25  C   UNL     1       1.728   8.832  18.088  0.00  0.00    +0.000 A 
ATOM     26  C   UNL     1       2.244   7.534  18.224  0.00  0.00    +0.000 A 
ATOM     27  C   UNL     1       2.251   6.897  19.471  0.00  0.00    +0.000 A 
ATOM     28  C   UNL     1       1.615   7.530  20.550  0.00  0.00    +0.000 A 
ATOM     29  C   UNL     1       1.073   8.818  20.402  0.00  0.00    +0.000 A 
BRANCH  27  30
ATOM     30  C   UNL     1       3.069   5.654  19.670  0.00  0.00    +0.000 C 
ATOM     31  O   UNL     1       4.290   5.691  19.551  0.00  0.00    +0.000 OA
ATOM     32  N   UNL     1       2.384   4.490  19.979  0.00  0.00    +0.000 N 
ATOM     33  H   UNL     1       1.415   4.542  20.258  0.00  0.00    +0.000 HD
BRANCH  32  34
ATOM     34  C   UNL     1       3.082   3.230  20.221  0.00  0.00    +0.000 C 
BRANCH  34  35
ATOM     35  C   UNL     1       3.122   2.358  18.964  0.00  0.00    +0.000 C 
BRANCH  35  36
ATOM     36  O   UNL     1       1.923   1.591  18.836  0.00  0.00    +0.000 OA
ATOM     37  H   UNL     1       1.309   2.115  18.295  0.00  0.00    +0.000 HD
ENDBRANCH  35  36
ENDBRANCH  34  35
ENDBRANCH  32  34
ENDBRANCH  27  30
ENDBRANCH  23  24
ENDBRANCH   2  23
TORSDOF 9
ENDMDL
MODEL 3
REMARK VINA RESULT:      -7.4      1.520      3.947
REMARK  Name = 
REMARK  11 active torsions:
REMARK  status: ('A' for Active; 'I' for Inactive)
REMARK    1  A    between atoms: C_1  and  O_2
REMARK    2  A    between atoms: O_2  and  C_3
REMARK    3  A    between atoms: C_3  and  C_5
REMARK    4  A    between atoms: C_6  and  C_7
REMARK    5  A    between atoms: C_7  and  C_8
REMARK    6  A    between atoms: C_11  and  C_12
REMARK    7  A    between atoms: N_14  and  C_15
REMARK    8  A    between atoms: C_15  and  C_16
REMARK    9  A    between atoms: C_16  and  O_17
REMARK   10  A    between atoms: C_25  and  C_26
REMARK   11  A    between atoms: N_29  and  C_30
REMARK                            x       y       z     vdW  Elec       q    Type
REMARK                         _______ _______ _______ _____ _____    ______ ____
ROOT
ATOM      1  C   UNL     1      -2.042  11.723  19.705  0.00  0.00    +0.000 A 
ATOM      2  C   UNL     1      -0.939  11.584  20.468  0.00  0.00    +0.000 A 
ATOM      3  C   UNL     1      -1.164  11.669  21.930  0.00  0.00    +0.000 A 
ATOM      4  O   UNL     1      -0.260  11.429  22.724  0.00  0.00    +0.000 OA
ATOM      5  C   UNL     1      -2.471  12.096  22.430  0.00  0.00    +0.000 A 
ATOM      6  C   UNL     1      -2.658  12.352  23.791  0.00  0.00    +0.000 A 
ATOM      7  C   UNL     1      -3.897  12.780  24.257  0.00  0.00    +0.000 A 
ATOM      8  C   UNL     1      -4.926  12.922  23.338  0.00  0.00    +0.000 A 
ATOM      9  C   UNL     1      -6.304  13.339  23.744  0.00  0.00    +0.000 C 
ATOM     10  N   UNL     1      -4.744  12.636  22.037  0.00  0.00    +0.000 NA
ATOM     11  C   UNL     1      -3.533  12.250  21.557  0.00  0.00    +0.000 A 
ATOM     12  N   UNL     1      -3.369  11.973  20.159  0.00  0.00    +0.000 N 
ENDROOT
BRANCH  12  13
ATOM     13  C   UNL     1      -4.495  12.150  19.247  0.00  0.00    +0.000 A 
ATOM     14  C   UNL     1      -5.174  11.044  18.727  0.00  0.00    +0.000 A 
ATOM     15  C   UNL     1      -6.437  11.177  18.152  0.00  0.00    +0.000 A 
ATOM     16  C   UNL     1      -7.071  12.418  18.136  0.00  0.00    +0.000 A 
ATOM     17  C   UNL     1      -6.413  13.544  18.600  0.00  0.00    +0.000 A 
ATOM     18  C   UNL     1      -5.094  13.424  19.035  0.00  0.00    +0.000 A 
ENDBRANCH  12  13
BRANCH   1  19
ATOM     19  C   UNL     1      -1.747  11.794  18.211  0.00  0.00    +0.000 C 
ATOM     20  O   UNL     1      -1.236  12.681  17.623  0.00  0.00    +0.000 OA
BRANCH  19  22
ATOM     21  C   UNL     1      -2.440  10.451  16.349  0.00  0.00    +0.000 C 
ATOM     22  O   UNL     1      -1.954  10.606  17.663  0.00  0.00    +0.000 OA
ENDBRANCH  19  22
ENDBRANCH   1  19
BRANCH   2  23
ATOM     23  C   UNL     1       0.506  11.336  20.085  0.00  0.00    +0.000 C 
BRANCH  23  24
ATOM     24  C   UNL     1       0.885   9.927  19.654  0.00  0.00    +0.000 A 
ATOM     25  C   UNL     1       1.235   9.643  18.326  0.00  0.00    +0.000 A 
ATOM     26  C   UNL     1       1.867   8.437  17.989  0.00  0.00    +0.000 A 
ATOM     27  C   UNL     1       2.179   7.496  18.978  0.00  0.00    +0.000 A 
ATOM     28  C   UNL     1       1.730   7.727  20.288  0.00  0.00    +0.000 A 
ATOM     29  C   UNL     1       1.071   8.923  20.614  0.00  0.00    +0.000 A 
BRANCH  27  30
ATOM     30  C   UNL     1       3.116   6.365  18.664  0.00  0.00    +0.000 C 
ATOM     31  O   UNL     1       3.059   5.797  17.578  0.00  0.00    +0.000 OA
ATOM     32  N   UNL     1       4.019   6.002  19.650  0.00  0.00    +0.000 N 
ATOM     33  H   UNL     1       4.164   6.612  20.442  0.00  0.00    +0.000 HD
BRANCH  32  34
ATOM     34  C   UNL     1       4.994   4.935  19.443  0.00  0.00    +0.000 C 
BRANCH  34  35
ATOM     35  C   UNL     1       6.352   5.490  19.005  0.00  0.00    +0.000 C 
BRANCH  35  36
ATOM     36  O   UNL     1       7.291   5.450  20.082  0.00  0.00    +0.000 OA
ATOM     37  H   UNL     1       7.125   4.626  20.569  0.00  0.00    +0.000 HD
ENDBRANCH  35  36
ENDBRANCH  34  35
ENDBRANCH  32  34
ENDBRANCH  27  30
ENDBRANCH  23  24
ENDBRANCH   2  23
TORSDOF 9
ENDMDL
MODEL 4
REMARK VINA RESULT:      -7.4      0.780      1.106
REMARK  Name = 
REMARK  11 active torsions:
REMARK  status: ('A' for Active; 'I' for Inactive)
REMARK    1  A    between atoms: C_1  and  O_2
REMARK    2  A    between atoms: O_2  and  C_3
REMARK    3  A    between atoms: C_3  and  C_5
REMARK    4  A    between atoms: C_6  and  C_7
REMARK    5  A    between atoms: C_7  and  C_8
REMARK    6  A    between atoms: C_11  and  C_12
REMARK    7  A    between atoms: N_14  and  C_15
REMARK    8  A    between atoms: C_15  and  C_16
REMARK    9  A    between atoms: C_16  and  O_17
REMARK   10  A    between atoms: C_25  and  C_26
REMARK   11  A    between atoms: N_29  and  C_30
REMARK                            x       y       z     vdW  Elec       q    Type
REMARK                         _______ _______ _______ _____ _____    ______ ____
ROOT
ATOM      1  C   UNL     1      -1.227  12.326  20.599  0.00  0.00    +0.000 A 
ATOM      2  C   UNL     1      -0.632  11.754  19.533  0.00  0.00    +0.000 A 
ATOM      3  C   UNL     1      -1.525  11.459  18.389  0.00  0.00    +0.000 A 
ATOM      4  O   UNL     1      -1.073  11.060  17.320  0.00  0.00    +0.000 OA
ATOM      5  C   UNL     1      -2.972  11.598  18.556  0.00  0.00    +0.000 A 
ATOM      6  C   UNL     1      -3.844  11.163  17.554  0.00  0.00    +0.000 A 
ATOM      7  C   UNL     1      -5.219  11.276  17.728  0.00  0.00    +0.000 A 
ATOM      8  C   UNL     1      -5.683  11.845  18.904  0.00  0.00    +0.000 A 
ATOM      9  C   UNL     1      -7.141  12.047  19.171  0.00  0.00    +0.000 C 
ATOM     10  N   UNL     1      -4.834  12.295  19.844  0.00  0.00    +0.000 NA
ATOM     11  C   UNL     1      -3.488  12.162  19.708  0.00  0.00    +0.000 A 
ATOM     12  N   UNL     1      -2.611  12.635  20.740  0.00  0.00    +0.000 N 
ENDROOT
BRANCH  12  13
ATOM     13  C   UNL     1      -3.169  13.219  21.956  0.00  0.00    +0.000 A 
ATOM     14  C   UNL     1      -3.529  12.408  23.037  0.00  0.00    +0.000 A 
ATOM     15  C   UNL     1      -3.727  12.946  24.308  0.00  0.00    +0.000 A 
ATOM     16  C   UNL     1      -3.512  14.304  24.534  0.00  0.00    +0.000 A 
ATOM     17  C   UNL     1      -3.199  15.146  23.480  0.00  0.00    +0.000 A 
ATOM     18  C   UNL     1      -3.151  14.622  22.190  0.00  0.00    +0.000 A 
ENDBRANCH  12  13
BRANCH   1  19
ATOM     19  C   UNL     1      -0.313  12.461  21.812  0.00  0.00    +0.000 C 
ATOM     20  O   UNL     1      -0.039  13.451  22.396  0.00  0.00    +0.000 OA
BRANCH  19  22
ATOM     21  C   UNL     1      -0.884  10.533  23.118  0.00  0.00    +0.000 C 
ATOM     22  O   UNL     1      -0.016  11.257  22.276  0.00  0.00    +0.000 OA
ENDBRANCH  19  22
ENDBRANCH   1  19
BRANCH   2  23
ATOM     23  C   UNL     1       0.815  11.371  19.294  0.00  0.00    +0.000 C 
BRANCH  23  24
ATOM     24  C   UNL     1       1.131   9.891  19.133  0.00  0.00    +0.000 A 
ATOM     25  C   UNL     1       1.629   9.381  17.925  0.00  0.00    +0.000 A 
ATOM     26  C   UNL     1       2.200   8.101  17.864  0.00  0.00    +0.000 A 
ATOM     27  C   UNL     1       2.300   7.310  19.015  0.00  0.00    +0.000 A 
ATOM     28  C   UNL     1       1.702   7.770  20.199  0.00  0.00    +0.000 A 
ATOM     29  C   UNL     1       1.105   9.041  20.247  0.00  0.00    +0.000 A 
BRANCH  27  30
ATOM     30  C   UNL     1       3.174   6.090  19.009  0.00  0.00    +0.000 C 
ATOM     31  O   UNL     1       3.384   5.472  20.048  0.00  0.00    +0.000 OA
ATOM     32  N   UNL     1       3.726   5.715  17.794  0.00  0.00    +0.000 N 
ATOM     33  H   UNL     1       3.378   6.127  16.941  0.00  0.00    +0.000 HD
BRANCH  32  34
ATOM     34  C   UNL     1       4.569   4.530  17.667  0.00  0.00    +0.000 C 
BRANCH  34  35
ATOM     35  C   UNL     1       6.035   4.845  17.976  0.00  0.00    +0.000 C 
BRANCH  35  36
ATOM     36  O   UNL     1       6.325   4.622  19.357  0.00  0.00    +0.000 OA
ATOM     37  H   UNL     1       5.635   4.029  19.698  0.00  0.00    +0.000 HD
ENDBRANCH  35  36
ENDBRANCH  34  35
ENDBRANCH  32  34
ENDBRANCH  27  30
ENDBRANCH  23  24
ENDBRANCH   2  23
TORSDOF 9
ENDMDL
MODEL 5
REMARK VINA RESULT:      -7.4      1.669      4.027
REMARK  Name = 
REMARK  11 active torsions:
REMARK  status: ('A' for Active; 'I' for Inactive)
REMARK    1  A    between atoms: C_1  and  O_2
REMARK    2  A    between atoms: O_2  and  C_3
REMARK    3  A    between atoms: C_3  and  C_5
REMARK    4  A    between atoms: C_6  and  C_7
REMARK    5  A    between atoms: C_7  and  C_8
REMARK    6  A    between atoms: C_11  and  C_12
REMARK    7  A    between atoms: N_14  and  C_15
REMARK    8  A    between atoms: C_15  and  C_16
REMARK    9  A    between atoms: C_16  and  O_17
REMARK   10  A    between atoms: C_25  and  C_26
REMARK   11  A    between atoms: N_29  and  C_30
REMARK                            x       y       z     vdW  Elec       q    Type
REMARK                         _______ _______ _______ _____ _____    ______ ____
ROOT
ATOM      1  C   UNL     1      -2.173  11.834  19.781  0.00  0.00    +0.000 A 
ATOM      2  C   UNL     1      -1.086  11.730  20.572  0.00  0.00    +0.000 A 
ATOM      3  C   UNL     1      -1.350  11.805  22.027  0.00  0.00    +0.000 A 
ATOM      4  O   UNL     1      -0.459  11.594  22.844  0.00  0.00    +0.000 OA
ATOM      5  C   UNL     1      -2.682  12.189  22.494  0.00  0.00    +0.000 A 
ATOM      6  C   UNL     1      -2.912  12.436  23.851  0.00  0.00    +0.000 A 
ATOM      7  C   UNL     1      -4.175  12.823  24.286  0.00  0.00    +0.000 A 
ATOM      8  C   UNL     1      -5.184  12.933  23.342  0.00  0.00    +0.000 A 
ATOM      9  C   UNL     1      -6.585  13.304  23.713  0.00  0.00    +0.000 C 
ATOM     10  N   UNL     1      -4.961  12.656  22.045  0.00  0.00    +0.000 NA
ATOM     11  C   UNL     1      -3.726  12.309  21.596  0.00  0.00    +0.000 A 
ATOM     12  N   UNL     1      -3.519  12.041  20.202  0.00  0.00    +0.000 N 
ENDROOT
BRANCH  12  13
ATOM     13  C   UNL     1      -4.626  12.183  19.262  0.00  0.00    +0.000 A 
ATOM     14  C   UNL     1      -5.304  11.058  18.781  0.00  0.00    +0.000 A 
ATOM     15  C   UNL     1      -6.555  11.172  18.178  0.00  0.00    +0.000 A 
ATOM     16  C   UNL     1      -7.179  12.416  18.093  0.00  0.00    +0.000 A 
ATOM     17  C   UNL     1      -6.521  13.558  18.515  0.00  0.00    +0.000 A 
ATOM     18  C   UNL     1      -5.212  13.449  18.980  0.00  0.00    +0.000 A 
ENDBRANCH  12  13
BRANCH   1  19
ATOM     19  C   UNL     1      -1.843  11.918  18.295  0.00  0.00    +0.000 C 
ATOM     20  O   UNL     1      -1.284  12.793  17.733  0.00  0.00    +0.000 OA
BRANCH  19  22
ATOM     21  C   UNL     1      -2.519  10.633  16.387  0.00  0.00    +0.000 C 
ATOM     22  O   UNL     1      -2.086  10.748  17.723  0.00  0.00    +0.000 OA
ENDBRANCH  19  22
ENDBRANCH   1  19
BRANCH   2  23
ATOM     23  C   UNL     1       0.376  11.530  20.225  0.00  0.00    +0.000 C 
BRANCH  23  24
ATOM     24  C   UNL     1       0.802  10.146  19.757  0.00  0.00    +0.000 A 
ATOM     25  C   UNL     1       1.202   9.919  18.432  0.00  0.00    +0.000 A 
ATOM     26  C   UNL     1       1.874   8.740  18.074  0.00  0.00    +0.000 A 
ATOM     27  C   UNL     1       2.175   7.771  19.039  0.00  0.00    +0.000 A 
ATOM     28  C   UNL     1       1.677   7.944  20.340  0.00  0.00    +0.000 A 
ATOM     29  C   UNL     1       0.980   9.113  20.686  0.00  0.00    +0.000 A 
BRANCH  27  30
ATOM     30  C   UNL     1       3.148   6.674  18.717  0.00  0.00    +0.000 C 
ATOM     31  O   UNL     1       3.640   6.591  17.595  0.00  0.00    +0.000 OA
ATOM     32  N   UNL     1       3.444   5.776  19.730  0.00  0.00    +0.000 N 
ATOM     33  H   UNL     1       3.174   5.990  20.679  0.00  0.00    +0.000 HD
BRANCH  32  34
ATOM     34  C   UNL     1       4.397   4.687  19.535  0.00  0.00    +0.000 C 
BRANCH  34  35
ATOM     35  C   UNL     1       3.720   3.442  18.956  0.00  0.00    +0.000 C 
BRANCH  35  36
ATOM     36  O   UNL     1       3.757   3.459  17.527  0.00  0.00    +0.000 OA
ATOM     37  H   UNL     1       3.792   4.392  17.258  0.00  0.00    +0.000 HD
ENDBRANCH  35  36
ENDBRANCH  34  35
ENDBRANCH  32  34
ENDBRANCH  27  30
ENDBRANCH  23  24
ENDBRANCH   2  23
TORSDOF 9
ENDMDL
MODEL 6
REMARK VINA RESULT:      -7.3      1.575      3.997
REMARK  Name = 
REMARK  11 active torsions:
REMARK  status: ('A' for Active; 'I' for Inactive)
REMARK    1  A    between atoms: C_1  and  O_2
REMARK    2  A    between atoms: O_2  and  C_3
REMARK    3  A    between atoms: C_3  and  C_5
REMARK    4  A    between atoms: C_6  and  C_7
REMARK    5  A    between atoms: C_7  and  C_8
REMARK    6  A    between atoms: C_11  and  C_12
REMARK    7  A    between atoms: N_14  and  C_15
REMARK    8  A    between atoms: C_15  and  C_16
REMARK    9  A    between atoms: C_16  and  O_17
REMARK   10  A    between atoms: C_25  and  C_26
REMARK   11  A    between atoms: N_29  and  C_30
REMARK                            x       y       z     vdW  Elec       q    Type
REMARK                         _______ _______ _______ _____ _____    ______ ____
ROOT
ATOM      1  C   UNL     1      -2.166  11.836  19.817  0.00  0.00    +0.000 A 
ATOM      2  C   UNL     1      -1.077  11.730  20.604  0.00  0.00    +0.000 A 
ATOM      3  C   UNL     1      -1.333  11.828  22.060  0.00  0.00    +0.000 A 
ATOM      4  O   UNL     1      -0.442  11.616  22.876  0.00  0.00    +0.000 OA
ATOM      5  C   UNL     1      -2.660  12.233  22.528  0.00  0.00    +0.000 A 
ATOM      6  C   UNL     1      -2.881  12.501  23.881  0.00  0.00    +0.000 A 
ATOM      7  C   UNL     1      -4.137  12.908  24.316  0.00  0.00    +0.000 A 
ATOM      8  C   UNL     1      -5.149  13.017  23.375  0.00  0.00    +0.000 A 
ATOM      9  C   UNL     1      -6.544  13.410  23.747  0.00  0.00    +0.000 C 
ATOM     10  N   UNL     1      -4.935  12.720  22.082  0.00  0.00    +0.000 NA
ATOM     11  C   UNL     1      -3.706  12.354  21.632  0.00  0.00    +0.000 A 
ATOM     12  N   UNL     1      -3.507  12.064  20.241  0.00  0.00    +0.000 N 
ENDROOT
BRANCH  12  13
ATOM     13  C   UNL     1      -4.617  12.207  19.303  0.00  0.00    +0.000 A 
ATOM     14  C   UNL     1      -5.246  11.080  18.765  0.00  0.00    +0.000 A 
ATOM     15  C   UNL     1      -6.500  11.173  18.161  0.00  0.00    +0.000 A 
ATOM     16  C   UNL     1      -7.174  12.392  18.134  0.00  0.00    +0.000 A 
ATOM     17  C   UNL     1      -6.565  13.538  18.616  0.00  0.00    +0.000 A 
ATOM     18  C   UNL     1      -5.253  13.460  19.081  0.00  0.00    +0.000 A 
ENDBRANCH  12  13
BRANCH   1  19
ATOM     19  C   UNL     1      -1.841  11.896  18.328  0.00  0.00    +0.000 C 
ATOM     20  O   UNL     1      -1.304  12.773  17.747  0.00  0.00    +0.000 OA
BRANCH  19  22
ATOM     21  C   UNL     1      -2.388  10.550  16.421  0.00  0.00    +0.000 C 
ATOM     22  O   UNL     1      -2.058  10.709  17.782  0.00  0.00    +0.000 OA
ENDBRANCH  19  22
ENDBRANCH   1  19
BRANCH   2  23
ATOM     23  C   UNL     1       0.381  11.508  20.255  0.00  0.00    +0.000 C 
BRANCH  23  24
ATOM     24  C   UNL     1       0.792  10.110  19.818  0.00  0.00    +0.000 A 
ATOM     25  C   UNL     1       1.204   9.851  18.503  0.00  0.00    +0.000 A 
ATOM     26  C   UNL     1       1.863   8.656  18.177  0.00  0.00    +0.000 A 
ATOM     27  C   UNL     1       2.138   7.701  19.163  0.00  0.00    +0.000 A 
ATOM     28  C   UNL     1       1.628   7.906  20.455  0.00  0.00    +0.000 A 
ATOM     29  C   UNL     1       0.943   9.092  20.770  0.00  0.00    +0.000 A 
BRANCH  27  30
ATOM     30  C   UNL     1       3.098   6.584  18.874  0.00  0.00    +0.000 C 
ATOM     31  O   UNL     1       3.364   5.756  19.740  0.00  0.00    +0.000 OA
ATOM     32  N   UNL     1       3.662   6.547  17.609  0.00  0.00    +0.000 N 
ATOM     33  H   UNL     1       3.275   7.123  16.875  0.00  0.00    +0.000 HD
BRANCH  32  34
ATOM     34  C   UNL     1       4.587   5.490  17.211  0.00  0.00    +0.000 C 
BRANCH  34  35
ATOM     35  C   UNL     1       5.660   6.012  16.253  0.00  0.00    +0.000 C 
BRANCH  35  36
ATOM     36  O   UNL     1       6.302   7.171  16.788  0.00  0.00    +0.000 OA
ATOM     37  H   UNL     1       6.500   7.755  16.037  0.00  0.00    +0.000 HD
ENDBRANCH  35  36
ENDBRANCH  34  35
ENDBRANCH  32  34
ENDBRANCH  27  30
ENDBRANCH  23  24
ENDBRANCH   2  23
TORSDOF 9
ENDMDL
MODEL 7
REMARK VINA RESULT:      -7.2      1.233      1.672
REMARK  Name = 
REMARK  11 active torsions:
REMARK  status: ('A' for Active; 'I' for Inactive)
REMARK    1  A    between atoms: C_1  and  O_2
REMARK    2  A    between atoms: O_2  and  C_3
REMARK    3  A    between atoms: C_3  and  C_5
REMARK    4  A    between atoms: C_6  and  C_7
REMARK    5  A    between atoms: C_7  and  C_8
REMARK    6  A    between atoms: C_11  and  C_12
REMARK    7  A    between atoms: N_14  and  C_15
REMARK    8  A    between atoms: C_15  and  C_16
REMARK    9  A    between atoms: C_16  and  O_17
REMARK   10  A    between atoms: C_25  and  C_26
REMARK   11  A    between atoms: N_29  and  C_30
REMARK                            x       y       z     vdW  Elec       q    Type
REMARK                         _______ _______ _______ _____ _____    ______ ____
ROOT
ATOM      1  C   UNL     1      -1.258  12.220  20.774  0.00  0.00    +0.000 A 
ATOM      2  C   UNL     1      -0.625  11.686  19.710  0.00  0.00    +0.000 A 
ATOM      3  C   UNL     1      -1.463  11.490  18.504  0.00  0.00    +0.000 A 
ATOM      4  O   UNL     1      -0.968  11.135  17.440  0.00  0.00    +0.000 OA
ATOM      5  C   UNL     1      -2.911  11.676  18.602  0.00  0.00    +0.000 A 
ATOM      6  C   UNL     1      -3.742  11.331  17.532  0.00  0.00    +0.000 A 
ATOM      7  C   UNL     1      -5.120  11.487  17.640  0.00  0.00    +0.000 A 
ATOM      8  C   UNL     1      -5.627  12.007  18.821  0.00  0.00    +0.000 A 
ATOM      9  C   UNL     1      -7.090  12.250  19.021  0.00  0.00    +0.000 C 
ATOM     10  N   UNL     1      -4.816  12.371  19.829  0.00  0.00    +0.000 NA
ATOM     11  C   UNL     1      -3.470  12.194  19.756  0.00  0.00    +0.000 A 
ATOM     12  N   UNL     1      -2.635  12.574  20.859  0.00  0.00    +0.000 N 
ENDROOT
BRANCH  12  13
ATOM     13  C   UNL     1      -3.238  13.109  22.076  0.00  0.00    +0.000 A 
ATOM     14  C   UNL     1      -3.524  12.273  23.159  0.00  0.00    +0.000 A 
ATOM     15  C   UNL     1      -3.763  12.794  24.430  0.00  0.00    +0.000 A 
ATOM     16  C   UNL     1      -3.667  14.166  24.652  0.00  0.00    +0.000 A 
ATOM     17  C   UNL     1      -3.431  15.030  23.597  0.00  0.00    +0.000 A 
ATOM     18  C   UNL     1      -3.341  14.510  22.306  0.00  0.00    +0.000 A 
ENDBRANCH  12  13
BRANCH   1  19
ATOM     19  C   UNL     1      -0.407  12.252  22.039  0.00  0.00    +0.000 C 
ATOM     20  O   UNL     1       0.005  11.328  22.649  0.00  0.00    +0.000 OA
BRANCH  19  22
ATOM     21  C   UNL     1       0.560  14.300  21.252  0.00  0.00    +0.000 C 
ATOM     22  O   UNL     1       0.003  13.491  22.263  0.00  0.00    +0.000 OA
ENDBRANCH  19  22
ENDBRANCH   1  19
BRANCH   2  23
ATOM     23  C   UNL     1       0.818  11.262  19.526  0.00  0.00    +0.000 C 
BRANCH  23  24
ATOM     24  C   UNL     1       1.099   9.773  19.384  0.00  0.00    +0.000 A 
ATOM     25  C   UNL     1       1.572   9.233  18.179  0.00  0.00    +0.000 A 
ATOM     26  C   UNL     1       2.112   7.940  18.132  0.00  0.00    +0.000 A 
ATOM     27  C   UNL     1       2.206   7.164  19.293  0.00  0.00    +0.000 A 
ATOM     28  C   UNL     1       1.632   7.656  20.476  0.00  0.00    +0.000 A 
ATOM     29  C   UNL     1       1.066   8.940  20.511  0.00  0.00    +0.000 A 
BRANCH  27  30
ATOM     30  C   UNL     1       3.053   5.923  19.296  0.00  0.00    +0.000 C 
ATOM     31  O   UNL     1       4.147   5.918  18.741  0.00  0.00    +0.000 OA
ATOM     32  N   UNL     1       2.536   4.809  19.937  0.00  0.00    +0.000 N 
ATOM     33  H   UNL     1       1.732   4.909  20.540  0.00  0.00    +0.000 HD
BRANCH  32  34
ATOM     34  C   UNL     1       3.284   3.558  20.024  0.00  0.00    +0.000 C 
BRANCH  34  35
ATOM     35  C   UNL     1       2.738   2.651  21.129  0.00  0.00    +0.000 C 
BRANCH  35  36
ATOM     36  O   UNL     1       2.111   3.420  22.158  0.00  0.00    +0.000 OA
ATOM     37  H   UNL     1       2.713   4.154  22.366  0.00  0.00    +0.000 HD
ENDBRANCH  35  36
ENDBRANCH  34  35
ENDBRANCH  32  34
ENDBRANCH  27  30
ENDBRANCH  23  24
ENDBRANCH   2  23
TORSDOF 9
ENDMDL
MODEL 8
REMARK VINA RESULT:      -7.1      1.642      2.186
REMARK  Name = 
REMARK  11 active torsions:
REMARK  status: ('A' for Active; 'I' for Inactive)
REMARK    1  A    between atoms: C_1  and  O_2
REMARK    2  A    between atoms: O_2  and  C_3
REMARK    3  A    between atoms: C_3  and  C_5
REMARK    4  A    between atoms: C_6  and  C_7
REMARK    5  A    between atoms: C_7  and  C_8
REMARK    6  A    between atoms: C_11  and  C_12
REMARK    7  A    between atoms: N_14  and  C_15
REMARK    8  A    between atoms: C_15  and  C_16
REMARK    9  A    between atoms: C_16  and  O_17
REMARK   10  A    between atoms: C_25  and  C_26
REMARK   11  A    between atoms: N_29  and  C_30
REMARK                            x       y       z     vdW  Elec       q    Type
REMARK                         _______ _______ _______ _____ _____    ______ ____
ROOT
ATOM      1  C   UNL     1      -1.452  12.826  20.138  0.00  0.00    +0.000 A 
ATOM      2  C   UNL     1      -0.989  12.235  19.018  0.00  0.00    +0.000 A 
ATOM      3  C   UNL     1      -2.027  11.692  18.111  0.00  0.00    +0.000 A 
ATOM      4  O   UNL     1      -1.733  11.250  17.005  0.00  0.00    +0.000 OA
ATOM      5  C   UNL     1      -3.417  11.637  18.566  0.00  0.00    +0.000 A 
ATOM      6  C   UNL     1      -4.384  10.974  17.805  0.00  0.00    +0.000 A 
ATOM      7  C   UNL     1      -5.698  10.904  18.253  0.00  0.00    +0.000 A 
ATOM      8  C   UNL     1      -6.011  11.524  19.454  0.00  0.00    +0.000 A 
ATOM      9  C   UNL     1      -7.403  11.539  20.003  0.00  0.00    +0.000 C 
ATOM     10  N   UNL     1      -5.081  12.191  20.159  0.00  0.00    +0.000 NA
ATOM     11  C   UNL     1      -3.785  12.241  19.754  0.00  0.00    +0.000 A 
ATOM     12  N   UNL     1      -2.814  12.944  20.542  0.00  0.00    +0.000 N 
ENDROOT
BRANCH  12  13
ATOM     13  C   UNL     1      -3.212  13.568  21.800  0.00  0.00    +0.000 A 
ATOM     14  C   UNL     1      -3.623  14.904  21.836  0.00  0.00    +0.000 A 
ATOM     15  C   UNL     1      -4.327  15.413  22.926  0.00  0.00    +0.000 A 
ATOM     16  C   UNL     1      -4.682  14.575  23.982  0.00  0.00    +0.000 A 
ATOM     17  C   UNL     1      -4.254  13.259  24.004  0.00  0.00    +0.000 A 
ATOM     18  C   UNL     1      -3.425  12.802  22.980  0.00  0.00    +0.000 A 
ENDBRANCH  12  13
BRANCH   1  19
ATOM     19  C   UNL     1      -0.354  13.222  21.119  0.00  0.00    +0.000 C 
ATOM     20  O   UNL     1       0.159  12.540  21.935  0.00  0.00    +0.000 OA
BRANCH  19  22
ATOM     21  C   UNL     1       1.491  14.734  20.866  0.00  0.00    +0.000 C 
ATOM     22  O   UNL     1       0.120  14.415  20.792  0.00  0.00    +0.000 OA
ENDBRANCH  19  22
ENDBRANCH   1  19
BRANCH   2  23
ATOM     23  C   UNL     1       0.426  12.043  18.511  0.00  0.00    +0.000 C 
BRANCH  23  24
ATOM     24  C   UNL     1       1.128  10.741  18.869  0.00  0.00    +0.000 A 
ATOM     25  C   UNL     1       0.789  10.026  20.027  0.00  0.00    +0.000 A 
ATOM     26  C   UNL     1       1.207   8.699  20.203  0.00  0.00    +0.000 A 
ATOM     27  C   UNL     1       1.959   8.052  19.215  0.00  0.00    +0.000 A 
ATOM     28  C   UNL     1       2.395   8.797  18.109  0.00  0.00    +0.000 A 
ATOM     29  C   UNL     1       1.998  10.136  17.951  0.00  0.00    +0.000 A 
BRANCH  27  30
ATOM     30  C   UNL     1       2.137   6.562  19.268  0.00  0.00    +0.000 C 
ATOM     31  O   UNL     1       2.252   5.914  18.232  0.00  0.00    +0.000 OA
ATOM     32  N   UNL     1       2.153   5.972  20.522  0.00  0.00    +0.000 N 
ATOM     33  H   UNL     1       2.251   6.552  21.343  0.00  0.00    +0.000 HD
BRANCH  32  34
ATOM     34  C   UNL     1       2.348   4.535  20.692  0.00  0.00    +0.000 C 
BRANCH  34  35
ATOM     35  C   UNL     1       1.040   3.763  20.499  0.00  0.00    +0.000 C 
BRANCH  35  36
ATOM     36  O   UNL     1       0.940   3.254  19.168  0.00  0.00    +0.000 OA
ATOM     37  H   UNL     1       1.847   3.100  18.856  0.00  0.00    +0.000 HD
ENDBRANCH  35  36
ENDBRANCH  34  35
ENDBRANCH  32  34
ENDBRANCH  27  30
ENDBRANCH  23  24
ENDBRANCH   2  23
TORSDOF 9
ENDMDL
MODEL 9
REMARK VINA RESULT:      -7.1      1.604      1.848
REMARK  Name = 
REMARK  11 active torsions:
REMARK  status: ('A' for Active; 'I' for Inactive)
REMARK    1  A    between atoms: C_1  and  O_2
REMARK    2  A    between atoms: O_2  and  C_3
REMARK    3  A    between atoms: C_3  and  C_5
REMARK    4  A    between atoms: C_6  and  C_7
REMARK    5  A    between atoms: C_7  and  C_8
REMARK    6  A    between atoms: C_11  and  C_12
REMARK    7  A    between atoms: N_14  and  C_15
REMARK    8  A    between atoms: C_15  and  C_16
REMARK    9  A    between atoms: C_16  and  O_17
REMARK   10  A    between atoms: C_25  and  C_26
REMARK   11  A    between atoms: N_29  and  C_30
REMARK                            x       y       z     vdW  Elec       q    Type
REMARK                         _______ _______ _______ _____ _____    ______ ____
ROOT
ATOM      1  C   UNL     1      -0.502  12.113  19.684  0.00  0.00    +0.000 A 
ATOM      2  C   UNL     1      -0.176  11.203  18.744  0.00  0.00    +0.000 A 
ATOM      3  C   UNL     1      -1.310  10.674  17.951  0.00  0.00    +0.000 A 
ATOM      4  O   UNL     1      -1.120   9.942  16.985  0.00  0.00    +0.000 OA
ATOM      5  C   UNL     1      -2.679  10.991  18.360  0.00  0.00    +0.000 A 
ATOM      6  C   UNL     1      -3.764  10.368  17.739  0.00  0.00    +0.000 A 
ATOM      7  C   UNL     1      -5.062  10.655  18.148  0.00  0.00    +0.000 A 
ATOM      8  C   UNL     1      -5.235  11.582  19.165  0.00  0.00    +0.000 A 
ATOM      9  C   UNL     1      -6.591  11.989  19.650  0.00  0.00    +0.000 C 
ATOM     10  N   UNL     1      -4.185  12.204  19.729  0.00  0.00    +0.000 NA
ATOM     11  C   UNL     1      -2.908  11.911  19.367  0.00  0.00    +0.000 A 
ATOM     12  N   UNL     1      -1.810  12.578  20.005  0.00  0.00    +0.000 N 
ENDROOT
BRANCH  12  13
ATOM     13  C   UNL     1      -2.065  13.538  21.074  0.00  0.00    +0.000 A 
ATOM     14  C   UNL     1      -2.162  13.118  22.404  0.00  0.00    +0.000 A 
ATOM     15  C   UNL     1      -2.055  14.025  23.457  0.00  0.00    +0.000 A 
ATOM     16  C   UNL     1      -1.791  15.369  23.199  0.00  0.00    +0.000 A 
ATOM     17  C   UNL     1      -1.733  15.831  21.895  0.00  0.00    +0.000 A 
ATOM     18  C   UNL     1      -1.990  14.942  20.852  0.00  0.00    +0.000 A 
ENDBRANCH  12  13
BRANCH   1  19
ATOM     19  C   UNL     1       0.664  12.507  20.584  0.00  0.00    +0.000 C 
ATOM     20  O   UNL     1       1.083  11.913  21.515  0.00  0.00    +0.000 OA
BRANCH  19  22
ATOM     21  C   UNL     1       2.713  13.625  20.035  0.00  0.00    +0.000 C 
ATOM     22  O   UNL     1       1.306  13.534  20.049  0.00  0.00    +0.000 OA
ENDBRANCH  19  22
ENDBRANCH   1  19
BRANCH   2  23
ATOM     23  C   UNL     1       1.169  10.633  18.341  0.00  0.00    +0.000 C 
BRANCH  23  24
ATOM     24  C   UNL     1       1.608   9.335  19.003  0.00  0.00    +0.000 A 
ATOM     25  C   UNL     1       1.080   8.935  20.240  0.00  0.00    +0.000 A 
ATOM     26  C   UNL     1       1.245   7.621  20.703  0.00  0.00    +0.000 A 
ATOM     27  C   UNL     1       1.927   6.674  19.930  0.00  0.00    +0.000 A 
ATOM     28  C   UNL     1       2.552   7.099  18.747  0.00  0.00    +0.000 A 
ATOM     29  C   UNL     1       2.409   8.423  18.302  0.00  0.00    +0.000 A 
BRANCH  27  30
ATOM     30  C   UNL     1       1.835   5.217  20.282  0.00  0.00    +0.000 C 
ATOM     31  O   UNL     1       0.756   4.721  20.590  0.00  0.00    +0.000 OA
ATOM     32  N   UNL     1       3.011   4.485  20.250  0.00  0.00    +0.000 N 
ATOM     33  H   UNL     1       3.830   4.877  19.809  0.00  0.00    +0.000 HD
BRANCH  32  34
ATOM     34  C   UNL     1       3.033   3.055  20.547  0.00  0.00    +0.000 C 
BRANCH  34  35
ATOM     35  C   UNL     1       2.873   2.214  19.279  0.00  0.00    +0.000 C 
BRANCH  35  36
ATOM     36  O   UNL     1       4.139   1.734  18.821  0.00  0.00    +0.000 OA
ATOM     37  H   UNL     1       4.055   0.771  18.722  0.00  0.00    +0.000 HD
ENDBRANCH  35  36
ENDBRANCH  34  35
ENDBRANCH  32  34
ENDBRANCH  27  30
ENDBRANCH  23  24
ENDBRANCH   2  23
TORSDOF 9
ENDMDL
