MODEL 1
REMARK VINA RESULT:      -6.4      0.000      0.000
REMARK  Name = 
REMARK  7 active torsions:
REMARK  status: ('A' for Active; 'I' for Inactive)
REMARK    1  A    between atoms: C_1  and  C_2
REMARK    2  A    between atoms: N_8  and  C_9
REMARK    3  A    between atoms: C_10  and  C_11
REMARK    4  A    between atoms: C_11  and  C_12
REMARK    5  A    between atoms: C_11  and  C_13
REMARK    6  A    between atoms: C_14  and  C_15
REMARK    7  A    between atoms: C_17  and  N_18
REMARK                            x       y       z     vdW  Elec       q    Type
REMARK                         _______ _______ _______ _____ _____    ______ ____
ROOT
ATOM      1  C   UNL     1       2.191   1.947  19.673  0.00  0.00    +0.000 C 
ATOM      2  C   UNL     1       2.998   3.139  19.240  0.00  0.00    +0.000 A 
ATOM      3  C   UNL     1       4.245   3.348  19.703  0.00  0.00    +0.000 A 
ATOM      4  C   UNL     1       5.034   4.445  19.205  0.00  0.00    +0.000 A 
ATOM      5  C   UNL     1       4.521   5.319  18.328  0.00  0.00    +0.000 A 
ATOM      6  C   UNL     1       3.061   5.272  18.058  0.00  0.00    +0.000 A 
ATOM      7  O   UNL     1       2.499   6.243  17.559  0.00  0.00    +0.000 OA
ATOM      8  N   UNL     1       2.429   4.068  18.363  0.00  0.00    +0.000 N 
ATOM      9  C   UNL     1       1.104   3.856  17.795  0.00  0.00    +0.000 C 
ATOM     10  C   UNL     1       5.374   6.327  17.624  0.00  0.00    +0.000 C 
ATOM     11  C   UNL     1       6.735   6.446  18.325  0.00  0.00    +0.000 C 
ATOM     12  C   UNL     1       7.175   5.539  19.218  0.00  0.00    +0.000 C 
ATOM     13  O   UNL     1       6.358   4.471  19.607  0.00  0.00    +0.000 OA
ENDROOT
BRANCH  10  14
ATOM     14  C   UNL     1       5.577   6.007  16.086  0.00  0.00    +0.000 C 
ATOM     15  C   UNL     1       5.292   4.543  15.716  0.00  0.00    +0.000 C 
ATOM     16  C   UNL     1       4.796   6.917  15.128  0.00  0.00    +0.000 C 
ENDBRANCH  10  14
BRANCH  12  17
ATOM     17  N   UNL     1       8.420   5.527  19.797  0.00  0.00    +0.000 N 
ATOM     18  H   UNL     1       9.125   4.966  19.326  0.00  0.00    +0.000 HD
ATOM     19  H   UNL     1       8.742   6.456  20.053  0.00  0.00    +0.000 HD
ENDBRANCH  12  17
BRANCH  11  20
ATOM     20  C   UNL     1       7.587   7.590  17.801  0.00  0.00    +0.000 C 
ATOM     21  N   UNL     1       8.294   8.540  17.365  0.00  0.00    +0.000 NA
ENDBRANCH  11  20
TORSDOF 3
ENDMDL
MODEL 2
REMARK VINA RESULT:      -6.0      2.835      3.964
REMARK  Name = 
REMARK  7 active torsions:
REMARK  status: ('A' for Active; 'I' for Inactive)
REMARK    1  A    between atoms: C_1  and  C_2
REMARK    2  A    between atoms: N_8  and  C_9
REMARK    3  A    between atoms: C_10  and  C_11
REMARK    4  A    between atoms: C_11  and  C_12
REMARK    5  A    between atoms: C_11  and  C_13
REMARK    6  A    between atoms: C_14  and  C_15
REMARK    7  A    between atoms: C_17  and  N_18
REMARK                            x       y       z     vdW  Elec       q    Type
REMARK                         _______ _______ _______ _____ _____    ______ ____
ROOT
ATOM      1  C   UNL     1       2.261   1.811  21.517  0.00  0.00    +0.000 C 
ATOM      2  C   UNL     1       2.260   3.037  20.648  0.00  0.00    +0.000 A 
ATOM      3  C   UNL     1       1.857   4.231  21.119  0.00  0.00    +0.000 A 
ATOM      4  C   UNL     1       1.951   5.411  20.297  0.00  0.00    +0.000 A 
ATOM      5  C   UNL     1       2.373   5.331  19.027  0.00  0.00    +0.000 A 
ATOM      6  C   UNL     1       2.519   3.986  18.415  0.00  0.00    +0.000 A 
ATOM      7  O   UNL     1       2.553   3.869  17.193  0.00  0.00    +0.000 OA
ATOM      8  N   UNL     1       2.657   2.926  19.311  0.00  0.00    +0.000 N 
ATOM      9  C   UNL     1       3.151   1.666  18.772  0.00  0.00    +0.000 C 
ATOM     10  C   UNL     1       2.697   6.551  18.223  0.00  0.00    +0.000 C 
ATOM     11  C   UNL     1       2.119   7.800  18.906  0.00  0.00    +0.000 C 
ATOM     12  C   UNL     1       1.689   7.798  20.182  0.00  0.00    +0.000 C 
ATOM     13  O   UNL     1       1.681   6.613  20.927  0.00  0.00    +0.000 OA
ENDROOT
BRANCH  10  14
ATOM     14  C   UNL     1       4.249   6.737  17.968  0.00  0.00    +0.000 C 
ATOM     15  C   UNL     1       5.131   5.809  18.818  0.00  0.00    +0.000 C 
ATOM     16  C   UNL     1       4.681   6.616  16.500  0.00  0.00    +0.000 C 
ENDBRANCH  10  14
BRANCH  12  17
ATOM     17  N   UNL     1       1.265   8.898  20.884  0.00  0.00    +0.000 N 
ATOM     18  H   UNL     1       1.838   9.167  21.679  0.00  0.00    +0.000 HD
ATOM     19  H   UNL     1       1.015   9.677  20.280  0.00  0.00    +0.000 HD
ENDBRANCH  12  17
BRANCH  11  20
ATOM     20  C   UNL     1       2.225   9.056  18.057  0.00  0.00    +0.000 C 
ATOM     21  N   UNL     1       2.312  10.098  17.353  0.00  0.00    +0.000 NA
ENDBRANCH  11  20
TORSDOF 3
ENDMDL
MODEL 3
REMARK VINA RESULT:      -6.0      2.862      5.481
REMARK  Name = 
REMARK  7 active torsions:
REMARK  status: ('A' for Active; 'I' for Inactive)
REMARK    1  A    between atoms: C_1  and  C_2
REMARK    2  A    between atoms: N_8  and  C_9
REMARK    3  A    between atoms: C_10  and  C_11
REMARK    4  A    between atoms: C_11  and  C_12
REMARK    5  A    between atoms: C_11  and  C_13
REMARK    6  A    between atoms: C_14  and  C_15
REMARK    7  A    between atoms: C_17  and  N_18
REMARK                            x       y       z     vdW  Elec       q    Type
REMARK                         _______ _______ _______ _____ _____    ______ ____
ROOT
ATOM      1  C   UNL     1       6.317   5.444  15.058  0.00  0.00    +0.000 C 
ATOM      2  C   UNL     1       5.501   5.859  16.250  0.00  0.00    +0.000 A 
ATOM      3  C   UNL     1       4.649   6.899  16.189  0.00  0.00    +0.000 A 
ATOM      4  C   UNL     1       3.808   7.222  17.314  0.00  0.00    +0.000 A 
ATOM      5  C   UNL     1       3.910   6.542  18.465  0.00  0.00    +0.000 A 
ATOM      6  C   UNL     1       5.054   5.610  18.635  0.00  0.00    +0.000 A 
ATOM      7  O   UNL     1       5.385   5.247  19.761  0.00  0.00    +0.000 OA
ATOM      8  N   UNL     1       5.655   5.170  17.458  0.00  0.00    +0.000 N 
ATOM      9  C   UNL     1       6.526   4.006  17.556  0.00  0.00    +0.000 C 
ATOM     10  C   UNL     1       2.909   6.698  19.566  0.00  0.00    +0.000 C 
ATOM     11  C   UNL     1       2.063   7.958  19.333  0.00  0.00    +0.000 C 
ATOM     12  C   UNL     1       2.031   8.606  18.154  0.00  0.00    +0.000 C 
ATOM     13  O   UNL     1       2.844   8.190  17.094  0.00  0.00    +0.000 OA
ENDROOT
BRANCH  10  14
ATOM     14  C   UNL     1       1.970   5.433  19.740  0.00  0.00    +0.000 C 
ATOM     15  C   UNL     1       1.883   4.551  18.485  0.00  0.00    +0.000 C 
ATOM     16  C   UNL     1       2.303   4.543  20.945  0.00  0.00    +0.000 C 
ENDBRANCH  10  14
BRANCH  12  17
ATOM     17  N   UNL     1       1.218   9.668  17.847  0.00  0.00    +0.000 N 
ATOM     18  H   UNL     1       0.923  10.244  18.631  0.00  0.00    +0.000 HD
ATOM     19  H   UNL     1       1.556  10.204  17.052  0.00  0.00    +0.000 HD
ENDBRANCH  12  17
BRANCH  11  20
ATOM     20  C   UNL     1       1.160   8.304  20.507  0.00  0.00    +0.000 C 
ATOM     21  N   UNL     1       0.411   8.592  21.479  0.00  0.00    +0.000 NA
ENDBRANCH  11  20
TORSDOF 3
ENDMDL
MODEL 4
REMARK VINA RESULT:      -5.8      3.350      5.181
REMARK  Name = 
REMARK  7 active torsions:
REMARK  status: ('A' for Active; 'I' for Inactive)
REMARK    1  A    between atoms: C_1  and  C_2
REMARK    2  A    between atoms: N_8  and  C_9
REMARK    3  A    between atoms: C_10  and  C_11
REMARK    4  A    between atoms: C_11  and  C_12
REMARK    5  A    between atoms: C_11  and  C_13
REMARK    6  A    between atoms: C_14  and  C_15
REMARK    7  A    between atoms: C_17  and  N_18
REMARK                            x       y       z     vdW  Elec       q    Type
REMARK                         _______ _______ _______ _____ _____    ______ ____
ROOT
ATOM      1  C   UNL     1       0.353   9.872  20.205  0.00  0.00    +0.000 C 
ATOM      2  C   UNL     1       1.168   8.636  19.949  0.00  0.00    +0.000 A 
ATOM      3  C   UNL     1       1.166   7.603  20.812  0.00  0.00    +0.000 A 
ATOM      4  C   UNL     1       1.880   6.391  20.503  0.00  0.00    +0.000 A 
ATOM      5  C   UNL     1       2.618   6.293  19.388  0.00  0.00    +0.000 A 
ATOM      6  C   UNL     1       2.871   7.527  18.600  0.00  0.00    +0.000 A 
ATOM      7  O   UNL     1       3.802   7.561  17.799  0.00  0.00    +0.000 OA
ATOM      8  N   UNL     1       1.971   8.571  18.805  0.00  0.00    +0.000 N 
ATOM      9  C   UNL     1       1.964   9.641  17.817  0.00  0.00    +0.000 C 
ATOM     10  C   UNL     1       3.183   4.987  18.925  0.00  0.00    +0.000 C 
ATOM     11  C   UNL     1       3.126   3.957  20.063  0.00  0.00    +0.000 C 
ATOM     12  C   UNL     1       2.380   4.135  21.169  0.00  0.00    +0.000 C 
ATOM     13  O   UNL     1       1.673   5.327  21.364  0.00  0.00    +0.000 OA
ENDROOT
BRANCH  10  14
ATOM     14  C   UNL     1       2.464   4.418  17.634  0.00  0.00    +0.000 C 
ATOM     15  C   UNL     1       3.404   3.656  16.688  0.00  0.00    +0.000 C 
ATOM     16  C   UNL     1       1.233   3.545  17.912  0.00  0.00    +0.000 C 
ENDBRANCH  10  14
BRANCH  12  17
ATOM     17  N   UNL     1       2.199   3.212  22.168  0.00  0.00    +0.000 N 
ATOM     18  H   UNL     1       2.911   2.490  22.242  0.00  0.00    +0.000 HD
ATOM     19  H   UNL     1       1.958   3.639  23.059  0.00  0.00    +0.000 HD
ENDBRANCH  12  17
BRANCH  11  20
ATOM     20  C   UNL     1       3.863   2.665  19.745  0.00  0.00    +0.000 C 
ATOM     21  N   UNL     1       4.475   1.595  19.482  0.00  0.00    +0.000 NA
ENDBRANCH  11  20
TORSDOF 3
ENDMDL
MODEL 5
REMARK VINA RESULT:      -5.6      1.524      1.735
REMARK  Name = 
REMARK  7 active torsions:
REMARK  status: ('A' for Active; 'I' for Inactive)
REMARK    1  A    between atoms: C_1  and  C_2
REMARK    2  A    between atoms: N_8  and  C_9
REMARK    3  A    between atoms: C_10  and  C_11
REMARK    4  A    between atoms: C_11  and  C_12
REMARK    5  A    between atoms: C_11  and  C_13
REMARK    6  A    between atoms: C_14  and  C_15
REMARK    7  A    between atoms: C_17  and  N_18
REMARK                            x       y       z     vdW  Elec       q    Type
REMARK                         _______ _______ _______ _____ _____    ______ ____
ROOT
ATOM      1  C   UNL     1       1.969   1.762  20.479  0.00  0.00    +0.000 C 
ATOM      2  C   UNL     1       2.796   2.941  20.051  0.00  0.00    +0.000 A 
ATOM      3  C   UNL     1       4.077   2.796  19.661  0.00  0.00    +0.000 A 
ATOM      4  C   UNL     1       4.822   3.924  19.166  0.00  0.00    +0.000 A 
ATOM      5  C   UNL     1       4.283   5.152  19.152  0.00  0.00    +0.000 A 
ATOM      6  C   UNL     1       2.997   5.365  19.864  0.00  0.00    +0.000 A 
ATOM      7  O   UNL     1       2.652   6.501  20.177  0.00  0.00    +0.000 OA
ATOM      8  N   UNL     1       2.233   4.221  20.088  0.00  0.00    +0.000 N 
ATOM      9  C   UNL     1       0.837   4.420  20.452  0.00  0.00    +0.000 C 
ATOM     10  C   UNL     1       4.937   6.295  18.442  0.00  0.00    +0.000 C 
ATOM     11  C   UNL     1       6.398   5.947  18.121  0.00  0.00    +0.000 C 
ATOM     12  C   UNL     1       6.878   4.691  18.183  0.00  0.00    +0.000 C 
ATOM     13  O   UNL     1       6.065   3.642  18.626  0.00  0.00    +0.000 OA
ENDROOT
BRANCH  10  14
ATOM     14  C   UNL     1       4.175   6.730  17.124  0.00  0.00    +0.000 C 
ATOM     15  C   UNL     1       3.558   8.135  17.202  0.00  0.00    +0.000 C 
ATOM     16  C   UNL     1       5.003   6.627  15.836  0.00  0.00    +0.000 C 
ENDBRANCH  10  14
BRANCH  12  17
ATOM     17  N   UNL     1       8.137   4.296  17.806  0.00  0.00    +0.000 N 
ATOM     18  H   UNL     1       8.401   3.347  18.057  0.00  0.00    +0.000 HD
ATOM     19  H   UNL     1       8.351   4.537  16.841  0.00  0.00    +0.000 HD
ENDBRANCH  12  17
BRANCH  11  20
ATOM     20  C   UNL     1       7.195   7.125  17.583  0.00  0.00    +0.000 C 
ATOM     21  N   UNL     1       7.856   8.102  17.138  0.00  0.00    +0.000 NA
ENDBRANCH  11  20
TORSDOF 3
ENDMDL
MODEL 6
REMARK VINA RESULT:      -5.5      3.185      5.001
REMARK  Name = 
REMARK  7 active torsions:
REMARK  status: ('A' for Active; 'I' for Inactive)
REMARK    1  A    between atoms: C_1  and  C_2
REMARK    2  A    between atoms: N_8  and  C_9
REMARK    3  A    between atoms: C_10  and  C_11
REMARK    4  A    between atoms: C_11  and  C_12
REMARK    5  A    between atoms: C_11  and  C_13
REMARK    6  A    between atoms: C_14  and  C_15
REMARK    7  A    between atoms: C_17  and  N_18
REMARK                            x       y       z     vdW  Elec       q    Type
REMARK                         _______ _______ _______ _____ _____    ______ ____
ROOT
ATOM      1  C   UNL     1       0.532   9.337  20.045  0.00  0.00    +0.000 C 
ATOM      2  C   UNL     1       1.381   8.110  19.870  0.00  0.00    +0.000 A 
ATOM      3  C   UNL     1       1.323   7.085  20.741  0.00  0.00    +0.000 A 
ATOM      4  C   UNL     1       2.076   5.880  20.505  0.00  0.00    +0.000 A 
ATOM      5  C   UNL     1       2.904   5.783  19.455  0.00  0.00    +0.000 A 
ATOM      6  C   UNL     1       3.204   7.012  18.677  0.00  0.00    +0.000 A 
ATOM      7  O   UNL     1       4.197   7.052  17.955  0.00  0.00    +0.000 OA
ATOM      8  N   UNL     1       2.276   8.045  18.797  0.00  0.00    +0.000 N 
ATOM      9  C   UNL     1       2.336   9.106  17.800  0.00  0.00    +0.000 C 
ATOM     10  C   UNL     1       3.522   4.480  19.054  0.00  0.00    +0.000 C 
ATOM     11  C   UNL     1       3.385   3.460  20.194  0.00  0.00    +0.000 C 
ATOM     12  C   UNL     1       2.549   3.639  21.234  0.00  0.00    +0.000 C 
ATOM     13  O   UNL     1       1.813   4.822  21.357  0.00  0.00    +0.000 OA
ENDROOT
BRANCH  10  14
ATOM     14  C   UNL     1       2.919   3.889  17.714  0.00  0.00    +0.000 C 
ATOM     15  C   UNL     1       1.498   4.385  17.404  0.00  0.00    +0.000 C 
ATOM     16  C   UNL     1       3.793   4.090  16.468  0.00  0.00    +0.000 C 
ENDBRANCH  10  14
BRANCH  12  17
ATOM     17  N   UNL     1       2.299   2.722  22.224  0.00  0.00    +0.000 N 
ATOM     18  H   UNL     1       2.796   2.865  23.099  0.00  0.00    +0.000 HD
ATOM     19  H   UNL     1       1.306   2.536  22.345  0.00  0.00    +0.000 HD
ENDBRANCH  12  17
BRANCH  11  20
ATOM     20  C   UNL     1       4.163   2.177  19.952  0.00  0.00    +0.000 C 
ATOM     21  N   UNL     1       4.808   1.112  19.751  0.00  0.00    +0.000 NA
ENDBRANCH  11  20
TORSDOF 3
ENDMDL
MODEL 7
REMARK VINA RESULT:      -5.3      2.530      5.431
REMARK  Name = 
REMARK  7 active torsions:
REMARK  status: ('A' for Active; 'I' for Inactive)
REMARK    1  A    between atoms: C_1  and  C_2
REMARK    2  A    between atoms: N_8  and  C_9
REMARK    3  A    between atoms: C_10  and  C_11
REMARK    4  A    between atoms: C_11  and  C_12
REMARK    5  A    between atoms: C_11  and  C_13
REMARK    6  A    between atoms: C_14  and  C_15
REMARK    7  A    between atoms: C_17  and  N_18
REMARK                            x       y       z     vdW  Elec       q    Type
REMARK                         _______ _______ _______ _____ _____    ______ ____
ROOT
ATOM      1  C   UNL     1       6.953   5.416  14.866  0.00  0.00    +0.000 C 
ATOM      2  C   UNL     1       6.118   5.745  16.071  0.00  0.00    +0.000 A 
ATOM      3  C   UNL     1       5.119   6.644  16.009  0.00  0.00    +0.000 A 
ATOM      4  C   UNL     1       4.272   6.876  17.151  0.00  0.00    +0.000 A 
ATOM      5  C   UNL     1       4.506   6.258  18.317  0.00  0.00    +0.000 A 
ATOM      6  C   UNL     1       5.781   5.513  18.476  0.00  0.00    +0.000 A 
ATOM      7  O   UNL     1       6.195   5.241  19.600  0.00  0.00    +0.000 OA
ATOM      8  N   UNL     1       6.408   5.127  17.293  0.00  0.00    +0.000 N 
ATOM      9  C   UNL     1       7.445   4.109  17.396  0.00  0.00    +0.000 C 
ATOM     10  C   UNL     1       3.525   6.300  19.446  0.00  0.00    +0.000 C 
ATOM     11  C   UNL     1       2.494   7.413  19.205  0.00  0.00    +0.000 C 
ATOM     12  C   UNL     1       2.332   8.009  18.009  0.00  0.00    +0.000 C 
ATOM     13  O   UNL     1       3.168   7.683  16.935  0.00  0.00    +0.000 OA
ENDROOT
BRANCH  10  14
ATOM     14  C   UNL     1       2.791   4.917  19.687  0.00  0.00    +0.000 C 
ATOM     15  C   UNL     1       2.230   4.755  21.108  0.00  0.00    +0.000 C 
ATOM     16  C   UNL     1       1.681   4.591  18.679  0.00  0.00    +0.000 C 
ENDBRANCH  10  14
BRANCH  12  17
ATOM     17  N   UNL     1       1.361   8.928  17.698  0.00  0.00    +0.000 N 
ATOM     18  H   UNL     1       0.422   8.709  18.019  0.00  0.00    +0.000 HD
ATOM     19  H   UNL     1       1.647   9.883  17.897  0.00  0.00    +0.000 HD
ENDBRANCH  12  17
BRANCH  11  20
ATOM     20  C   UNL     1       1.582   7.660  20.397  0.00  0.00    +0.000 C 
ATOM     21  N   UNL     1       0.827   7.865  21.385  0.00  0.00    +0.000 NA
ENDBRANCH  11  20
TORSDOF 3
ENDMDL
MODEL 8
REMARK VINA RESULT:      -5.3      2.137      5.524
REMARK  Name = 
REMARK  7 active torsions:
REMARK  status: ('A' for Active; 'I' for Inactive)
REMARK    1  A    between atoms: C_1  and  C_2
REMARK    2  A    between atoms: N_8  and  C_9
REMARK    3  A    between atoms: C_10  and  C_11
REMARK    4  A    between atoms: C_11  and  C_12
REMARK    5  A    between atoms: C_11  and  C_13
REMARK    6  A    between atoms: C_14  and  C_15
REMARK    7  A    between atoms: C_17  and  N_18
REMARK                            x       y       z     vdW  Elec       q    Type
REMARK                         _______ _______ _______ _____ _____    ______ ____
ROOT
ATOM      1  C   UNL     1       5.570   7.289  15.493  0.00  0.00    +0.000 C 
ATOM      2  C   UNL     1       5.101   6.415  16.621  0.00  0.00    +0.000 A 
ATOM      3  C   UNL     1       4.129   6.814  17.462  0.00  0.00    +0.000 A 
ATOM      4  C   UNL     1       3.631   5.923  18.479  0.00  0.00    +0.000 A 
ATOM      5  C   UNL     1       4.174   4.711  18.656  0.00  0.00    +0.000 A 
ATOM      6  C   UNL     1       5.439   4.394  17.945  0.00  0.00    +0.000 A 
ATOM      7  O   UNL     1       6.145   3.467  18.335  0.00  0.00    +0.000 OA
ATOM      8  N   UNL     1       5.713   5.172  16.822  0.00  0.00    +0.000 N 
ATOM      9  C   UNL     1       6.733   4.677  15.907  0.00  0.00    +0.000 C 
ATOM     10  C   UNL     1       3.542   3.682  19.541  0.00  0.00    +0.000 C 
ATOM     11  C   UNL     1       2.491   4.342  20.446  0.00  0.00    +0.000 C 
ATOM     12  C   UNL     1       2.010   5.579  20.220  0.00  0.00    +0.000 C 
ATOM     13  O   UNL     1       2.515   6.357  19.173  0.00  0.00    +0.000 OA
ENDROOT
BRANCH  10  14
ATOM     14  C   UNL     1       2.896   2.480  18.738  0.00  0.00    +0.000 C 
ATOM     15  C   UNL     1       2.421   2.863  17.327  0.00  0.00    +0.000 C 
ATOM     16  C   UNL     1       3.772   1.224  18.637  0.00  0.00    +0.000 C 
ENDBRANCH  10  14
BRANCH  12  17
ATOM     17  N   UNL     1       0.996   6.182  20.922  0.00  0.00    +0.000 N 
ATOM     18  H   UNL     1       0.321   5.557  21.355  0.00  0.00    +0.000 HD
ATOM     19  H   UNL     1       1.331   6.914  21.543  0.00  0.00    +0.000 HD
ENDBRANCH  12  17
BRANCH  11  20
ATOM     20  C   UNL     1       1.946   3.410  21.516  0.00  0.00    +0.000 C 
ATOM     21  N   UNL     1       1.493   2.637  22.404  0.00  0.00    +0.000 NA
ENDBRANCH  11  20
TORSDOF 3
ENDMDL
MODEL 9
REMARK VINA RESULT:      -5.3      1.774      2.077
REMARK  Name = 
REMARK  7 active torsions:
REMARK  status: ('A' for Active; 'I' for Inactive)
REMARK    1  A    between atoms: C_1  and  C_2
REMARK    2  A    between atoms: N_8  and  C_9
REMARK    3  A    between atoms: C_10  and  C_11
REMARK    4  A    between atoms: C_11  and  C_12
REMARK    5  A    between atoms: C_11  and  C_13
REMARK    6  A    between atoms: C_14  and  C_15
REMARK    7  A    between atoms: C_17  and  N_18
REMARK                            x       y       z     vdW  Elec       q    Type
REMARK                         _______ _______ _______ _____ _____    ______ ____
ROOT
ATOM      1  C   UNL     1       1.582   1.602  18.583  0.00  0.00    +0.000 C 
ATOM      2  C   UNL     1       2.547   2.754  18.587  0.00  0.00    +0.000 A 
ATOM      3  C   UNL     1       3.718   2.692  17.926  0.00  0.00    +0.000 A 
ATOM      4  C   UNL     1       4.585   3.840  17.867  0.00  0.00    +0.000 A 
ATOM      5  C   UNL     1       4.281   4.967  18.527  0.00  0.00    +0.000 A 
ATOM      6  C   UNL     1       3.159   4.932  19.500  0.00  0.00    +0.000 A 
ATOM      7  O   UNL     1       3.071   5.802  20.363  0.00  0.00    +0.000 OA
ATOM      8  N   UNL     1       2.236   3.904  19.322  0.00  0.00    +0.000 N 
ATOM      9  C   UNL     1       0.959   4.037  20.010  0.00  0.00    +0.000 C 
ATOM     10  C   UNL     1       5.034   6.241  18.307  0.00  0.00    +0.000 C 
ATOM     11  C   UNL     1       6.353   5.952  17.574  0.00  0.00    +0.000 C 
ATOM     12  C   UNL     1       6.600   4.783  16.954  0.00  0.00    +0.000 C 
ATOM     13  O   UNL     1       5.674   3.735  17.019  0.00  0.00    +0.000 OA
ENDROOT
BRANCH  10  14
ATOM     14  C   UNL     1       4.199   7.332  17.520  0.00  0.00    +0.000 C 
ATOM     15  C   UNL     1       4.329   7.228  15.993  0.00  0.00    +0.000 C 
ATOM     16  C   UNL     1       2.709   7.392  17.884  0.00  0.00    +0.000 C 
ENDBRANCH  10  14
BRANCH  12  17
ATOM     17  N   UNL     1       7.707   4.500  16.192  0.00  0.00    +0.000 N 
ATOM     18  H   UNL     1       8.268   5.299  15.909  0.00  0.00    +0.000 HD
ATOM     19  H   UNL     1       8.254   3.730  16.567  0.00  0.00    +0.000 HD
ENDBRANCH  12  17
BRANCH  11  20
ATOM     20  C   UNL     1       7.274   7.159  17.491  0.00  0.00    +0.000 C 
ATOM     21  N   UNL     1       8.038   8.159  17.421  0.00  0.00    +0.000 NA
ENDBRANCH  11  20
TORSDOF 3
ENDMDL
