MODEL 1
REMARK VINA RESULT:      -7.4      0.000      0.000
REMARK  Name = 
REMARK  13 active torsions:
REMARK  status: ('A' for Active; 'I' for Inactive)
REMARK    1  A    between atoms: C_3  and  O_4
REMARK    2  A    between atoms: C_7  and  C_8
REMARK    3  A    between atoms: C_13  and  C_14
REMARK    4  A    between atoms: C_18  and  C_19
REMARK    5  A    between atoms: C_19  and  C_20
REMARK    6  A    between atoms: C_19  and  C_21
REMARK    7  A    between atoms: C_21  and  C_22
REMARK    8  A    between atoms: C_22  and  C_23
REMARK    9  A    between atoms: C_23  and  C_26
REMARK   10  A    between atoms: C_26  and  C_27
REMARK   11  A    between atoms: C_26  and  C_28
REMARK   12  A    between atoms: C_26  and  O_29
REMARK   13  A    between atoms: C_31  and  O_32
REMARK                            x       y       z     vdW  Elec       q    Type
REMARK                         _______ _______ _______ _____ _____    ______ ____
ROOT
ATOM      1  C   UNL     1       3.597   2.493  17.624  0.00  0.00    +0.000 C 
ATOM      2  C   UNL     1       2.546   2.891  18.375  0.00  0.00    +0.000 C 
ATOM      3  C   UNL     1       1.895   1.943  19.378  0.00  0.00    +0.000 C 
ATOM      4  C   UNL     1       1.639   2.566  20.769  0.00  0.00    +0.000 C 
ATOM      5  C   UNL     1       1.132   4.025  20.742  0.00  0.00    +0.000 C 
ATOM      6  C   UNL     1       1.973   4.912  19.778  0.00  0.00    +0.000 C 
ATOM      7  C   UNL     1       3.410   4.977  20.317  0.00  0.00    +0.000 C 
ATOM      8  C   UNL     1       1.848   4.229  18.388  0.00  0.00    +0.000 C 
ATOM      9  C   UNL     1       2.143   5.329  17.385  0.00  0.00    +0.000 C 
ATOM     10  C   UNL     1       1.458   6.553  17.974  0.00  0.00    +0.000 C 
ATOM     11  C   UNL     1       1.351   6.325  19.501  0.00  0.00    +0.000 C 
ENDROOT
BRANCH   1  17
ATOM     12  C   UNL     1       8.089   7.183  18.016  0.00  0.00    +0.000 C 
ATOM     13  C   UNL     1       7.032   6.388  17.744  0.00  0.00    +0.000 C 
ATOM     14  C   UNL     1       6.303   5.561  18.789  0.00  0.00    +0.000 C 
ATOM     15  C   UNL     1       6.089   4.103  18.341  0.00  0.00    +0.000 C 
ATOM     16  C   UNL     1       5.454   4.013  16.972  0.00  0.00    +0.000 C 
ATOM     17  C   UNL     1       4.356   3.288  16.683  0.00  0.00    +0.000 C 
ATOM     18  C   UNL     1       6.207   4.807  15.911  0.00  0.00    +0.000 C 
ATOM     19  C   UNL     1       6.480   6.266  16.339  0.00  0.00    +0.000 C 
BRANCH  14  20
ATOM     20  O   UNL     1       7.000   5.563  20.036  0.00  0.00    +0.000 OA
ATOM     21  H   UNL     1       6.333   5.595  20.743  0.00  0.00    +0.000 HD
ENDBRANCH  14  20
BRANCH  19  22
ATOM     22  O   UNL     1       5.286   7.043  16.249  0.00  0.00    +0.000 OA
ATOM     23  H   UNL     1       4.722   6.647  15.564  0.00  0.00    +0.000 HD
ENDBRANCH  19  22
ENDBRANCH   1  17
BRANCH  11  24
ATOM     24  C   UNL     1       1.771   7.594  20.319  0.00  0.00    +0.000 C 
ATOM     25  C   UNL     1       1.720   8.939  19.568  0.00  0.00    +0.000 C 
BRANCH  24  26
ATOM     26  C   UNL     1       0.874   7.776  21.579  0.00  0.00    +0.000 C 
BRANCH  26  27
ATOM     27  C   UNL     1      -0.236   8.806  21.390  0.00  0.00    +0.000 C 
BRANCH  27  28
ATOM     28  C   UNL     1      -0.199   9.904  22.445  0.00  0.00    +0.000 C 
ATOM     29  F   UNL     1      -1.170   9.670  23.368  0.00  0.00    +0.000 F 
ATOM     30  F   UNL     1       0.983   9.834  23.125  0.00  0.00    +0.000 F 
BRANCH  28  31
ATOM     31  C   UNL     1      -0.347  11.340  21.880  0.00  0.00    +0.000 C 
ATOM     32  C   UNL     1      -1.008  11.340  20.496  0.00  0.00    +0.000 C 
ATOM     33  C   UNL     1      -1.133  12.238  22.836  0.00  0.00    +0.000 C 
BRANCH  31  34
ATOM     34  O   UNL     1       0.951  11.942  21.710  0.00  0.00    +0.000 OA
ATOM     35  H   UNL     1       1.306  12.111  22.605  0.00  0.00    +0.000 HD
ENDBRANCH  31  34
ENDBRANCH  28  31
ENDBRANCH  27  28
ENDBRANCH  26  27
ENDBRANCH  24  26
ENDBRANCH  11  24
TORSDOF 9
ENDMDL
MODEL 2
REMARK VINA RESULT:      -7.1      3.572      6.127
REMARK  Name = 
REMARK  13 active torsions:
REMARK  status: ('A' for Active; 'I' for Inactive)
REMARK    1  A    between atoms: C_3  and  O_4
REMARK    2  A    between atoms: C_7  and  C_8
REMARK    3  A    between atoms: C_13  and  C_14
REMARK    4  A    between atoms: C_18  and  C_19
REMARK    5  A    between atoms: C_19  and  C_20
REMARK    6  A    between atoms: C_19  and  C_21
REMARK    7  A    between atoms: C_21  and  C_22
REMARK    8  A    between atoms: C_22  and  C_23
REMARK    9  A    between atoms: C_23  and  C_26
REMARK   10  A    between atoms: C_26  and  C_27
REMARK   11  A    between atoms: C_26  and  C_28
REMARK   12  A    between atoms: C_26  and  O_29
REMARK   13  A    between atoms: C_31  and  O_32
REMARK                            x       y       z     vdW  Elec       q    Type
REMARK                         _______ _______ _______ _____ _____    ______ ____
ROOT
ATOM      1  C   UNL     1       1.415   7.998  21.018  0.00  0.00    +0.000 C 
ATOM      2  C   UNL     1       0.342   8.791  21.226  0.00  0.00    +0.000 C 
ATOM      3  C   UNL     1      -0.284   8.916  22.612  0.00  0.00    +0.000 C 
ATOM      4  C   UNL     1      -0.580  10.370  23.047  0.00  0.00    +0.000 C 
ATOM      5  C   UNL     1      -1.143  11.278  21.931  0.00  0.00    +0.000 C 
ATOM      6  C   UNL     1      -0.327  11.148  20.613  0.00  0.00    +0.000 C 
ATOM      7  C   UNL     1       1.100  11.649  20.881  0.00  0.00    +0.000 C 
ATOM      8  C   UNL     1      -0.409   9.644  20.233  0.00  0.00    +0.000 C 
ATOM      9  C   UNL     1      -0.146   9.605  18.739  0.00  0.00    +0.000 C 
ATOM     10  C   UNL     1      -0.885  10.822  18.206  0.00  0.00    +0.000 C 
ATOM     11  C   UNL     1      -1.001  11.832  19.373  0.00  0.00    +0.000 C 
ENDROOT
BRANCH   1  17
ATOM     12  C   UNL     1       4.049   2.986  17.812  0.00  0.00    +0.000 C 
ATOM     13  C   UNL     1       3.759   4.151  18.430  0.00  0.00    +0.000 C 
ATOM     14  C   UNL     1       2.951   4.253  19.712  0.00  0.00    +0.000 C 
ATOM     15  C   UNL     1       1.839   5.315  19.625  0.00  0.00    +0.000 C 
ATOM     16  C   UNL     1       2.363   6.652  19.153  0.00  0.00    +0.000 C 
ATOM     17  C   UNL     1       2.154   7.823  19.785  0.00  0.00    +0.000 C 
ATOM     18  C   UNL     1       3.139   6.562  17.844  0.00  0.00    +0.000 C 
ATOM     19  C   UNL     1       4.237   5.476  17.874  0.00  0.00    +0.000 C 
BRANCH  14  20
ATOM     20  O   UNL     1       2.363   2.998  20.058  0.00  0.00    +0.000 OA
ATOM     21  H   UNL     1       2.750   2.718  20.906  0.00  0.00    +0.000 HD
ENDBRANCH  14  20
BRANCH  19  22
ATOM     22  O   UNL     1       5.353   5.919  18.647  0.00  0.00    +0.000 OA
ATOM     23  H   UNL     1       5.604   5.200  19.250  0.00  0.00    +0.000 HD
ENDBRANCH  19  22
ENDBRANCH   1  17
BRANCH  11  24
ATOM     24  C   UNL     1      -0.640  13.291  18.929  0.00  0.00    +0.000 C 
ATOM     25  C   UNL     1      -0.610  14.356  20.043  0.00  0.00    +0.000 C 
BRANCH  24  26
ATOM     26  C   UNL     1       0.762  13.345  18.251  0.00  0.00    +0.000 C 
BRANCH  26  27
ATOM     27  C   UNL     1       1.590  14.557  18.667  0.00  0.00    +0.000 C 
BRANCH  27  28
ATOM     28  C   UNL     1       3.058  14.215  18.883  0.00  0.00    +0.000 C 
ATOM     29  F   UNL     1       3.289  14.049  20.212  0.00  0.00    +0.000 F 
ATOM     30  F   UNL     1       3.326  13.006  18.307  0.00  0.00    +0.000 F 
BRANCH  28  31
ATOM     31  C   UNL     1       4.050  15.257  18.303  0.00  0.00    +0.000 C 
ATOM     32  C   UNL     1       3.335  16.302  17.438  0.00  0.00    +0.000 C 
ATOM     33  C   UNL     1       4.843  15.948  19.412  0.00  0.00    +0.000 C 
BRANCH  31  34
ATOM     34  O   UNL     1       5.008  14.606  17.446  0.00  0.00    +0.000 OA
ATOM     35  H   UNL     1       4.940  13.646  17.618  0.00  0.00    +0.000 HD
ENDBRANCH  31  34
ENDBRANCH  28  31
ENDBRANCH  27  28
ENDBRANCH  26  27
ENDBRANCH  24  26
ENDBRANCH  11  24
TORSDOF 9
ENDMDL
MODEL 3
REMARK VINA RESULT:      -7.1      3.924      6.711
REMARK  Name = 
REMARK  13 active torsions:
REMARK  status: ('A' for Active; 'I' for Inactive)
REMARK    1  A    between atoms: C_3  and  O_4
REMARK    2  A    between atoms: C_7  and  C_8
REMARK    3  A    between atoms: C_13  and  C_14
REMARK    4  A    between atoms: C_18  and  C_19
REMARK    5  A    between atoms: C_19  and  C_20
REMARK    6  A    between atoms: C_19  and  C_21
REMARK    7  A    between atoms: C_21  and  C_22
REMARK    8  A    between atoms: C_22  and  C_23
REMARK    9  A    between atoms: C_23  and  C_26
REMARK   10  A    between atoms: C_26  and  C_27
REMARK   11  A    between atoms: C_26  and  C_28
REMARK   12  A    between atoms: C_26  and  O_29
REMARK   13  A    between atoms: C_31  and  O_32
REMARK                            x       y       z     vdW  Elec       q    Type
REMARK                         _______ _______ _______ _____ _____    ______ ____
ROOT
ATOM      1  C   UNL     1       1.042   8.343  21.474  0.00  0.00    +0.000 C 
ATOM      2  C   UNL     1       0.050   9.260  21.474  0.00  0.00    +0.000 C 
ATOM      3  C   UNL     1      -0.677   9.628  22.764  0.00  0.00    +0.000 C 
ATOM      4  C   UNL     1      -0.846  11.149  22.987  0.00  0.00    +0.000 C 
ATOM      5  C   UNL     1      -1.203  11.954  21.717  0.00  0.00    +0.000 C 
ATOM      6  C   UNL     1      -0.292  11.572  20.515  0.00  0.00    +0.000 C 
ATOM      7  C   UNL     1       1.152  11.958  20.865  0.00  0.00    +0.000 C 
ATOM      8  C   UNL     1      -0.509  10.046  20.313  0.00  0.00    +0.000 C 
ATOM      9  C   UNL     1      -0.120   9.785  18.870  0.00  0.00    +0.000 C 
ATOM     10  C   UNL     1      -0.667  10.990  18.120  0.00  0.00    +0.000 C 
ATOM     11  C   UNL     1      -0.772  12.151  19.139  0.00  0.00    +0.000 C 
ENDROOT
BRANCH   1  17
ATOM     12  C   UNL     1       3.565   2.748  19.315  0.00  0.00    +0.000 C 
ATOM     13  C   UNL     1       3.309   4.010  19.720  0.00  0.00    +0.000 C 
ATOM     14  C   UNL     1       2.410   4.358  20.894  0.00  0.00    +0.000 C 
ATOM     15  C   UNL     1       1.386   5.455  20.547  0.00  0.00    +0.000 C 
ATOM     16  C   UNL     1       2.039   6.669  19.928  0.00  0.00    +0.000 C 
ATOM     17  C   UNL     1       1.863   7.935  20.354  0.00  0.00    +0.000 C 
ATOM     18  C   UNL     1       2.908   6.331  18.723  0.00  0.00    +0.000 C 
ATOM     19  C   UNL     1       3.922   5.202  19.016  0.00  0.00    +0.000 C 
BRANCH  14  20
ATOM     20  O   UNL     1       1.709   3.208  21.373  0.00  0.00    +0.000 OA
ATOM     21  H   UNL     1       2.234   2.827  22.097  0.00  0.00    +0.000 HD
ENDBRANCH  14  20
BRANCH  19  22
ATOM     22  O   UNL     1       5.000   5.696  19.810  0.00  0.00    +0.000 OA
ATOM     23  H   UNL     1       4.630   6.295  20.479  0.00  0.00    +0.000 HD
ENDBRANCH  19  22
ENDBRANCH   1  17
BRANCH  11  24
ATOM     24  C   UNL     1      -0.212  13.495  18.561  0.00  0.00    +0.000 C 
ATOM     25  C   UNL     1      -0.518  14.769  19.375  0.00  0.00    +0.000 C 
BRANCH  24  26
ATOM     26  C   UNL     1       1.338  13.445  18.416  0.00  0.00    +0.000 C 
BRANCH  26  27
ATOM     27  C   UNL     1       2.011  14.796  18.640  0.00  0.00    +0.000 C 
BRANCH  27  28
ATOM     28  C   UNL     1       3.431  14.840  18.089  0.00  0.00    +0.000 C 
ATOM     29  F   UNL     1       3.892  13.569  17.940  0.00  0.00    +0.000 F 
ATOM     30  F   UNL     1       3.409  15.375  16.833  0.00  0.00    +0.000 F 
BRANCH  28  31
ATOM     31  C   UNL     1       4.426  15.663  18.947  0.00  0.00    +0.000 C 
ATOM     32  C   UNL     1       4.101  15.565  20.443  0.00  0.00    +0.000 C 
ATOM     33  C   UNL     1       5.871  15.230  18.695  0.00  0.00    +0.000 C 
BRANCH  31  34
ATOM     34  O   UNL     1       4.340  17.059  18.603  0.00  0.00    +0.000 OA
ATOM     35  H   UNL     1       4.287  17.558  19.441  0.00  0.00    +0.000 HD
ENDBRANCH  31  34
ENDBRANCH  28  31
ENDBRANCH  27  28
ENDBRANCH  26  27
ENDBRANCH  24  26
ENDBRANCH  11  24
TORSDOF 9
ENDMDL
MODEL 4
REMARK VINA RESULT:      -7.0      2.802      5.658
REMARK  Name = 
REMARK  13 active torsions:
REMARK  status: ('A' for Active; 'I' for Inactive)
REMARK    1  A    between atoms: C_3  and  O_4
REMARK    2  A    between atoms: C_7  and  C_8
REMARK    3  A    between atoms: C_13  and  C_14
REMARK    4  A    between atoms: C_18  and  C_19
REMARK    5  A    between atoms: C_19  and  C_20
REMARK    6  A    between atoms: C_19  and  C_21
REMARK    7  A    between atoms: C_21  and  C_22
REMARK    8  A    between atoms: C_22  and  C_23
REMARK    9  A    between atoms: C_23  and  C_26
REMARK   10  A    between atoms: C_26  and  C_27
REMARK   11  A    between atoms: C_26  and  C_28
REMARK   12  A    between atoms: C_26  and  O_29
REMARK   13  A    between atoms: C_31  and  O_32
REMARK                            x       y       z     vdW  Elec       q    Type
REMARK                         _______ _______ _______ _____ _____    ______ ____
ROOT
ATOM      1  C   UNL     1       1.499   8.062  20.527  0.00  0.00    +0.000 C 
ATOM      2  C   UNL     1       0.445   8.760  21.004  0.00  0.00    +0.000 C 
ATOM      3  C   UNL     1      -0.082   8.519  22.416  0.00  0.00    +0.000 C 
ATOM      4  C   UNL     1      -0.343   9.810  23.226  0.00  0.00    +0.000 C 
ATOM      5  C   UNL     1      -0.979  10.963  22.419  0.00  0.00    +0.000 C 
ATOM      6  C   UNL     1      -0.257  11.186  21.059  0.00  0.00    +0.000 C 
ATOM      7  C   UNL     1       1.186  11.623  21.348  0.00  0.00    +0.000 C 
ATOM      8  C   UNL     1      -0.370   9.826  20.314  0.00  0.00    +0.000 C 
ATOM      9  C   UNL     1      -0.213  10.173  18.845  0.00  0.00    +0.000 C 
ATOM     10  C   UNL     1      -0.983  11.475  18.692  0.00  0.00    +0.000 C 
ATOM     11  C   UNL     1      -1.014  12.153  20.083  0.00  0.00    +0.000 C 
ENDROOT
BRANCH   1  17
ATOM     12  C   UNL     1       4.804   4.207  16.460  0.00  0.00    +0.000 C 
ATOM     13  C   UNL     1       4.339   5.189  17.262  0.00  0.00    +0.000 C 
ATOM     14  C   UNL     1       3.640   4.941  18.587  0.00  0.00    +0.000 C 
ATOM     15  C   UNL     1       2.334   5.746  18.724  0.00  0.00    +0.000 C 
ATOM     16  C   UNL     1       2.535   7.215  18.431  0.00  0.00    +0.000 C 
ATOM     17  C   UNL     1       2.149   8.217  19.244  0.00  0.00    +0.000 C 
ATOM     18  C   UNL     1       3.198   7.471  17.083  0.00  0.00    +0.000 C 
ATOM     19  C   UNL     1       4.491   6.648  16.888  0.00  0.00    +0.000 C 
BRANCH  14  20
ATOM     20  O   UNL     1       3.349   3.555  18.772  0.00  0.00    +0.000 OA
ATOM     21  H   UNL     1       3.633   3.087  17.969  0.00  0.00    +0.000 HD
ENDBRANCH  14  20
BRANCH  19  22
ATOM     22  O   UNL     1       5.556   7.207  17.655  0.00  0.00    +0.000 OA
ATOM     23  H   UNL     1       5.291   8.101  17.930  0.00  0.00    +0.000 HD
ENDBRANCH  19  22
ENDBRANCH   1  17
BRANCH  11  24
ATOM     24  C   UNL     1      -0.680  13.682  20.003  0.00  0.00    +0.000 C 
ATOM     25  C   UNL     1      -0.238  14.213  18.625  0.00  0.00    +0.000 C 
BRANCH  24  26
ATOM     26  C   UNL     1      -1.905  14.550  20.420  0.00  0.00    +0.000 C 
BRANCH  26  27
ATOM     27  C   UNL     1      -2.907  13.802  21.295  0.00  0.00    +0.000 C 
BRANCH  27  28
ATOM     28  C   UNL     1      -2.936  14.323  22.725  0.00  0.00    +0.000 C 
ATOM     29  F   UNL     1      -1.794  13.950  23.361  0.00  0.00    +0.000 F 
ATOM     30  F   UNL     1      -2.921  15.688  22.706  0.00  0.00    +0.000 F 
BRANCH  28  31
ATOM     31  C   UNL     1      -4.169  13.865  23.548  0.00  0.00    +0.000 C 
ATOM     32  C   UNL     1      -5.434  13.796  22.685  0.00  0.00    +0.000 C 
ATOM     33  C   UNL     1      -3.919  12.516  24.222  0.00  0.00    +0.000 C 
BRANCH  31  34
ATOM     34  O   UNL     1      -4.444  14.814  24.598  0.00  0.00    +0.000 OA
ATOM     35  H   UNL     1      -4.717  14.300  25.382  0.00  0.00    +0.000 HD
ENDBRANCH  31  34
ENDBRANCH  28  31
ENDBRANCH  27  28
ENDBRANCH  26  27
ENDBRANCH  24  26
ENDBRANCH  11  24
TORSDOF 9
ENDMDL
MODEL 5
REMARK VINA RESULT:      -7.0      3.908      6.499
REMARK  Name = 
REMARK  13 active torsions:
REMARK  status: ('A' for Active; 'I' for Inactive)
REMARK    1  A    between atoms: C_3  and  O_4
REMARK    2  A    between atoms: C_7  and  C_8
REMARK    3  A    between atoms: C_13  and  C_14
REMARK    4  A    between atoms: C_18  and  C_19
REMARK    5  A    between atoms: C_19  and  C_20
REMARK    6  A    between atoms: C_19  and  C_21
REMARK    7  A    between atoms: C_21  and  C_22
REMARK    8  A    between atoms: C_22  and  C_23
REMARK    9  A    between atoms: C_23  and  C_26
REMARK   10  A    between atoms: C_26  and  C_27
REMARK   11  A    between atoms: C_26  and  C_28
REMARK   12  A    between atoms: C_26  and  O_29
REMARK   13  A    between atoms: C_31  and  O_32
REMARK                            x       y       z     vdW  Elec       q    Type
REMARK                         _______ _______ _______ _____ _____    ______ ____
ROOT
ATOM      1  C   UNL     1       1.086   8.016  21.385  0.00  0.00    +0.000 C 
ATOM      2  C   UNL     1       0.130   8.970  21.405  0.00  0.00    +0.000 C 
ATOM      3  C   UNL     1      -0.623   9.300  22.690  0.00  0.00    +0.000 C 
ATOM      4  C   UNL     1      -0.742  10.812  22.987  0.00  0.00    +0.000 C 
ATOM      5  C   UNL     1      -1.029  11.695  21.752  0.00  0.00    +0.000 C 
ATOM      6  C   UNL     1      -0.096  11.339  20.558  0.00  0.00    +0.000 C 
ATOM      7  C   UNL     1       1.350  11.651  20.969  0.00  0.00    +0.000 C 
ATOM      8  C   UNL     1      -0.363   9.835  20.271  0.00  0.00    +0.000 C 
ATOM      9  C   UNL     1       0.059   9.634  18.827  0.00  0.00    +0.000 C 
ATOM     10  C   UNL     1      -0.419  10.896  18.127  0.00  0.00    +0.000 C 
ATOM     11  C   UNL     1      -0.512  12.006  19.201  0.00  0.00    +0.000 C 
ENDROOT
BRANCH   1  17
ATOM     12  C   UNL     1       3.755   2.495  19.212  0.00  0.00    +0.000 C 
ATOM     13  C   UNL     1       3.467   3.748  19.624  0.00  0.00    +0.000 C 
ATOM     14  C   UNL     1       2.550   4.067  20.792  0.00  0.00    +0.000 C 
ATOM     15  C   UNL     1       1.505   5.143  20.444  0.00  0.00    +0.000 C 
ATOM     16  C   UNL     1       2.134   6.376  19.837  0.00  0.00    +0.000 C 
ATOM     17  C   UNL     1       1.925   7.634  20.269  0.00  0.00    +0.000 C 
ATOM     18  C   UNL     1       3.021   6.065  18.637  0.00  0.00    +0.000 C 
ATOM     19  C   UNL     1       4.058   4.958  18.932  0.00  0.00    +0.000 C 
BRANCH  14  20
ATOM     20  O   UNL     1       1.872   2.899  21.258  0.00  0.00    +0.000 OA
ATOM     21  H   UNL     1       2.455   2.138  21.093  0.00  0.00    +0.000 HD
ENDBRANCH  14  20
BRANCH  19  22
ATOM     22  O   UNL     1       5.118   5.471  19.738  0.00  0.00    +0.000 OA
ATOM     23  H   UNL     1       5.868   4.857  19.674  0.00  0.00    +0.000 HD
ENDBRANCH  19  22
ENDBRANCH   1  17
BRANCH  11  24
ATOM     24  C   UNL     1       0.116  13.356  18.711  0.00  0.00    +0.000 C 
ATOM     25  C   UNL     1      -0.285  14.620  19.496  0.00  0.00    +0.000 C 
BRANCH  24  26
ATOM     26  C   UNL     1       1.672  13.303  18.754  0.00  0.00    +0.000 C 
BRANCH  26  27
ATOM     27  C   UNL     1       2.338  14.254  17.763  0.00  0.00    +0.000 C 
BRANCH  27  28
ATOM     28  C   UNL     1       3.534  14.980  18.364  0.00  0.00    +0.000 C 
ATOM     29  F   UNL     1       3.757  14.511  19.621  0.00  0.00    +0.000 F 
ATOM     30  F   UNL     1       4.654  14.670  17.648  0.00  0.00    +0.000 F 
BRANCH  28  31
ATOM     31  C   UNL     1       3.394  16.524  18.397  0.00  0.00    +0.000 C 
ATOM     32  C   UNL     1       2.772  17.066  17.105  0.00  0.00    +0.000 C 
ATOM     33  C   UNL     1       2.577  16.985  19.605  0.00  0.00    +0.000 C 
BRANCH  31  34
ATOM     34  O   UNL     1       4.693  17.137  18.511  0.00  0.00    +0.000 OA
ATOM     35  H   UNL     1       5.343  16.498  18.160  0.00  0.00    +0.000 HD
ENDBRANCH  31  34
ENDBRANCH  28  31
ENDBRANCH  27  28
ENDBRANCH  26  27
ENDBRANCH  24  26
ENDBRANCH  11  24
TORSDOF 9
ENDMDL
MODEL 6
REMARK VINA RESULT:      -6.9      2.838      5.705
REMARK  Name = 
REMARK  13 active torsions:
REMARK  status: ('A' for Active; 'I' for Inactive)
REMARK    1  A    between atoms: C_3  and  O_4
REMARK    2  A    between atoms: C_7  and  C_8
REMARK    3  A    between atoms: C_13  and  C_14
REMARK    4  A    between atoms: C_18  and  C_19
REMARK    5  A    between atoms: C_19  and  C_20
REMARK    6  A    between atoms: C_19  and  C_21
REMARK    7  A    between atoms: C_21  and  C_22
REMARK    8  A    between atoms: C_22  and  C_23
REMARK    9  A    between atoms: C_23  and  C_26
REMARK   10  A    between atoms: C_26  and  C_27
REMARK   11  A    between atoms: C_26  and  C_28
REMARK   12  A    between atoms: C_26  and  O_29
REMARK   13  A    between atoms: C_31  and  O_32
REMARK                            x       y       z     vdW  Elec       q    Type
REMARK                         _______ _______ _______ _____ _____    ______ ____
ROOT
ATOM      1  C   UNL     1       1.509   8.067  20.528  0.00  0.00    +0.000 C 
ATOM      2  C   UNL     1       0.454   8.768  20.997  0.00  0.00    +0.000 C 
ATOM      3  C   UNL     1      -0.076   8.537  22.409  0.00  0.00    +0.000 C 
ATOM      4  C   UNL     1      -0.338   9.833  23.210  0.00  0.00    +0.000 C 
ATOM      5  C   UNL     1      -0.973  10.981  22.395  0.00  0.00    +0.000 C 
ATOM      6  C   UNL     1      -0.248  11.195  21.035  0.00  0.00    +0.000 C 
ATOM      7  C   UNL     1       1.195  11.634  21.324  0.00  0.00    +0.000 C 
ATOM      8  C   UNL     1      -0.359   9.830  20.299  0.00  0.00    +0.000 C 
ATOM      9  C   UNL     1      -0.198  10.167  18.828  0.00  0.00    +0.000 C 
ATOM     10  C   UNL     1      -0.968  11.469  18.664  0.00  0.00    +0.000 C 
ATOM     11  C   UNL     1      -1.002  12.155  20.051  0.00  0.00    +0.000 C 
ENDROOT
BRANCH   1  17
ATOM     12  C   UNL     1       4.788   4.176  16.474  0.00  0.00    +0.000 C 
ATOM     13  C   UNL     1       4.330   5.163  17.273  0.00  0.00    +0.000 C 
ATOM     14  C   UNL     1       3.627   4.924  18.598  0.00  0.00    +0.000 C 
ATOM     15  C   UNL     1       2.327   5.740  18.730  0.00  0.00    +0.000 C 
ATOM     16  C   UNL     1       2.541   7.207  18.435  0.00  0.00    +0.000 C 
ATOM     17  C   UNL     1       2.163   8.214  19.245  0.00  0.00    +0.000 C 
ATOM     18  C   UNL     1       3.207   7.454  17.087  0.00  0.00    +0.000 C 
ATOM     19  C   UNL     1       4.494   6.620  16.895  0.00  0.00    +0.000 C 
BRANCH  14  20
ATOM     20  O   UNL     1       3.324   3.541  18.786  0.00  0.00    +0.000 OA
ATOM     21  H   UNL     1       3.124   3.410  19.728  0.00  0.00    +0.000 HD
ENDBRANCH  14  20
BRANCH  19  22
ATOM     22  O   UNL     1       5.563   7.172  17.663  0.00  0.00    +0.000 OA
ATOM     23  H   UNL     1       5.177   7.748  18.343  0.00  0.00    +0.000 HD
ENDBRANCH  19  22
ENDBRANCH   1  17
BRANCH  11  24
ATOM     24  C   UNL     1      -0.668  13.684  19.961  0.00  0.00    +0.000 C 
ATOM     25  C   UNL     1      -0.341  14.231  18.558  0.00  0.00    +0.000 C 
BRANCH  24  26
ATOM     26  C   UNL     1      -1.848  14.552  20.493  0.00  0.00    +0.000 C 
BRANCH  26  27
ATOM     27  C   UNL     1      -2.322  14.143  21.884  0.00  0.00    +0.000 C 
BRANCH  27  28
ATOM     28  C   UNL     1      -3.788  13.731  21.903  0.00  0.00    +0.000 C 
ATOM     29  F   UNL     1      -4.491  14.537  21.063  0.00  0.00    +0.000 F 
ATOM     30  F   UNL     1      -3.907  12.471  21.393  0.00  0.00    +0.000 F 
BRANCH  28  31
ATOM     31  C   UNL     1      -4.438  13.745  23.311  0.00  0.00    +0.000 C 
ATOM     32  C   UNL     1      -3.924  12.595  24.186  0.00  0.00    +0.000 C 
ATOM     33  C   UNL     1      -4.211  15.083  24.017  0.00  0.00    +0.000 C 
BRANCH  31  34
ATOM     34  O   UNL     1      -5.864  13.566  23.201  0.00  0.00    +0.000 OA
ATOM     35  H   UNL     1      -6.055  12.639  23.442  0.00  0.00    +0.000 HD
ENDBRANCH  31  34
ENDBRANCH  28  31
ENDBRANCH  27  28
ENDBRANCH  26  27
ENDBRANCH  24  26
ENDBRANCH  11  24
TORSDOF 9
ENDMDL
MODEL 7
REMARK VINA RESULT:      -6.8      2.761      5.691
REMARK  Name = 
REMARK  13 active torsions:
REMARK  status: ('A' for Active; 'I' for Inactive)
REMARK    1  A    between atoms: C_3  and  O_4
REMARK    2  A    between atoms: C_7  and  C_8
REMARK    3  A    between atoms: C_13  and  C_14
REMARK    4  A    between atoms: C_18  and  C_19
REMARK    5  A    between atoms: C_19  and  C_20
REMARK    6  A    between atoms: C_19  and  C_21
REMARK    7  A    between atoms: C_21  and  C_22
REMARK    8  A    between atoms: C_22  and  C_23
REMARK    9  A    between atoms: C_23  and  C_26
REMARK   10  A    between atoms: C_26  and  C_27
REMARK   11  A    between atoms: C_26  and  C_28
REMARK   12  A    between atoms: C_26  and  O_29
REMARK   13  A    between atoms: C_31  and  O_32
REMARK                            x       y       z     vdW  Elec       q    Type
REMARK                         _______ _______ _______ _____ _____    ______ ____
ROOT
ATOM      1  C   UNL     1       1.482   8.059  20.514  0.00  0.00    +0.000 C 
ATOM      2  C   UNL     1       0.431   8.770  20.978  0.00  0.00    +0.000 C 
ATOM      3  C   UNL     1      -0.121   8.531  22.380  0.00  0.00    +0.000 C 
ATOM      4  C   UNL     1      -0.376   9.822  23.192  0.00  0.00    +0.000 C 
ATOM      5  C   UNL     1      -0.983  10.988  22.381  0.00  0.00    +0.000 C 
ATOM      6  C   UNL     1      -0.236  11.206  21.033  0.00  0.00    +0.000 C 
ATOM      7  C   UNL     1       1.209  11.621  21.346  0.00  0.00    +0.000 C 
ATOM      8  C   UNL     1      -0.358   9.852  20.280  0.00  0.00    +0.000 C 
ATOM      9  C   UNL     1      -0.172  10.202  18.816  0.00  0.00    +0.000 C 
ATOM     10  C   UNL     1      -0.920  11.516  18.656  0.00  0.00    +0.000 C 
ATOM     11  C   UNL     1      -0.963  12.188  20.050  0.00  0.00    +0.000 C 
ENDROOT
BRANCH   1  17
ATOM     12  C   UNL     1       4.754   4.164  16.459  0.00  0.00    +0.000 C 
ATOM     13  C   UNL     1       4.301   5.149  17.263  0.00  0.00    +0.000 C 
ATOM     14  C   UNL     1       3.577   4.906  18.576  0.00  0.00    +0.000 C 
ATOM     15  C   UNL     1       2.288   5.741  18.701  0.00  0.00    +0.000 C 
ATOM     16  C   UNL     1       2.529   7.207  18.425  0.00  0.00    +0.000 C 
ATOM     17  C   UNL     1       2.155   8.211  19.242  0.00  0.00    +0.000 C 
ATOM     18  C   UNL     1       3.217   7.459  17.089  0.00  0.00    +0.000 C 
ATOM     19  C   UNL     1       4.493   6.608  16.905  0.00  0.00    +0.000 C 
BRANCH  14  20
ATOM     20  O   UNL     1       3.251   3.525  18.743  0.00  0.00    +0.000 OA
ATOM     21  H   UNL     1       4.078   3.050  18.932  0.00  0.00    +0.000 HD
ENDBRANCH  14  20
BRANCH  19  22
ATOM     22  O   UNL     1       5.560   7.134  17.693  0.00  0.00    +0.000 OA
ATOM     23  H   UNL     1       6.398   6.833  17.304  0.00  0.00    +0.000 HD
ENDBRANCH  19  22
ENDBRANCH   1  17
BRANCH  11  24
ATOM     24  C   UNL     1      -0.606  13.713  19.982  0.00  0.00    +0.000 C 
ATOM     25  C   UNL     1      -0.349  14.293  18.577  0.00  0.00    +0.000 C 
BRANCH  24  26
ATOM     26  C   UNL     1      -1.737  14.586  20.603  0.00  0.00    +0.000 C 
BRANCH  26  27
ATOM     27  C   UNL     1      -1.400  15.114  21.994  0.00  0.00    +0.000 C 
BRANCH  27  28
ATOM     28  C   UNL     1      -2.225  14.446  23.087  0.00  0.00    +0.000 C 
ATOM     29  F   UNL     1      -3.004  13.479  22.532  0.00  0.00    +0.000 F 
ATOM     30  F   UNL     1      -1.387  13.798  23.948  0.00  0.00    +0.000 F 
BRANCH  28  31
ATOM     31  C   UNL     1      -3.105  15.422  23.911  0.00  0.00    +0.000 C 
ATOM     32  C   UNL     1      -2.261  16.494  24.611  0.00  0.00    +0.000 C 
ATOM     33  C   UNL     1      -4.173  16.082  23.038  0.00  0.00    +0.000 C 
BRANCH  31  34
ATOM     34  O   UNL     1      -3.798  14.706  24.951  0.00  0.00    +0.000 OA
ATOM     35  H   UNL     1      -4.573  15.245  25.202  0.00  0.00    +0.000 HD
ENDBRANCH  31  34
ENDBRANCH  28  31
ENDBRANCH  27  28
ENDBRANCH  26  27
ENDBRANCH  24  26
ENDBRANCH  11  24
TORSDOF 9
ENDMDL
MODEL 8
REMARK VINA RESULT:      -6.7      3.892      6.329
REMARK  Name = 
REMARK  13 active torsions:
REMARK  status: ('A' for Active; 'I' for Inactive)
REMARK    1  A    between atoms: C_3  and  O_4
REMARK    2  A    between atoms: C_7  and  C_8
REMARK    3  A    between atoms: C_13  and  C_14
REMARK    4  A    between atoms: C_18  and  C_19
REMARK    5  A    between atoms: C_19  and  C_20
REMARK    6  A    between atoms: C_19  and  C_21
REMARK    7  A    between atoms: C_21  and  C_22
REMARK    8  A    between atoms: C_22  and  C_23
REMARK    9  A    between atoms: C_23  and  C_26
REMARK   10  A    between atoms: C_26  and  C_27
REMARK   11  A    between atoms: C_26  and  C_28
REMARK   12  A    between atoms: C_26  and  O_29
REMARK   13  A    between atoms: C_31  and  O_32
REMARK                            x       y       z     vdW  Elec       q    Type
REMARK                         _______ _______ _______ _____ _____    ______ ____
ROOT
ATOM      1  C   UNL     1       1.413   8.178  20.552  0.00  0.00    +0.000 C 
ATOM      2  C   UNL     1       0.343   8.901  20.944  0.00  0.00    +0.000 C 
ATOM      3  C   UNL     1      -0.247   8.736  22.341  0.00  0.00    +0.000 C 
ATOM      4  C   UNL     1      -0.538  10.068  23.071  0.00  0.00    +0.000 C 
ATOM      5  C   UNL     1      -1.133  11.179  22.178  0.00  0.00    +0.000 C 
ATOM      6  C   UNL     1      -0.350  11.329  20.842  0.00  0.00    +0.000 C 
ATOM      7  C   UNL     1       1.081  11.777  21.171  0.00  0.00    +0.000 C 
ATOM      8  C   UNL     1      -0.436   9.933  20.164  0.00  0.00    +0.000 C 
ATOM      9  C   UNL     1      -0.212  10.202  18.688  0.00  0.00    +0.000 C 
ATOM     10  C   UNL     1      -0.969  11.496  18.433  0.00  0.00    +0.000 C 
ATOM     11  C   UNL     1      -1.058  12.245  19.784  0.00  0.00    +0.000 C 
ENDROOT
BRANCH   1  17
ATOM     12  C   UNL     1       4.570   4.026  16.662  0.00  0.00    +0.000 C 
ATOM     13  C   UNL     1       4.150   5.052  17.433  0.00  0.00    +0.000 C 
ATOM     14  C   UNL     1       3.386   4.877  18.734  0.00  0.00    +0.000 C 
ATOM     15  C   UNL     1       2.139   5.779  18.810  0.00  0.00    +0.000 C 
ATOM     16  C   UNL     1       2.460   7.224  18.507  0.00  0.00    +0.000 C 
ATOM     17  C   UNL     1       2.121   8.265  19.292  0.00  0.00    +0.000 C 
ATOM     18  C   UNL     1       3.190   7.409  17.182  0.00  0.00    +0.000 C 
ATOM     19  C   UNL     1       4.425   6.490  17.047  0.00  0.00    +0.000 C 
BRANCH  14  20
ATOM     20  O   UNL     1       2.986   3.519  18.925  0.00  0.00    +0.000 OA
ATOM     21  H   UNL     1       3.776   2.963  18.815  0.00  0.00    +0.000 HD
ENDBRANCH  14  20
BRANCH  19  22
ATOM     22  O   UNL     1       5.500   6.980  17.847  0.00  0.00    +0.000 OA
ATOM     23  H   UNL     1       5.130   7.281  18.694  0.00  0.00    +0.000 HD
ENDBRANCH  19  22
ENDBRANCH   1  17
BRANCH  11  24
ATOM     24  C   UNL     1      -0.715  13.767  19.639  0.00  0.00    +0.000 C 
ATOM     25  C   UNL     1      -0.332  14.508  20.936  0.00  0.00    +0.000 C 
BRANCH  24  26
ATOM     26  C   UNL     1       0.474  13.987  18.657  0.00  0.00    +0.000 C 
BRANCH  26  27
ATOM     27  C   UNL     1       1.633  14.766  19.273  0.00  0.00    +0.000 C 
BRANCH  27  28
ATOM     28  C   UNL     1       1.684  16.211  18.795  0.00  0.00    +0.000 C 
ATOM     29  F   UNL     1       0.550  16.493  18.099  0.00  0.00    +0.000 F 
ATOM     30  F   UNL     1       1.669  17.042  19.878  0.00  0.00    +0.000 F 
BRANCH  28  31
ATOM     31  C   UNL     1       2.928  16.558  17.937  0.00  0.00    +0.000 C 
ATOM     32  C   UNL     1       3.714  15.302  17.543  0.00  0.00    +0.000 C 
ATOM     33  C   UNL     1       2.539  17.347  16.686  0.00  0.00    +0.000 C 
BRANCH  31  34
ATOM     34  O   UNL     1       3.834  17.387  18.691  0.00  0.00    +0.000 OA
ATOM     35  H   UNL     1       4.482  17.752  18.057  0.00  0.00    +0.000 HD
ENDBRANCH  31  34
ENDBRANCH  28  31
ENDBRANCH  27  28
ENDBRANCH  26  27
ENDBRANCH  24  26
ENDBRANCH  11  24
TORSDOF 9
ENDMDL
MODEL 9
REMARK VINA RESULT:      -6.7      3.078      5.753
REMARK  Name = 
REMARK  13 active torsions:
REMARK  status: ('A' for Active; 'I' for Inactive)
REMARK    1  A    between atoms: C_3  and  O_4
REMARK    2  A    between atoms: C_7  and  C_8
REMARK    3  A    between atoms: C_13  and  C_14
REMARK    4  A    between atoms: C_18  and  C_19
REMARK    5  A    between atoms: C_19  and  C_20
REMARK    6  A    between atoms: C_19  and  C_21
REMARK    7  A    between atoms: C_21  and  C_22
REMARK    8  A    between atoms: C_22  and  C_23
REMARK    9  A    between atoms: C_23  and  C_26
REMARK   10  A    between atoms: C_26  and  C_27
REMARK   11  A    between atoms: C_26  and  C_28
REMARK   12  A    between atoms: C_26  and  O_29
REMARK   13  A    between atoms: C_31  and  O_32
REMARK                            x       y       z     vdW  Elec       q    Type
REMARK                         _______ _______ _______ _____ _____    ______ ____
ROOT
ATOM      1  C   UNL     1       1.543   8.029  20.479  0.00  0.00    +0.000 C 
ATOM      2  C   UNL     1       0.479   8.724  20.939  0.00  0.00    +0.000 C 
ATOM      3  C   UNL     1      -0.059   8.494  22.347  0.00  0.00    +0.000 C 
ATOM      4  C   UNL     1      -0.338   9.791  23.142  0.00  0.00    +0.000 C 
ATOM      5  C   UNL     1      -0.975  10.931  22.317  0.00  0.00    +0.000 C 
ATOM      6  C   UNL     1      -0.242  11.145  20.961  0.00  0.00    +0.000 C 
ATOM      7  C   UNL     1       1.196  11.596  21.260  0.00  0.00    +0.000 C 
ATOM      8  C   UNL     1      -0.337   9.777  20.230  0.00  0.00    +0.000 C 
ATOM      9  C   UNL     1      -0.168  10.109  18.759  0.00  0.00    +0.000 C 
ATOM     10  C   UNL     1      -0.946  11.404  18.585  0.00  0.00    +0.000 C 
ATOM     11  C   UNL     1      -0.996  12.096  19.968  0.00  0.00    +0.000 C 
ENDROOT
BRANCH   1  17
ATOM     12  C   UNL     1       4.833   4.134  16.438  0.00  0.00    +0.000 C 
ATOM     13  C   UNL     1       4.373   5.121  17.236  0.00  0.00    +0.000 C 
ATOM     14  C   UNL     1       3.661   4.882  18.557  0.00  0.00    +0.000 C 
ATOM     15  C   UNL     1       2.364   5.703  18.683  0.00  0.00    +0.000 C 
ATOM     16  C   UNL     1       2.585   7.169  18.391  0.00  0.00    +0.000 C 
ATOM     17  C   UNL     1       2.205   8.176  19.201  0.00  0.00    +0.000 C 
ATOM     18  C   UNL     1       3.260   7.416  17.048  0.00  0.00    +0.000 C 
ATOM     19  C   UNL     1       4.545   6.579  16.863  0.00  0.00    +0.000 C 
BRANCH  14  20
ATOM     20  O   UNL     1       3.353   3.500  18.740  0.00  0.00    +0.000 OA
ATOM     21  H   UNL     1       2.403   3.436  18.938  0.00  0.00    +0.000 HD
ENDBRANCH  14  20
BRANCH  19  22
ATOM     22  O   UNL     1       5.611   7.125  17.638  0.00  0.00    +0.000 OA
ATOM     23  H   UNL     1       5.747   6.550  18.409  0.00  0.00    +0.000 HD
ENDBRANCH  19  22
ENDBRANCH   1  17
BRANCH  11  24
ATOM     24  C   UNL     1      -0.673  13.627  19.875  0.00  0.00    +0.000 C 
ATOM     25  C   UNL     1      -0.158  14.135  18.514  0.00  0.00    +0.000 C 
BRANCH  24  26
ATOM     26  C   UNL     1      -1.928  14.490  20.205  0.00  0.00    +0.000 C 
BRANCH  26  27
ATOM     27  C   UNL     1      -2.732  13.961  21.390  0.00  0.00    +0.000 C 
BRANCH  27  28
ATOM     28  C   UNL     1      -4.101  13.438  20.978  0.00  0.00    +0.000 C 
ATOM     29  F   UNL     1      -4.023  12.914  19.726  0.00  0.00    +0.000 F 
ATOM     30  F   UNL     1      -4.449  12.400  21.794  0.00  0.00    +0.000 F 
BRANCH  28  31
ATOM     31  C   UNL     1      -5.234  14.496  21.034  0.00  0.00    +0.000 C 
ATOM     32  C   UNL     1      -6.604  13.851  21.274  0.00  0.00    +0.000 C 
ATOM     33  C   UNL     1      -4.957  15.552  22.105  0.00  0.00    +0.000 C 
BRANCH  31  34
ATOM     34  O   UNL     1      -5.325  15.191  19.775  0.00  0.00    +0.000 OA
ATOM     35  H   UNL     1      -5.896  14.652  19.193  0.00  0.00    +0.000 HD
ENDBRANCH  31  34
ENDBRANCH  28  31
ENDBRANCH  27  28
ENDBRANCH  26  27
ENDBRANCH  24  26
ENDBRANCH  11  24
TORSDOF 9
ENDMDL
