MODEL 1
REMARK VINA RESULT:      -8.4      0.000      0.000
REMARK  Name = 
REMARK  8 active torsions:
REMARK  status: ('A' for Active; 'I' for Inactive)
REMARK    1  A    between atoms: C_1  and  O_2
REMARK    2  A    between atoms: O_2  and  C_3
REMARK    3  A    between atoms: C_3  and  C_4
REMARK    4  A    between atoms: C_4  and  N_5
REMARK    5  A    between atoms: C_9  and  C_10
REMARK    6  A    between atoms: C_10  and  C_11
REMARK    7  A    between atoms: C_10  and  N_21
REMARK    8  A    between atoms: N_24  and  C_25
REMARK                            x       y       z     vdW  Elec       q    Type
REMARK                         _______ _______ _______ _____ _____    ______ ____
ROOT
ATOM      1  C   UNL     1       4.804   4.575  18.003  0.00  0.00    +0.000 C 
ENDROOT
BRANCH   1   2
ATOM      2  C   UNL     1       5.661   4.573  16.749  0.00  0.00    +0.000 A 
ATOM      3  C   UNL     1       6.855   5.292  16.640  0.00  0.00    +0.000 A 
ATOM      4  C   UNL     1       7.555   5.333  15.434  0.00  0.00    +0.000 A 
ATOM      5  C   UNL     1       7.061   4.734  14.290  0.00  0.00    +0.000 A 
ATOM      6  N   UNL     1       7.726   4.859  13.131  0.00  0.00    +0.000 NA
ATOM      7  C   UNL     1       7.163   4.326  12.024  0.00  0.00    +0.000 A 
ATOM      8  C   UNL     1       5.957   3.649  12.010  0.00  0.00    +0.000 A 
ATOM      9  C   UNL     1       5.289   3.493  13.214  0.00  0.00    +0.000 A 
ATOM     10  C   UNL     1       5.837   4.042  14.376  0.00  0.00    +0.000 A 
ATOM     11  C   UNL     1       5.169   3.943  15.598  0.00  0.00    +0.000 A 
ENDBRANCH   1   2
BRANCH   1  12
ATOM     12  N   UNL     1       4.465   5.884  18.551  0.00  0.00    +0.000 NA
ATOM     13  C   UNL     1       4.384   7.011  17.621  0.00  0.00    +0.000 C 
ATOM     14  C   UNL     1       3.077   7.853  17.566  0.00  0.00    +0.000 C 
ATOM     15  N   UNL     1       2.359   7.885  18.844  0.00  0.00    +0.000 N 
ATOM     16  C   UNL     1       2.295   6.658  19.630  0.00  0.00    +0.000 C 
ATOM     17  C   UNL     1       3.672   5.995  19.764  0.00  0.00    +0.000 C 
BRANCH  15  18
ATOM     18  C   UNL     1       1.414   8.872  19.119  0.00  0.00    +0.000 A 
ATOM     19  C   UNL     1       0.712   9.534  18.091  0.00  0.00    +0.000 A 
ATOM     20  C   UNL     1      -0.408  10.330  18.355  0.00  0.00    +0.000 A 
ATOM     21  C   UNL     1      -0.839  10.509  19.664  0.00  0.00    +0.000 A 
ATOM     22  C   UNL     1      -0.118   9.933  20.707  0.00  0.00    +0.000 A 
ATOM     23  C   UNL     1       0.997   9.140  20.432  0.00  0.00    +0.000 A 
ATOM     24  F   UNL     1       1.604   8.544  21.472  0.00  0.00    +0.000 F 
ENDBRANCH  15  18
ENDBRANCH   1  12
BRANCH   1  29
ATOM     25  N   UNL     1       3.582   2.369  18.422  0.00  0.00    +0.000 N 
ATOM     26  N   UNL     1       2.438   1.768  18.036  0.00  0.00    +0.000 NA
ATOM     27  N   UNL     1       1.813   2.652  17.270  0.00  0.00    +0.000 NA
ATOM     28  N   UNL     1       2.543   3.801  17.152  0.00  0.00    +0.000 NA
ATOM     29  C   UNL     1       3.643   3.619  17.867  0.00  0.00    +0.000 A 
BRANCH  25  30
ATOM     30  C   UNL     1       4.343   1.804  19.518  0.00  0.00    +0.000 C 
BRANCH  30  31
ATOM     31  C   UNL     1       4.282   2.538  20.862  0.00  0.00    +0.000 C 
BRANCH  31  33
ATOM     32  C   UNL     1       2.073   3.150  21.595  0.00  0.00    +0.000 C 
ATOM     33  O   UNL     1       3.152   2.223  21.674  0.00  0.00    +0.000 OA
ENDBRANCH  31  33
ENDBRANCH  30  31
ENDBRANCH  25  30
ENDBRANCH   1  29
TORSDOF 7
ENDMDL
MODEL 2
REMARK VINA RESULT:      -8.4      0.979      1.077
REMARK  Name = 
REMARK  8 active torsions:
REMARK  status: ('A' for Active; 'I' for Inactive)
REMARK    1  A    between atoms: C_1  and  O_2
REMARK    2  A    between atoms: O_2  and  C_3
REMARK    3  A    between atoms: C_3  and  C_4
REMARK    4  A    between atoms: C_4  and  N_5
REMARK    5  A    between atoms: C_9  and  C_10
REMARK    6  A    between atoms: C_10  and  C_11
REMARK    7  A    between atoms: C_10  and  N_21
REMARK    8  A    between atoms: N_24  and  C_25
REMARK                            x       y       z     vdW  Elec       q    Type
REMARK                         _______ _______ _______ _____ _____    ______ ____
ROOT
ATOM      1  C   UNL     1       4.062   5.304  18.492  0.00  0.00    +0.000 C 
ENDROOT
BRANCH   1   2
ATOM      2  C   UNL     1       5.120   5.184  17.409  0.00  0.00    +0.000 A 
ATOM      3  C   UNL     1       6.349   5.849  17.466  0.00  0.00    +0.000 A 
ATOM      4  C   UNL     1       7.246   5.782  16.401  0.00  0.00    +0.000 A 
ATOM      5  C   UNL     1       6.927   5.125  15.226  0.00  0.00    +0.000 A 
ATOM      6  N   UNL     1       7.787   5.145  14.196  0.00  0.00    +0.000 NA
ATOM      7  C   UNL     1       7.397   4.557  13.043  0.00  0.00    +0.000 A 
ATOM      8  C   UNL     1       6.181   3.926  12.861  0.00  0.00    +0.000 A 
ATOM      9  C   UNL     1       5.309   3.879  13.936  0.00  0.00    +0.000 A 
ATOM     10  C   UNL     1       5.675   4.485  15.140  0.00  0.00    +0.000 A 
ATOM     11  C   UNL     1       4.804   4.495  16.231  0.00  0.00    +0.000 A 
ENDBRANCH   1   2
BRANCH   1  12
ATOM     12  N   UNL     1       3.710   6.659  18.903  0.00  0.00    +0.000 NA
ATOM     13  C   UNL     1       3.637   7.688  17.866  0.00  0.00    +0.000 C 
ATOM     14  C   UNL     1       2.328   8.514  17.710  0.00  0.00    +0.000 C 
ATOM     15  N   UNL     1       1.592   8.668  18.969  0.00  0.00    +0.000 N 
ATOM     16  C   UNL     1       1.522   7.524  19.870  0.00  0.00    +0.000 C 
ATOM     17  C   UNL     1       2.899   6.885  20.088  0.00  0.00    +0.000 C 
BRANCH  15  18
ATOM     18  C   UNL     1       0.639   9.672  19.132  0.00  0.00    +0.000 A 
ATOM     19  C   UNL     1      -0.312   9.962  18.132  0.00  0.00    +0.000 A 
ATOM     20  C   UNL     1      -1.421  10.778  18.381  0.00  0.00    +0.000 A 
ATOM     21  C   UNL     1      -1.591  11.352  19.636  0.00  0.00    +0.000 A 
ATOM     22  C   UNL     1      -0.627  11.149  20.619  0.00  0.00    +0.000 A 
ATOM     23  C   UNL     1       0.475  10.332  20.360  0.00  0.00    +0.000 A 
ATOM     24  F   UNL     1       1.331  10.108  21.370  0.00  0.00    +0.000 F 
ENDBRANCH  15  18
ENDBRANCH   1  12
BRANCH   1  29
ATOM     25  N   UNL     1       2.894   3.036  18.336  0.00  0.00    +0.000 N 
ATOM     26  N   UNL     1       1.706   2.546  17.924  0.00  0.00    +0.000 NA
ATOM     27  N   UNL     1       0.991   3.603  17.564  0.00  0.00    +0.000 NA
ATOM     28  N   UNL     1       1.706   4.756  17.727  0.00  0.00    +0.000 NA
ATOM     29  C   UNL     1       2.888   4.398  18.204  0.00  0.00    +0.000 A 
BRANCH  25  30
ATOM     30  C   UNL     1       3.788   2.181  19.091  0.00  0.00    +0.000 C 
BRANCH  30  31
ATOM     31  C   UNL     1       3.933   2.472  20.588  0.00  0.00    +0.000 C 
BRANCH  31  33
ATOM     32  C   UNL     1       2.114   3.606  21.683  0.00  0.00    +0.000 C 
ATOM     33  O   UNL     1       2.728   2.366  21.345  0.00  0.00    +0.000 OA
ENDBRANCH  31  33
ENDBRANCH  30  31
ENDBRANCH  25  30
ENDBRANCH   1  29
TORSDOF 7
ENDMDL
MODEL 3
REMARK VINA RESULT:      -8.2      1.443      2.171
REMARK  Name = 
REMARK  8 active torsions:
REMARK  status: ('A' for Active; 'I' for Inactive)
REMARK    1  A    between atoms: C_1  and  O_2
REMARK    2  A    between atoms: O_2  and  C_3
REMARK    3  A    between atoms: C_3  and  C_4
REMARK    4  A    between atoms: C_4  and  N_5
REMARK    5  A    between atoms: C_9  and  C_10
REMARK    6  A    between atoms: C_10  and  C_11
REMARK    7  A    between atoms: C_10  and  N_21
REMARK    8  A    between atoms: N_24  and  C_25
REMARK                            x       y       z     vdW  Elec       q    Type
REMARK                         _______ _______ _______ _____ _____    ______ ____
ROOT
ATOM      1  C   UNL     1       3.435   5.965  18.953  0.00  0.00    +0.000 C 
ENDROOT
BRANCH   1   2
ATOM      2  C   UNL     1       4.607   5.734  18.015  0.00  0.00    +0.000 A 
ATOM      3  C   UNL     1       5.842   6.372  18.166  0.00  0.00    +0.000 A 
ATOM      4  C   UNL     1       6.855   6.199  17.223  0.00  0.00    +0.000 A 
ATOM      5  C   UNL     1       6.652   5.458  16.072  0.00  0.00    +0.000 A 
ATOM      6  N   UNL     1       7.626   5.376  15.152  0.00  0.00    +0.000 NA
ATOM      7  C   UNL     1       7.353   4.709  14.009  0.00  0.00    +0.000 A 
ATOM      8  C   UNL     1       6.146   4.094  13.733  0.00  0.00    +0.000 A 
ATOM      9  C   UNL     1       5.155   4.153  14.698  0.00  0.00    +0.000 A 
ATOM     10  C   UNL     1       5.398   4.845  15.887  0.00  0.00    +0.000 A 
ATOM     11  C   UNL     1       4.407   4.962  16.863  0.00  0.00    +0.000 A 
ENDBRANCH   1   2
BRANCH   1  12
ATOM     12  N   UNL     1       3.014   7.351  19.131  0.00  0.00    +0.000 NA
ATOM     13  C   UNL     1       2.928   8.195  17.939  0.00  0.00    +0.000 C 
ATOM     14  C   UNL     1       1.590   8.923  17.623  0.00  0.00    +0.000 C 
ATOM     15  N   UNL     1       0.812   9.244  18.824  0.00  0.00    +0.000 N 
ATOM     16  C   UNL     1       0.765   8.258  19.898  0.00  0.00    +0.000 C 
ATOM     17  C   UNL     1       2.161   7.727  20.246  0.00  0.00    +0.000 C 
BRANCH  15  18
ATOM     18  C   UNL     1      -0.187  10.216  18.802  0.00  0.00    +0.000 A 
ATOM     19  C   UNL     1      -1.302  10.113  17.945  0.00  0.00    +0.000 A 
ATOM     20  C   UNL     1      -2.425  10.935  18.093  0.00  0.00    +0.000 A 
ATOM     21  C   UNL     1      -2.449  11.904  19.089  0.00  0.00    +0.000 A 
ATOM     22  C   UNL     1      -1.330  12.082  19.899  0.00  0.00    +0.000 A 
ATOM     23  C   UNL     1      -0.215  11.257  19.743  0.00  0.00    +0.000 A 
ATOM     24  F   UNL     1       0.802  11.421  20.604  0.00  0.00    +0.000 F 
ENDBRANCH  15  18
ENDBRANCH   1  12
BRANCH   1  29
ATOM     25  N   UNL     1       1.868   4.035  19.545  0.00  0.00    +0.000 N 
ATOM     26  N   UNL     1       0.915   3.295  18.940  0.00  0.00    +0.000 NA
ATOM     27  N   UNL     1       0.785   3.809  17.725  0.00  0.00    +0.000 NA
ATOM     28  N   UNL     1       1.645   4.854  17.540  0.00  0.00    +0.000 NA
ATOM     29  C   UNL     1       2.317   4.989  18.673  0.00  0.00    +0.000 A 
BRANCH  25  30
ATOM     30  C   UNL     1       2.027   3.945  20.983  0.00  0.00    +0.000 C 
BRANCH  30  31
ATOM     31  C   UNL     1       2.304   2.557  21.569  0.00  0.00    +0.000 C 
BRANCH  31  33
ATOM     32  C   UNL     1       4.333   2.181  20.329  0.00  0.00    +0.000 C 
ATOM     33  O   UNL     1       3.679   2.175  21.595  0.00  0.00    +0.000 OA
ENDBRANCH  31  33
ENDBRANCH  30  31
ENDBRANCH  25  30
ENDBRANCH   1  29
TORSDOF 7
ENDMDL
MODEL 4
REMARK VINA RESULT:      -8.2      1.379      1.684
REMARK  Name = 
REMARK  8 active torsions:
REMARK  status: ('A' for Active; 'I' for Inactive)
REMARK    1  A    between atoms: C_1  and  O_2
REMARK    2  A    between atoms: O_2  and  C_3
REMARK    3  A    between atoms: C_3  and  C_4
REMARK    4  A    between atoms: C_4  and  N_5
REMARK    5  A    between atoms: C_9  and  C_10
REMARK    6  A    between atoms: C_10  and  C_11
REMARK    7  A    between atoms: C_10  and  N_21
REMARK    8  A    between atoms: N_24  and  C_25
REMARK                            x       y       z     vdW  Elec       q    Type
REMARK                         _______ _______ _______ _____ _____    ______ ____
ROOT
ATOM      1  C   UNL     1       3.970   5.421  18.536  0.00  0.00    +0.000 C 
ENDROOT
BRANCH   1   2
ATOM      2  C   UNL     1       5.046   5.303  17.471  0.00  0.00    +0.000 A 
ATOM      3  C   UNL     1       6.256   6.002  17.526  0.00  0.00    +0.000 A 
ATOM      4  C   UNL     1       7.169   5.933  16.475  0.00  0.00    +0.000 A 
ATOM      5  C   UNL     1       6.883   5.239  15.313  0.00  0.00    +0.000 A 
ATOM      6  N   UNL     1       7.756   5.257  14.294  0.00  0.00    +0.000 NA
ATOM      7  C   UNL     1       7.397   4.632  13.150  0.00  0.00    +0.000 A 
ATOM      8  C   UNL     1       6.200   3.965  12.968  0.00  0.00    +0.000 A 
ATOM      9  C   UNL     1       5.316   3.920  14.033  0.00  0.00    +0.000 A 
ATOM     10  C   UNL     1       5.650   4.565  15.226  0.00  0.00    +0.000 A 
ATOM     11  C   UNL     1       4.764   4.578  16.305  0.00  0.00    +0.000 A 
ENDBRANCH   1   2
BRANCH   1  12
ATOM     12  N   UNL     1       3.611   6.775  18.944  0.00  0.00    +0.000 NA
ATOM     13  C   UNL     1       3.452   7.782  17.894  0.00  0.00    +0.000 C 
ATOM     14  C   UNL     1       2.117   8.575  17.802  0.00  0.00    +0.000 C 
ATOM     15  N   UNL     1       1.452   8.736  19.099  0.00  0.00    +0.000 N 
ATOM     16  C   UNL     1       1.464   7.609  20.024  0.00  0.00    +0.000 C 
ATOM     17  C   UNL     1       2.867   7.005  20.171  0.00  0.00    +0.000 C 
BRANCH  15  18
ATOM     18  C   UNL     1       0.487   9.721  19.301  0.00  0.00    +0.000 A 
ATOM     19  C   UNL     1       0.490  10.537  20.451  0.00  0.00    +0.000 A 
ATOM     20  C   UNL     1      -0.306  11.684  20.545  0.00  0.00    +0.000 A 
ATOM     21  C   UNL     1      -1.151  12.029  19.496  0.00  0.00    +0.000 A 
ATOM     22  C   UNL     1      -1.234  11.199  18.382  0.00  0.00    +0.000 A 
ATOM     23  C   UNL     1      -0.435  10.057  18.299  0.00  0.00    +0.000 A 
ATOM     24  F   UNL     1      -0.499   9.338  17.166  0.00  0.00    +0.000 F 
ENDBRANCH  15  18
ENDBRANCH   1  12
BRANCH   1  29
ATOM     25  N   UNL     1       2.799   3.155  18.385  0.00  0.00    +0.000 N 
ATOM     26  N   UNL     1       1.622   2.662  17.946  0.00  0.00    +0.000 NA
ATOM     27  N   UNL     1       0.922   3.716  17.546  0.00  0.00    +0.000 NA
ATOM     28  N   UNL     1       1.637   4.869  17.710  0.00  0.00    +0.000 NA
ATOM     29  C   UNL     1       2.803   4.515  18.229  0.00  0.00    +0.000 A 
BRANCH  25  30
ATOM     30  C   UNL     1       3.665   2.311  19.182  0.00  0.00    +0.000 C 
BRANCH  30  31
ATOM     31  C   UNL     1       3.621   2.502  20.702  0.00  0.00    +0.000 C 
BRANCH  31  33
ATOM     32  C   UNL     1       1.410   2.630  21.645  0.00  0.00    +0.000 C 
ATOM     33  O   UNL     1       2.560   3.329  21.177  0.00  0.00    +0.000 OA
ENDBRANCH  31  33
ENDBRANCH  30  31
ENDBRANCH  25  30
ENDBRANCH   1  29
TORSDOF 7
ENDMDL
MODEL 5
REMARK VINA RESULT:      -8.2      1.753      2.472
REMARK  Name = 
REMARK  8 active torsions:
REMARK  status: ('A' for Active; 'I' for Inactive)
REMARK    1  A    between atoms: C_1  and  O_2
REMARK    2  A    between atoms: O_2  and  C_3
REMARK    3  A    between atoms: C_3  and  C_4
REMARK    4  A    between atoms: C_4  and  N_5
REMARK    5  A    between atoms: C_9  and  C_10
REMARK    6  A    between atoms: C_10  and  C_11
REMARK    7  A    between atoms: C_10  and  N_21
REMARK    8  A    between atoms: N_24  and  C_25
REMARK                            x       y       z     vdW  Elec       q    Type
REMARK                         _______ _______ _______ _____ _____    ______ ____
ROOT
ATOM      1  C   UNL     1       2.934   5.161  18.950  0.00  0.00    +0.000 C 
ENDROOT
BRANCH   1   2
ATOM      2  C   UNL     1       4.168   5.259  18.069  0.00  0.00    +0.000 A 
ATOM      3  C   UNL     1       5.181   6.201  18.275  0.00  0.00    +0.000 A 
ATOM      4  C   UNL     1       6.245   6.311  17.382  0.00  0.00    +0.000 A 
ATOM      5  C   UNL     1       6.301   5.553  16.226  0.00  0.00    +0.000 A 
ATOM      6  N   UNL     1       7.303   5.741  15.353  0.00  0.00    +0.000 NA
ATOM      7  C   UNL     1       7.271   5.035  14.201  0.00  0.00    +0.000 A 
ATOM      8  C   UNL     1       6.284   4.124  13.870  0.00  0.00    +0.000 A 
ATOM      9  C   UNL     1       5.269   3.909  14.788  0.00  0.00    +0.000 A 
ATOM     10  C   UNL     1       5.265   4.630  15.984  0.00  0.00    +0.000 A 
ATOM     11  C   UNL     1       4.234   4.471  16.912  0.00  0.00    +0.000 A 
ENDBRANCH   1   2
BRANCH   1  12
ATOM     12  N   UNL     1       1.992   6.272  18.866  0.00  0.00    +0.000 NA
ATOM     13  C   UNL     1       1.589   6.919  20.115  0.00  0.00    +0.000 C 
ATOM     14  C   UNL     1       1.779   8.456  20.267  0.00  0.00    +0.000 C 
ATOM     15  N   UNL     1       1.695   9.175  18.992  0.00  0.00    +0.000 N 
ATOM     16  C   UNL     1       2.310   8.568  17.817  0.00  0.00    +0.000 C 
ATOM     17  C   UNL     1       1.921   7.092  17.667  0.00  0.00    +0.000 C 
BRANCH  15  18
ATOM     18  C   UNL     1       1.444  10.545  18.948  0.00  0.00    +0.000 A 
ATOM     19  C   UNL     1       2.352  11.446  18.355  0.00  0.00    +0.000 A 
ATOM     20  C   UNL     1       2.001  12.772  18.077  0.00  0.00    +0.000 A 
ATOM     21  C   UNL     1       0.736  13.240  18.413  0.00  0.00    +0.000 A 
ATOM     22  C   UNL     1      -0.153  12.396  19.072  0.00  0.00    +0.000 A 
ATOM     23  C   UNL     1       0.206  11.075  19.344  0.00  0.00    +0.000 A 
ATOM     24  F   UNL     1      -0.720  10.284  19.910  0.00  0.00    +0.000 F 
ENDBRANCH  15  18
ENDBRANCH   1  12
BRANCH   1  29
ATOM     25  N   UNL     1       2.785   2.668  19.490  0.00  0.00    +0.000 N 
ATOM     26  N   UNL     1       2.032   1.608  19.131  0.00  0.00    +0.000 NA
ATOM     27  N   UNL     1       1.110   2.089  18.308  0.00  0.00    +0.000 NA
ATOM     28  N   UNL     1       1.269   3.434  18.127  0.00  0.00    +0.000 NA
ATOM     29  C   UNL     1       2.313   3.788  18.861  0.00  0.00    +0.000 A 
BRANCH  25  30
ATOM     30  C   UNL     1       3.679   2.549  20.624  0.00  0.00    +0.000 C 
BRANCH  30  31
ATOM     31  C   UNL     1       4.894   1.630  20.463  0.00  0.00    +0.000 C 
BRANCH  31  33
ATOM     32  C   UNL     1       5.940   0.056  21.954  0.00  0.00    +0.000 C 
ATOM     33  O   UNL     1       5.656   1.419  21.651  0.00  0.00    +0.000 OA
ENDBRANCH  31  33
ENDBRANCH  30  31
ENDBRANCH  25  30
ENDBRANCH   1  29
TORSDOF 7
ENDMDL
MODEL 6
REMARK VINA RESULT:      -8.1      1.391      1.993
REMARK  Name = 
REMARK  8 active torsions:
REMARK  status: ('A' for Active; 'I' for Inactive)
REMARK    1  A    between atoms: C_1  and  O_2
REMARK    2  A    between atoms: O_2  and  C_3
REMARK    3  A    between atoms: C_3  and  C_4
REMARK    4  A    between atoms: C_4  and  N_5
REMARK    5  A    between atoms: C_9  and  C_10
REMARK    6  A    between atoms: C_10  and  C_11
REMARK    7  A    between atoms: C_10  and  N_21
REMARK    8  A    between atoms: N_24  and  C_25
REMARK                            x       y       z     vdW  Elec       q    Type
REMARK                         _______ _______ _______ _____ _____    ______ ____
ROOT
ATOM      1  C   UNL     1       4.564   5.061  18.811  0.00  0.00    +0.000 C 
ENDROOT
BRANCH   1   2
ATOM      2  C   UNL     1       5.478   5.128  17.599  0.00  0.00    +0.000 A 
ATOM      3  C   UNL     1       6.480   6.092  17.451  0.00  0.00    +0.000 A 
ATOM      4  C   UNL     1       7.228   6.169  16.277  0.00  0.00    +0.000 A 
ATOM      5  C   UNL     1       6.958   5.354  15.192  0.00  0.00    +0.000 A 
ATOM      6  N   UNL     1       7.650   5.508  14.053  0.00  0.00    +0.000 NA
ATOM      7  C   UNL     1       7.296   4.743  12.997  0.00  0.00    +0.000 A 
ATOM      8  C   UNL     1       6.281   3.805  13.017  0.00  0.00    +0.000 A 
ATOM      9  C   UNL     1       5.591   3.625  14.204  0.00  0.00    +0.000 A 
ATOM     10  C   UNL     1       5.923   4.406  15.313  0.00  0.00    +0.000 A 
ATOM     11  C   UNL     1       5.218   4.283  16.512  0.00  0.00    +0.000 A 
ENDBRANCH   1   2
BRANCH   1  12
ATOM     12  N   UNL     1       3.273   5.729  18.683  0.00  0.00    +0.000 NA
ATOM     13  C   UNL     1       2.474   5.904  19.897  0.00  0.00    +0.000 C 
ATOM     14  C   UNL     1       2.000   7.332  20.291  0.00  0.00    +0.000 C 
ATOM     15  N   UNL     1       1.807   8.214  19.135  0.00  0.00    +0.000 N 
ATOM     16  C   UNL     1       2.771   8.139  18.043  0.00  0.00    +0.000 C 
ATOM     17  C   UNL     1       3.040   6.690  17.618  0.00  0.00    +0.000 C 
BRANCH  15  18
ATOM     18  C   UNL     1       1.029   9.367  19.225  0.00  0.00    +0.000 A 
ATOM     19  C   UNL     1       0.265   9.832  18.135  0.00  0.00    +0.000 A 
ATOM     20  C   UNL     1      -0.708  10.826  18.287  0.00  0.00    +0.000 A 
ATOM     21  C   UNL     1      -0.921  11.404  19.533  0.00  0.00    +0.000 A 
ATOM     22  C   UNL     1      -0.126  11.021  20.610  0.00  0.00    +0.000 A 
ATOM     23  C   UNL     1       0.841  10.028  20.448  0.00  0.00    +0.000 A 
ATOM     24  F   UNL     1       1.523   9.643  21.540  0.00  0.00    +0.000 F 
ENDBRANCH  15  18
ENDBRANCH   1  12
BRANCH   1  29
ATOM     25  N   UNL     1       3.466   2.786  19.198  0.00  0.00    +0.000 N 
ATOM     26  N   UNL     1       3.718   1.657  19.892  0.00  0.00    +0.000 NA
ATOM     27  N   UNL     1       4.902   1.844  20.459  0.00  0.00    +0.000 NA
ATOM     28  N   UNL     1       5.404   3.077  20.150  0.00  0.00    +0.000 NA
ATOM     29  C   UNL     1       4.507   3.659  19.369  0.00  0.00    +0.000 A 
BRANCH  25  30
ATOM     30  C   UNL     1       2.408   2.787  18.209  0.00  0.00    +0.000 C 
BRANCH  30  31
ATOM     31  C   UNL     1       0.991   2.476  18.703  0.00  0.00    +0.000 C 
BRANCH  31  33
ATOM     32  C   UNL     1       0.980   2.861  21.079  0.00  0.00    +0.000 C 
ATOM     33  O   UNL     1       0.538   3.281  19.791  0.00  0.00    +0.000 OA
ENDBRANCH  31  33
ENDBRANCH  30  31
ENDBRANCH  25  30
ENDBRANCH   1  29
TORSDOF 7
ENDMDL
MODEL 7
REMARK VINA RESULT:      -8.0      2.198      3.201
REMARK  Name = 
REMARK  8 active torsions:
REMARK  status: ('A' for Active; 'I' for Inactive)
REMARK    1  A    between atoms: C_1  and  O_2
REMARK    2  A    between atoms: O_2  and  C_3
REMARK    3  A    between atoms: C_3  and  C_4
REMARK    4  A    between atoms: C_4  and  N_5
REMARK    5  A    between atoms: C_9  and  C_10
REMARK    6  A    between atoms: C_10  and  C_11
REMARK    7  A    between atoms: C_10  and  N_21
REMARK    8  A    between atoms: N_24  and  C_25
REMARK                            x       y       z     vdW  Elec       q    Type
REMARK                         _______ _______ _______ _____ _____    ______ ____
ROOT
ATOM      1  C   UNL     1       3.170   5.629  19.980  0.00  0.00    +0.000 C 
ENDROOT
BRANCH   1   2
ATOM      2  C   UNL     1       4.315   5.305  19.036  0.00  0.00    +0.000 A 
ATOM      3  C   UNL     1       5.660   5.392  19.409  0.00  0.00    +0.000 A 
ATOM      4  C   UNL     1       6.674   5.176  18.477  0.00  0.00    +0.000 A 
ATOM      5  C   UNL     1       6.393   4.947  17.142  0.00  0.00    +0.000 A 
ATOM      6  N   UNL     1       7.398   4.818  16.262  0.00  0.00    +0.000 NA
ATOM      7  C   UNL     1       7.073   4.676  14.957  0.00  0.00    +0.000 A 
ATOM      8  C   UNL     1       5.778   4.640  14.474  0.00  0.00    +0.000 A 
ATOM      9  C   UNL     1       4.744   4.740  15.389  0.00  0.00    +0.000 A 
ATOM     10  C   UNL     1       5.043   4.900  16.744  0.00  0.00    +0.000 A 
ATOM     11  C   UNL     1       4.025   5.048  17.689  0.00  0.00    +0.000 A 
ENDBRANCH   1   2
BRANCH   1  12
ATOM     12  N   UNL     1       2.156   6.549  19.473  0.00  0.00    +0.000 NA
ATOM     13  C   UNL     1       1.191   7.093  20.429  0.00  0.00    +0.000 C 
ATOM     14  C   UNL     1       1.035   8.635  20.552  0.00  0.00    +0.000 C 
ATOM     15  N   UNL     1       1.331   9.345  19.304  0.00  0.00    +0.000 N 
ATOM     16  C   UNL     1       2.451   8.879  18.495  0.00  0.00    +0.000 C 
ATOM     17  C   UNL     1       2.416   7.359  18.294  0.00  0.00    +0.000 C 
BRANCH  15  18
ATOM     18  C   UNL     1       0.881  10.646  19.086  0.00  0.00    +0.000 A 
ATOM     19  C   UNL     1       1.777  11.720  18.906  0.00  0.00    +0.000 A 
ATOM     20  C   UNL     1       1.351  12.967  18.436  0.00  0.00    +0.000 A 
ATOM     21  C   UNL     1       0.005  13.182  18.161  0.00  0.00    +0.000 A 
ATOM     22  C   UNL     1      -0.914  12.165  18.405  0.00  0.00    +0.000 A 
ATOM     23  C   UNL     1      -0.478  10.924  18.873  0.00  0.00    +0.000 A 
ATOM     24  F   UNL     1      -1.399   9.957  19.014  0.00  0.00    +0.000 F 
ENDBRANCH  15  18
ENDBRANCH   1  12
BRANCH   1  29
ATOM     25  N   UNL     1       1.701   3.540  20.068  0.00  0.00    +0.000 N 
ATOM     26  N   UNL     1       1.396   2.566  20.950  0.00  0.00    +0.000 NA
ATOM     27  N   UNL     1       2.144   2.806  22.019  0.00  0.00    +0.000 NA
ATOM     28  N   UNL     1       2.911   3.923  21.838  0.00  0.00    +0.000 NA
ATOM     29  C   UNL     1       2.630   4.376  20.626  0.00  0.00    +0.000 A 
BRANCH  25  30
ATOM     30  C   UNL     1       1.301   3.391  18.684  0.00  0.00    +0.000 C 
BRANCH  30  31
ATOM     31  C   UNL     1       1.830   2.166  17.931  0.00  0.00    +0.000 C 
BRANCH  31  33
ATOM     32  C   UNL     1       3.859   1.137  18.717  0.00  0.00    +0.000 C 
ATOM     33  O   UNL     1       3.251   2.080  17.839  0.00  0.00    +0.000 OA
ENDBRANCH  31  33
ENDBRANCH  30  31
ENDBRANCH  25  30
ENDBRANCH   1  29
TORSDOF 7
ENDMDL
MODEL 8
REMARK VINA RESULT:      -8.0      0.887      1.195
REMARK  Name = 
REMARK  8 active torsions:
REMARK  status: ('A' for Active; 'I' for Inactive)
REMARK    1  A    between atoms: C_1  and  O_2
REMARK    2  A    between atoms: O_2  and  C_3
REMARK    3  A    between atoms: C_3  and  C_4
REMARK    4  A    between atoms: C_4  and  N_5
REMARK    5  A    between atoms: C_9  and  C_10
REMARK    6  A    between atoms: C_10  and  C_11
REMARK    7  A    between atoms: C_10  and  N_21
REMARK    8  A    between atoms: N_24  and  C_25
REMARK                            x       y       z     vdW  Elec       q    Type
REMARK                         _______ _______ _______ _____ _____    ______ ____
ROOT
ATOM      1  C   UNL     1       4.910   4.598  17.911  0.00  0.00    +0.000 C 
ENDROOT
BRANCH   1   2
ATOM      2  C   UNL     1       5.734   4.602  16.635  0.00  0.00    +0.000 A 
ATOM      3  C   UNL     1       6.890   5.374  16.476  0.00  0.00    +0.000 A 
ATOM      4  C   UNL     1       7.557   5.416  15.252  0.00  0.00    +0.000 A 
ATOM      5  C   UNL     1       7.062   4.764  14.136  0.00  0.00    +0.000 A 
ATOM      6  N   UNL     1       7.692   4.889  12.957  0.00  0.00    +0.000 NA
ATOM      7  C   UNL     1       7.127   4.301  11.880  0.00  0.00    +0.000 A 
ATOM      8  C   UNL     1       5.955   3.568  11.915  0.00  0.00    +0.000 A 
ATOM      9  C   UNL     1       5.326   3.413  13.139  0.00  0.00    +0.000 A 
ATOM     10  C   UNL     1       5.876   4.018  14.272  0.00  0.00    +0.000 A 
ATOM     11  C   UNL     1       5.244   3.920  15.513  0.00  0.00    +0.000 A 
ENDBRANCH   1   2
BRANCH   1  12
ATOM     12  N   UNL     1       4.550   5.904  18.451  0.00  0.00    +0.000 NA
ATOM     13  C   UNL     1       4.185   6.956  17.502  0.00  0.00    +0.000 C 
ATOM     14  C   UNL     1       2.813   7.673  17.657  0.00  0.00    +0.000 C 
ATOM     15  N   UNL     1       2.344   7.724  19.046  0.00  0.00    +0.000 N 
ATOM     16  C   UNL     1       2.551   6.550  19.886  0.00  0.00    +0.000 C 
ATOM     17  C   UNL     1       3.988   6.023  19.786  0.00  0.00    +0.000 C 
BRANCH  15  18
ATOM     18  C   UNL     1       1.373   8.638  19.450  0.00  0.00    +0.000 A 
ATOM     19  C   UNL     1       0.802   8.592  20.738  0.00  0.00    +0.000 A 
ATOM     20  C   UNL     1       0.026   9.643  21.240  0.00  0.00    +0.000 A 
ATOM     21  C   UNL     1      -0.223  10.760  20.451  0.00  0.00    +0.000 A 
ATOM     22  C   UNL     1       0.261  10.798  19.146  0.00  0.00    +0.000 A 
ATOM     23  C   UNL     1       1.034   9.744  18.655  0.00  0.00    +0.000 A 
ATOM     24  F   UNL     1       1.541   9.872  17.418  0.00  0.00    +0.000 F 
ENDBRANCH  15  18
ENDBRANCH   1  12
BRANCH   1  29
ATOM     25  N   UNL     1       3.689   2.436  18.518  0.00  0.00    +0.000 N 
ATOM     26  N   UNL     1       2.581   1.769  18.133  0.00  0.00    +0.000 NA
ATOM     27  N   UNL     1       2.000   2.539  17.223  0.00  0.00    +0.000 NA
ATOM     28  N   UNL     1       2.723   3.679  17.012  0.00  0.00    +0.000 NA
ATOM     29  C   UNL     1       3.773   3.609  17.817  0.00  0.00    +0.000 A 
BRANCH  25  30
ATOM     30  C   UNL     1       4.379   2.026  19.724  0.00  0.00    +0.000 C 
BRANCH  30  31
ATOM     31  C   UNL     1       3.599   2.117  21.039  0.00  0.00    +0.000 C 
BRANCH  31  33
ATOM     32  C   UNL     1       1.315   2.814  21.341  0.00  0.00    +0.000 C 
ATOM     33  O   UNL     1       2.669   3.197  21.119  0.00  0.00    +0.000 OA
ENDBRANCH  31  33
ENDBRANCH  30  31
ENDBRANCH  25  30
ENDBRANCH   1  29
TORSDOF 7
ENDMDL
MODEL 9
REMARK VINA RESULT:      -7.9      1.636      2.204
REMARK  Name = 
REMARK  8 active torsions:
REMARK  status: ('A' for Active; 'I' for Inactive)
REMARK    1  A    between atoms: C_1  and  O_2
REMARK    2  A    between atoms: O_2  and  C_3
REMARK    3  A    between atoms: C_3  and  C_4
REMARK    4  A    between atoms: C_4  and  N_5
REMARK    5  A    between atoms: C_9  and  C_10
REMARK    6  A    between atoms: C_10  and  C_11
REMARK    7  A    between atoms: C_10  and  N_21
REMARK    8  A    between atoms: N_24  and  C_25
REMARK                            x       y       z     vdW  Elec       q    Type
REMARK                         _______ _______ _______ _____ _____    ______ ____
ROOT
ATOM      1  C   UNL     1       3.587   5.701  18.770  0.00  0.00    +0.000 C 
ENDROOT
BRANCH   1   2
ATOM      2  C   UNL     1       4.744   5.528  17.801  0.00  0.00    +0.000 A 
ATOM      3  C   UNL     1       5.969   6.186  17.948  0.00  0.00    +0.000 A 
ATOM      4  C   UNL     1       6.964   6.067  16.979  0.00  0.00    +0.000 A 
ATOM      5  C   UNL     1       6.753   5.362  15.808  0.00  0.00    +0.000 A 
ATOM      6  N   UNL     1       7.708   5.332  14.866  0.00  0.00    +0.000 NA
ATOM      7  C   UNL     1       7.425   4.699  13.706  0.00  0.00    +0.000 A 
ATOM      8  C   UNL     1       6.224   4.069  13.433  0.00  0.00    +0.000 A 
ATOM      9  C   UNL     1       5.253   4.074  14.421  0.00  0.00    +0.000 A 
ATOM     10  C   UNL     1       5.508   4.729  15.627  0.00  0.00    +0.000 A 
ATOM     11  C   UNL     1       4.535   4.792  16.627  0.00  0.00    +0.000 A 
ENDBRANCH   1   2
BRANCH   1  12
ATOM     12  N   UNL     1       3.213   7.075  19.089  0.00  0.00    +0.000 NA
ATOM     13  C   UNL     1       3.118   8.029  17.983  0.00  0.00    +0.000 C 
ATOM     14  C   UNL     1       1.795   8.819  17.777  0.00  0.00    +0.000 C 
ATOM     15  N   UNL     1       1.060   9.047  19.026  0.00  0.00    +0.000 N 
ATOM     16  C   UNL     1       1.014   7.967  20.005  0.00  0.00    +0.000 C 
ATOM     17  C   UNL     1       2.403   7.368  20.259  0.00  0.00    +0.000 C 
BRANCH  15  18
ATOM     18  C   UNL     1       0.090  10.044  19.125  0.00  0.00    +0.000 A 
ATOM     19  C   UNL     1       0.123  11.011  20.150  0.00  0.00    +0.000 A 
ATOM     20  C   UNL     1      -0.683  12.154  20.113  0.00  0.00    +0.000 A 
ATOM     21  C   UNL     1      -1.568  12.345  19.058  0.00  0.00    +0.000 A 
ATOM     22  C   UNL     1      -1.680  11.367  18.073  0.00  0.00    +0.000 A 
ATOM     23  C   UNL     1      -0.870  10.231  18.119  0.00  0.00    +0.000 A 
ATOM     24  F   UNL     1      -0.964   9.361  17.100  0.00  0.00    +0.000 F 
ENDBRANCH  15  18
ENDBRANCH   1  12
BRANCH   1  29
ATOM     25  N   UNL     1       2.298   3.495  18.819  0.00  0.00    +0.000 N 
ATOM     26  N   UNL     1       1.197   2.965  18.249  0.00  0.00    +0.000 NA
ATOM     27  N   UNL     1       0.672   3.938  17.516  0.00  0.00    +0.000 NA
ATOM     28  N   UNL     1       1.427   5.074  17.599  0.00  0.00    +0.000 NA
ATOM     29  C   UNL     1       2.437   4.793  18.408  0.00  0.00    +0.000 A 
BRANCH  25  30
ATOM     30  C   UNL     1       2.924   2.802  19.927  0.00  0.00    +0.000 C 
BRANCH  30  31
ATOM     31  C   UNL     1       4.109   1.889  19.600  0.00  0.00    +0.000 C 
BRANCH  31  33
ATOM     32  C   UNL     1       5.405   0.864  21.351  0.00  0.00    +0.000 C 
ATOM     33  O   UNL     1       5.216   1.988  20.495  0.00  0.00    +0.000 OA
ENDBRANCH  31  33
ENDBRANCH  30  31
ENDBRANCH  25  30
ENDBRANCH   1  29
TORSDOF 7
ENDMDL
