MODEL 1
REMARK VINA RESULT:      -8.0      0.000      0.000
REMARK  Name = 
REMARK  5 active torsions:
REMARK  status: ('A' for Active; 'I' for Inactive)
REMARK    1  A    between atoms: C_1  and  C_2
REMARK    2  A    between atoms: C_5  and  C_6
REMARK    3  A    between atoms: C_6  and  O_7
REMARK    4  A    between atoms: C_6  and  C_8
REMARK    5  A    between atoms: C_10  and  C_11
REMARK                            x       y       z     vdW  Elec       q    Type
REMARK                         _______ _______ _______ _____ _____    ______ ____
ROOT
ATOM      1  C   UNL     1       5.431   5.840  17.683  0.00  0.00    +0.000 A 
ATOM      2  N   UNL     1       4.941   4.891  18.459  0.00  0.00    +0.000 NA
ATOM      3  C   UNL     1       3.653   5.278  18.757  0.00  0.00    +0.000 A 
ATOM      4  C   UNL     1       3.391   6.519  18.221  0.00  0.00    +0.000 A 
ATOM      5  N   UNL     1       4.537   6.877  17.579  0.00  0.00    +0.000 N 
ATOM      6  H   UNL     1       4.710   7.720  17.042  0.00  0.00    +0.000 HD
ENDROOT
BRANCH   3   7
ATOM      7  C   UNL     1       2.732   4.457  19.519  0.00  0.00    +0.000 A 
ATOM      8  C   UNL     1       2.959   4.248  20.887  0.00  0.00    +0.000 A 
ATOM      9  C   UNL     1       2.086   3.457  21.642  0.00  0.00    +0.000 A 
ATOM     10  C   UNL     1       0.983   2.857  21.034  0.00  0.00    +0.000 A 
ATOM     11  C   UNL     1       0.756   3.045  19.674  0.00  0.00    +0.000 A 
ATOM     12  C   UNL     1       1.625   3.839  18.926  0.00  0.00    +0.000 A 
ATOM     13  F   UNL     1       1.376   3.970  17.614  0.00  0.00    +0.000 F 
ENDBRANCH   3   7
BRANCH   1  14
ATOM     14  C   UNL     1       6.721   5.833  16.916  0.00  0.00    +0.000 C 
BRANCH  14  19
ATOM     15  C   UNL     1       6.448   3.170  11.718  0.00  0.00    +0.000 C 
ATOM     16  C   UNL     1       6.498   3.841  13.054  0.00  0.00    +0.000 A 
ATOM     17  C   UNL     1       5.687   3.415  14.108  0.00  0.00    +0.000 A 
ATOM     18  C   UNL     1       5.755   4.048  15.353  0.00  0.00    +0.000 A 
ATOM     19  C   UNL     1       6.647   5.111  15.581  0.00  0.00    +0.000 A 
ATOM     20  C   UNL     1       7.445   5.547  14.512  0.00  0.00    +0.000 A 
ATOM     21  C   UNL     1       7.369   4.911  13.274  0.00  0.00    +0.000 A 
ATOM     22  F   UNL     1       8.152   5.348  12.276  0.00  0.00    +0.000 F 
ENDBRANCH  14  19
BRANCH  14  23
ATOM     23  O   UNL     1       7.078   7.204  16.685  0.00  0.00    +0.000 OA
ATOM     24  H   UNL     1       7.598   7.496  17.455  0.00  0.00    +0.000 HD
ENDBRANCH  14  23
ENDBRANCH   1  14
TORSDOF 4
ENDMDL
MODEL 2
REMARK VINA RESULT:      -7.6      2.788      4.195
REMARK  Name = 
REMARK  5 active torsions:
REMARK  status: ('A' for Active; 'I' for Inactive)
REMARK    1  A    between atoms: C_1  and  C_2
REMARK    2  A    between atoms: C_5  and  C_6
REMARK    3  A    between atoms: C_6  and  O_7
REMARK    4  A    between atoms: C_6  and  C_8
REMARK    5  A    between atoms: C_10  and  C_11
REMARK                            x       y       z     vdW  Elec       q    Type
REMARK                         _______ _______ _______ _____ _____    ______ ____
ROOT
ATOM      1  C   UNL     1       3.596   4.547  18.929  0.00  0.00    +0.000 A 
ATOM      2  N   UNL     1       3.278   5.719  18.411  0.00  0.00    +0.000 NA
ATOM      3  C   UNL     1       2.527   6.362  19.370  0.00  0.00    +0.000 A 
ATOM      4  C   UNL     1       2.319   5.533  20.449  0.00  0.00    +0.000 A 
ATOM      5  N   UNL     1       2.967   4.377  20.139  0.00  0.00    +0.000 N 
ATOM      6  H   UNL     1       3.057   3.544  20.710  0.00  0.00    +0.000 HD
ENDROOT
BRANCH   3   7
ATOM      7  C   UNL     1       2.054   7.726  19.227  0.00  0.00    +0.000 A 
ATOM      8  C   UNL     1       2.247   8.403  18.014  0.00  0.00    +0.000 A 
ATOM      9  C   UNL     1       1.802   9.720  17.855  0.00  0.00    +0.000 A 
ATOM     10  C   UNL     1       1.171  10.378  18.910  0.00  0.00    +0.000 A 
ATOM     11  C   UNL     1       0.988   9.721  20.123  0.00  0.00    +0.000 A 
ATOM     12  C   UNL     1       1.427   8.407  20.277  0.00  0.00    +0.000 A 
ATOM     13  F   UNL     1       1.249   7.826  21.474  0.00  0.00    +0.000 F 
ENDBRANCH   3   7
BRANCH   1  14
ATOM     14  C   UNL     1       4.561   3.530  18.394  0.00  0.00    +0.000 C 
BRANCH  14  19
ATOM     15  C   UNL     1       7.543   5.223  13.659  0.00  0.00    +0.000 C 
ATOM     16  C   UNL     1       6.799   4.791  14.883  0.00  0.00    +0.000 A 
ATOM     17  C   UNL     1       7.358   4.931  16.155  0.00  0.00    +0.000 A 
ATOM     18  C   UNL     1       6.644   4.531  17.289  0.00  0.00    +0.000 A 
ATOM     19  C   UNL     1       5.348   3.997  17.180  0.00  0.00    +0.000 A 
ATOM     20  C   UNL     1       4.800   3.841  15.898  0.00  0.00    +0.000 A 
ATOM     21  C   UNL     1       5.520   4.241  14.774  0.00  0.00    +0.000 A 
ATOM     22  F   UNL     1       4.964   4.086  13.563  0.00  0.00    +0.000 F 
ENDBRANCH  14  19
BRANCH  14  23
ATOM     23  O   UNL     1       5.478   3.224  19.455  0.00  0.00    +0.000 OA
ATOM     24  H   UNL     1       6.323   3.653  19.231  0.00  0.00    +0.000 HD
ENDBRANCH  14  23
ENDBRANCH   1  14
TORSDOF 4
ENDMDL
MODEL 3
REMARK VINA RESULT:      -7.6      1.642      7.224
REMARK  Name = 
REMARK  5 active torsions:
REMARK  status: ('A' for Active; 'I' for Inactive)
REMARK    1  A    between atoms: C_1  and  C_2
REMARK    2  A    between atoms: C_5  and  C_6
REMARK    3  A    between atoms: C_6  and  O_7
REMARK    4  A    between atoms: C_6  and  C_8
REMARK    5  A    between atoms: C_10  and  C_11
REMARK                            x       y       z     vdW  Elec       q    Type
REMARK                         _______ _______ _______ _____ _____    ______ ____
ROOT
ATOM      1  C   UNL     1       5.490   5.474  17.278  0.00  0.00    +0.000 A 
ATOM      2  N   UNL     1       5.764   4.555  16.371  0.00  0.00    +0.000 NA
ATOM      3  C   UNL     1       5.679   5.192  15.153  0.00  0.00    +0.000 A 
ATOM      4  C   UNL     1       5.265   6.494  15.323  0.00  0.00    +0.000 A 
ATOM      5  N   UNL     1       5.112   6.645  16.668  0.00  0.00    +0.000 N 
ATOM      6  H   UNL     1       4.844   7.483  17.171  0.00  0.00    +0.000 HD
ENDROOT
BRANCH   3   7
ATOM      7  C   UNL     1       6.002   4.548  13.894  0.00  0.00    +0.000 A 
ATOM      8  C   UNL     1       5.086   3.657  13.317  0.00  0.00    +0.000 A 
ATOM      9  C   UNL     1       5.377   3.021  12.105  0.00  0.00    +0.000 A 
ATOM     10  C   UNL     1       6.592   3.261  11.463  0.00  0.00    +0.000 A 
ATOM     11  C   UNL     1       7.514   4.132  12.034  0.00  0.00    +0.000 A 
ATOM     12  C   UNL     1       7.219   4.768  13.239  0.00  0.00    +0.000 A 
ATOM     13  F   UNL     1       8.152   5.580  13.761  0.00  0.00    +0.000 F 
ENDBRANCH   3   7
BRANCH   1  14
ATOM     14  C   UNL     1       5.629   5.373  18.769  0.00  0.00    +0.000 C 
BRANCH  14  19
ATOM     15  C   UNL     1       1.205   2.676  21.479  0.00  0.00    +0.000 C 
ATOM     16  C   UNL     1       2.350   3.348  20.789  0.00  0.00    +0.000 A 
ATOM     17  C   UNL     1       3.471   2.623  20.376  0.00  0.00    +0.000 A 
ATOM     18  C   UNL     1       4.527   3.266  19.723  0.00  0.00    +0.000 A 
ATOM     19  C   UNL     1       4.482   4.645  19.453  0.00  0.00    +0.000 A 
ATOM     20  C   UNL     1       3.363   5.370  19.887  0.00  0.00    +0.000 A 
ATOM     21  C   UNL     1       2.316   4.722  20.539  0.00  0.00    +0.000 A 
ATOM     22  F   UNL     1       1.257   5.443  20.935  0.00  0.00    +0.000 F 
ENDBRANCH  14  19
BRANCH  14  23
ATOM     23  O   UNL     1       6.850   4.666  19.029  0.00  0.00    +0.000 OA
ATOM     24  H   UNL     1       7.022   4.738  19.985  0.00  0.00    +0.000 HD
ENDBRANCH  14  23
ENDBRANCH   1  14
TORSDOF 4
ENDMDL
MODEL 4
REMARK VINA RESULT:      -7.6      2.641      3.824
REMARK  Name = 
REMARK  5 active torsions:
REMARK  status: ('A' for Active; 'I' for Inactive)
REMARK    1  A    between atoms: C_1  and  C_2
REMARK    2  A    between atoms: C_5  and  C_6
REMARK    3  A    between atoms: C_6  and  O_7
REMARK    4  A    between atoms: C_6  and  C_8
REMARK    5  A    between atoms: C_10  and  C_11
REMARK                            x       y       z     vdW  Elec       q    Type
REMARK                         _______ _______ _______ _____ _____    ______ ____
ROOT
ATOM      1  C   UNL     1       4.025   4.849  18.754  0.00  0.00    +0.000 A 
ATOM      2  N   UNL     1       3.799   6.142  18.609  0.00  0.00    +0.000 NA
ATOM      3  C   UNL     1       2.594   6.385  19.230  0.00  0.00    +0.000 A 
ATOM      4  C   UNL     1       2.045   5.207  19.684  0.00  0.00    +0.000 A 
ATOM      5  N   UNL     1       2.942   4.241  19.341  0.00  0.00    +0.000 N 
ATOM      6  H   UNL     1       2.890   3.248  19.538  0.00  0.00    +0.000 HD
ENDROOT
BRANCH   3   7
ATOM      7  C   UNL     1       2.027   7.712  19.375  0.00  0.00    +0.000 A 
ATOM      8  C   UNL     1       1.458   8.092  20.600  0.00  0.00    +0.000 A 
ATOM      9  C   UNL     1       0.902   9.365  20.762  0.00  0.00    +0.000 A 
ATOM     10  C   UNL     1       0.897  10.268  19.699  0.00  0.00    +0.000 A 
ATOM     11  C   UNL     1       1.444   9.896  18.475  0.00  0.00    +0.000 A 
ATOM     12  C   UNL     1       2.003   8.629  18.318  0.00  0.00    +0.000 A 
ATOM     13  F   UNL     1       2.497   8.309  17.111  0.00  0.00    +0.000 F 
ENDBRANCH   3   7
BRANCH   1  14
ATOM     14  C   UNL     1       5.279   4.088  18.439  0.00  0.00    +0.000 C 
BRANCH  14  19
ATOM     15  C   UNL     1       7.392   5.048  13.072  0.00  0.00    +0.000 C 
ATOM     16  C   UNL     1       6.873   4.804  14.454  0.00  0.00    +0.000 A 
ATOM     17  C   UNL     1       7.664   5.054  15.578  0.00  0.00    +0.000 A 
ATOM     18  C   UNL     1       7.157   4.829  16.862  0.00  0.00    +0.000 A 
ATOM     19  C   UNL     1       5.844   4.366  17.055  0.00  0.00    +0.000 A 
ATOM     20  C   UNL     1       5.062   4.098  15.922  0.00  0.00    +0.000 A 
ATOM     21  C   UNL     1       5.575   4.323  14.646  0.00  0.00    +0.000 A 
ATOM     22  F   UNL     1       4.798   4.065  13.583  0.00  0.00    +0.000 F 
ENDBRANCH  14  19
BRANCH  14  23
ATOM     23  O   UNL     1       6.254   4.462  19.423  0.00  0.00    +0.000 OA
ATOM     24  H   UNL     1       6.337   3.712  20.039  0.00  0.00    +0.000 HD
ENDBRANCH  14  23
ENDBRANCH   1  14
TORSDOF 4
ENDMDL
MODEL 5
REMARK VINA RESULT:      -7.5      0.994      1.402
REMARK  Name = 
REMARK  5 active torsions:
REMARK  status: ('A' for Active; 'I' for Inactive)
REMARK    1  A    between atoms: C_1  and  C_2
REMARK    2  A    between atoms: C_5  and  C_6
REMARK    3  A    between atoms: C_6  and  O_7
REMARK    4  A    between atoms: C_6  and  C_8
REMARK    5  A    between atoms: C_10  and  C_11
REMARK                            x       y       z     vdW  Elec       q    Type
REMARK                         _______ _______ _______ _____ _____    ______ ____
ROOT
ATOM      1  C   UNL     1       5.346   5.776  17.530  0.00  0.00    +0.000 A 
ATOM      2  N   UNL     1       4.753   4.753  18.116  0.00  0.00    +0.000 NA
ATOM      3  C   UNL     1       3.474   5.174  18.404  0.00  0.00    +0.000 A 
ATOM      4  C   UNL     1       3.319   6.498  18.062  0.00  0.00    +0.000 A 
ATOM      5  N   UNL     1       4.522   6.875  17.547  0.00  0.00    +0.000 N 
ATOM      6  H   UNL     1       4.777   7.778  17.163  0.00  0.00    +0.000 HD
ENDROOT
BRANCH   3   7
ATOM      7  C   UNL     1       2.460   4.308  18.975  0.00  0.00    +0.000 A 
ATOM      8  C   UNL     1       1.829   3.353  18.165  0.00  0.00    +0.000 A 
ATOM      9  C   UNL     1       0.845   2.509  18.692  0.00  0.00    +0.000 A 
ATOM     10  C   UNL     1       0.474   2.619  20.032  0.00  0.00    +0.000 A 
ATOM     11  C   UNL     1       1.083   3.573  20.842  0.00  0.00    +0.000 A 
ATOM     12  C   UNL     1       2.067   4.408  20.315  0.00  0.00    +0.000 A 
ATOM     13  F   UNL     1       2.607   5.328  21.130  0.00  0.00    +0.000 F 
ENDBRANCH   3   7
BRANCH   1  14
ATOM     14  C   UNL     1       6.679   5.803  16.841  0.00  0.00    +0.000 C 
BRANCH  14  19
ATOM     15  C   UNL     1       6.712   3.402  11.509  0.00  0.00    +0.000 C 
ATOM     16  C   UNL     1       6.683   4.006  12.878  0.00  0.00    +0.000 A 
ATOM     17  C   UNL     1       5.798   3.543  13.854  0.00  0.00    +0.000 A 
ATOM     18  C   UNL     1       5.793   4.113  15.131  0.00  0.00    +0.000 A 
ATOM     19  C   UNL     1       6.683   5.148  15.469  0.00  0.00    +0.000 A 
ATOM     20  C   UNL     1       7.555   5.622  14.478  0.00  0.00    +0.000 A 
ATOM     21  C   UNL     1       7.552   5.049  13.207  0.00  0.00    +0.000 A 
ATOM     22  F   UNL     1       8.405   5.520  12.286  0.00  0.00    +0.000 F 
ENDBRANCH  14  19
BRANCH  14  23
ATOM     23  O   UNL     1       7.050   7.182  16.700  0.00  0.00    +0.000 OA
ATOM     24  H   UNL     1       6.978   7.587  17.582  0.00  0.00    +0.000 HD
ENDBRANCH  14  23
ENDBRANCH   1  14
TORSDOF 4
ENDMDL
MODEL 6
REMARK VINA RESULT:      -7.5      2.439      7.439
REMARK  Name = 
REMARK  5 active torsions:
REMARK  status: ('A' for Active; 'I' for Inactive)
REMARK    1  A    between atoms: C_1  and  C_2
REMARK    2  A    between atoms: C_5  and  C_6
REMARK    3  A    between atoms: C_6  and  O_7
REMARK    4  A    between atoms: C_6  and  C_8
REMARK    5  A    between atoms: C_10  and  C_11
REMARK                            x       y       z     vdW  Elec       q    Type
REMARK                         _______ _______ _______ _____ _____    ______ ____
ROOT
ATOM      1  C   UNL     1       4.193   4.048  17.343  0.00  0.00    +0.000 A 
ATOM      2  N   UNL     1       4.307   4.227  16.040  0.00  0.00    +0.000 NA
ATOM      3  C   UNL     1       5.656   4.167  15.770  0.00  0.00    +0.000 A 
ATOM      4  C   UNL     1       6.372   4.032  16.938  0.00  0.00    +0.000 A 
ATOM      5  N   UNL     1       5.435   3.997  17.926  0.00  0.00    +0.000 N 
ATOM      6  H   UNL     1       5.587   3.878  18.921  0.00  0.00    +0.000 HD
ENDROOT
BRANCH   3   7
ATOM      7  C   UNL     1       6.203   4.228  14.428  0.00  0.00    +0.000 A 
ATOM      8  C   UNL     1       5.667   3.408  13.424  0.00  0.00    +0.000 A 
ATOM      9  C   UNL     1       6.181   3.447  12.123  0.00  0.00    +0.000 A 
ATOM     10  C   UNL     1       7.242   4.297  11.815  0.00  0.00    +0.000 A 
ATOM     11  C   UNL     1       7.792   5.104  12.806  0.00  0.00    +0.000 A 
ATOM     12  C   UNL     1       7.274   5.067  14.100  0.00  0.00    +0.000 A 
ATOM     13  F   UNL     1       7.854   5.847  15.026  0.00  0.00    +0.000 F 
ENDBRANCH   3   7
BRANCH   1  14
ATOM     14  C   UNL     1       2.940   3.829  18.140  0.00  0.00    +0.000 C 
BRANCH  14  19
ATOM     15  C   UNL     1       1.276   8.582  21.110  0.00  0.00    +0.000 C 
ATOM     16  C   UNL     1       1.701   7.354  20.370  0.00  0.00    +0.000 A 
ATOM     17  C   UNL     1       1.569   6.085  20.939  0.00  0.00    +0.000 A 
ATOM     18  C   UNL     1       1.962   4.947  20.227  0.00  0.00    +0.000 A 
ATOM     19  C   UNL     1       2.480   5.047  18.924  0.00  0.00    +0.000 A 
ATOM     20  C   UNL     1       2.628   6.326  18.366  0.00  0.00    +0.000 A 
ATOM     21  C   UNL     1       2.236   7.454  19.083  0.00  0.00    +0.000 A 
ATOM     22  F   UNL     1       2.383   8.661  18.517  0.00  0.00    +0.000 F 
ENDBRANCH  14  19
BRANCH  14  23
ATOM     23  O   UNL     1       1.911   3.459  17.210  0.00  0.00    +0.000 OA
ATOM     24  H   UNL     1       1.108   3.282  17.731  0.00  0.00    +0.000 HD
ENDBRANCH  14  23
ENDBRANCH   1  14
TORSDOF 4
ENDMDL
MODEL 7
REMARK VINA RESULT:      -7.3      4.139      7.574
REMARK  Name = 
REMARK  5 active torsions:
REMARK  status: ('A' for Active; 'I' for Inactive)
REMARK    1  A    between atoms: C_1  and  C_2
REMARK    2  A    between atoms: C_5  and  C_6
REMARK    3  A    between atoms: C_6  and  O_7
REMARK    4  A    between atoms: C_6  and  C_8
REMARK    5  A    between atoms: C_10  and  C_11
REMARK                            x       y       z     vdW  Elec       q    Type
REMARK                         _______ _______ _______ _____ _____    ______ ____
ROOT
ATOM      1  C   UNL     1       2.359   7.811  17.758  0.00  0.00    +0.000 A 
ATOM      2  N   UNL     1       2.033   6.545  17.939  0.00  0.00    +0.000 NA
ATOM      3  C   UNL     1       3.217   5.842  17.901  0.00  0.00    +0.000 A 
ATOM      4  C   UNL     1       4.264   6.688  17.610  0.00  0.00    +0.000 A 
ATOM      5  N   UNL     1       3.701   7.921  17.484  0.00  0.00    +0.000 N 
ATOM      6  H   UNL     1       4.169   8.801  17.297  0.00  0.00    +0.000 HD
ENDROOT
BRANCH   3   7
ATOM      7  C   UNL     1       3.306   4.417  18.153  0.00  0.00    +0.000 A 
ATOM      8  C   UNL     1       2.434   3.541  17.489  0.00  0.00    +0.000 A 
ATOM      9  C   UNL     1       2.498   2.162  17.718  0.00  0.00    +0.000 A 
ATOM     10  C   UNL     1       3.426   1.646  18.622  0.00  0.00    +0.000 A 
ATOM     11  C   UNL     1       4.286   2.507  19.298  0.00  0.00    +0.000 A 
ATOM     12  C   UNL     1       4.223   3.879  19.063  0.00  0.00    +0.000 A 
ATOM     13  F   UNL     1       5.057   4.670  19.757  0.00  0.00    +0.000 F 
ENDBRANCH   3   7
BRANCH   1  14
ATOM     14  C   UNL     1       1.484   9.022  17.900  0.00  0.00    +0.000 C 
BRANCH  14  19
ATOM     15  C   UNL     1      -0.538  10.019  23.295  0.00  0.00    +0.000 C 
ATOM     16  C   UNL     1      -0.004   9.752  21.923  0.00  0.00    +0.000 A 
ATOM     17  C   UNL     1       0.961   8.766  21.703  0.00  0.00    +0.000 A 
ATOM     18  C   UNL     1       1.441   8.523  20.413  0.00  0.00    +0.000 A 
ATOM     19  C   UNL     1       0.959   9.248  19.308  0.00  0.00    +0.000 A 
ATOM     20  C   UNL     1       0.004  10.249  19.539  0.00  0.00    +0.000 A 
ATOM     21  C   UNL     1      -0.467  10.486  20.829  0.00  0.00    +0.000 A 
ATOM     22  F   UNL     1      -1.386  11.446  21.014  0.00  0.00    +0.000 F 
ENDBRANCH  14  19
BRANCH  14  23
ATOM     23  O   UNL     1       2.271  10.156  17.509  0.00  0.00    +0.000 OA
ATOM     24  H   UNL     1       3.202   9.930  17.686  0.00  0.00    +0.000 HD
ENDBRANCH  14  23
ENDBRANCH   1  14
TORSDOF 4
ENDMDL
MODEL 8
REMARK VINA RESULT:      -7.3      4.309      7.645
REMARK  Name = 
REMARK  5 active torsions:
REMARK  status: ('A' for Active; 'I' for Inactive)
REMARK    1  A    between atoms: C_1  and  C_2
REMARK    2  A    between atoms: C_5  and  C_6
REMARK    3  A    between atoms: C_6  and  O_7
REMARK    4  A    between atoms: C_6  and  C_8
REMARK    5  A    between atoms: C_10  and  C_11
REMARK                            x       y       z     vdW  Elec       q    Type
REMARK                         _______ _______ _______ _____ _____    ______ ____
ROOT
ATOM      1  C   UNL     1       1.997   8.115  17.887  0.00  0.00    +0.000 A 
ATOM      2  N   UNL     1       1.423   6.934  18.023  0.00  0.00    +0.000 NA
ATOM      3  C   UNL     1       2.452   6.033  18.185  0.00  0.00    +0.000 A 
ATOM      4  C   UNL     1       3.667   6.668  18.060  0.00  0.00    +0.000 A 
ATOM      5  N   UNL     1       3.362   7.976  17.833  0.00  0.00    +0.000 N 
ATOM      6  H   UNL     1       4.005   8.751  17.718  0.00  0.00    +0.000 HD
ENDROOT
BRANCH   3   7
ATOM      7  C   UNL     1       2.240   4.625  18.459  0.00  0.00    +0.000 A 
ATOM      8  C   UNL     1       2.654   3.667  17.523  0.00  0.00    +0.000 A 
ATOM      9  C   UNL     1       2.457   2.302  17.764  0.00  0.00    +0.000 A 
ATOM     10  C   UNL     1       1.834   1.882  18.939  0.00  0.00    +0.000 A 
ATOM     11  C   UNL     1       1.405   2.825  19.869  0.00  0.00    +0.000 A 
ATOM     12  C   UNL     1       1.608   4.183  19.628  0.00  0.00    +0.000 A 
ATOM     13  F   UNL     1       1.155   5.054  20.544  0.00  0.00    +0.000 F 
ENDBRANCH   3   7
BRANCH   1  14
ATOM     14  C   UNL     1       1.343   9.466  17.874  0.00  0.00    +0.000 C 
BRANCH  14  19
ATOM     15  C   UNL     1      -1.065  10.879  23.012  0.00  0.00    +0.000 C 
ATOM     16  C   UNL     1      -0.465  10.529  21.687  0.00  0.00    +0.000 A 
ATOM     17  C   UNL     1      -0.865  11.182  20.517  0.00  0.00    +0.000 A 
ATOM     18  C   UNL     1      -0.286  10.848  19.289  0.00  0.00    +0.000 A 
ATOM     19  C   UNL     1       0.717   9.866  19.201  0.00  0.00    +0.000 A 
ATOM     20  C   UNL     1       1.100   9.202  20.375  0.00  0.00    +0.000 A 
ATOM     21  C   UNL     1       0.516   9.539  21.595  0.00  0.00    +0.000 A 
ATOM     22  F   UNL     1       0.910   8.890  22.700  0.00  0.00    +0.000 F 
ENDBRANCH  14  19
BRANCH  14  23
ATOM     23  O   UNL     1       2.359  10.420  17.532  0.00  0.00    +0.000 OA
ATOM     24  H   UNL     1       2.384  10.472  16.560  0.00  0.00    +0.000 HD
ENDBRANCH  14  23
ENDBRANCH   1  14
TORSDOF 4
ENDMDL
MODEL 9
REMARK VINA RESULT:      -7.3      1.515      1.700
REMARK  Name = 
REMARK  5 active torsions:
REMARK  status: ('A' for Active; 'I' for Inactive)
REMARK    1  A    between atoms: C_1  and  C_2
REMARK    2  A    between atoms: C_5  and  C_6
REMARK    3  A    between atoms: C_6  and  O_7
REMARK    4  A    between atoms: C_6  and  C_8
REMARK    5  A    between atoms: C_10  and  C_11
REMARK                            x       y       z     vdW  Elec       q    Type
REMARK                         _______ _______ _______ _____ _____    ______ ____
ROOT
ATOM      1  C   UNL     1       6.544   4.824  17.580  0.00  0.00    +0.000 A 
ATOM      2  N   UNL     1       5.354   4.261  17.677  0.00  0.00    +0.000 NA
ATOM      3  C   UNL     1       4.951   4.457  18.980  0.00  0.00    +0.000 A 
ATOM      4  C   UNL     1       5.948   5.075  19.700  0.00  0.00    +0.000 A 
ATOM      5  N   UNL     1       6.963   5.264  18.812  0.00  0.00    +0.000 N 
ATOM      6  H   UNL     1       7.855   5.718  18.977  0.00  0.00    +0.000 HD
ENDROOT
BRANCH   3   7
ATOM      7  C   UNL     1       3.646   4.066  19.477  0.00  0.00    +0.000 A 
ATOM      8  C   UNL     1       2.802   5.032  20.044  0.00  0.00    +0.000 A 
ATOM      9  C   UNL     1       1.540   4.677  20.534  0.00  0.00    +0.000 A 
ATOM     10  C   UNL     1       1.113   3.351  20.471  0.00  0.00    +0.000 A 
ATOM     11  C   UNL     1       1.948   2.381  19.924  0.00  0.00    +0.000 A 
ATOM     12  C   UNL     1       3.202   2.739  19.432  0.00  0.00    +0.000 A 
ATOM     13  F   UNL     1       3.980   1.763  18.936  0.00  0.00    +0.000 F 
ENDBRANCH   3   7
BRANCH   1  14
ATOM     14  C   UNL     1       7.352   5.071  16.340  0.00  0.00    +0.000 C 
BRANCH  14  19
ATOM     15  C   UNL     1       4.924   3.175  11.370  0.00  0.00    +0.000 C 
ATOM     16  C   UNL     1       5.525   3.658  12.652  0.00  0.00    +0.000 A 
ATOM     17  C   UNL     1       4.844   3.527  13.864  0.00  0.00    +0.000 A 
ATOM     18  C   UNL     1       5.426   3.975  15.054  0.00  0.00    +0.000 A 
ATOM     19  C   UNL     1       6.708   4.551  15.064  0.00  0.00    +0.000 A 
ATOM     20  C   UNL     1       7.379   4.698  13.841  0.00  0.00    +0.000 A 
ATOM     21  C   UNL     1       6.791   4.250  12.660  0.00  0.00    +0.000 A 
ATOM     22  F   UNL     1       7.462   4.398  11.508  0.00  0.00    +0.000 F 
ENDBRANCH  14  19
BRANCH  14  23
ATOM     23  O   UNL     1       7.524   6.492  16.229  0.00  0.00    +0.000 OA
ATOM     24  H   UNL     1       6.888   6.803  15.560  0.00  0.00    +0.000 HD
ENDBRANCH  14  23
ENDBRANCH   1  14
TORSDOF 4
ENDMDL
