MODEL 1
REMARK VINA RESULT:      -6.5      0.000      0.000
REMARK  Name = 
REMARK  11 active torsions:
REMARK  status: ('A' for Active; 'I' for Inactive)
REMARK    1  A    between atoms: C_1  and  O_2
REMARK    2  A    between atoms: O_2  and  C_3
REMARK    3  A    between atoms: C_6  and  C_7
REMARK    4  A    between atoms: C_8  and  C_9
REMARK    5  A    between atoms: C_11  and  O_12
REMARK    6  A    between atoms: O_12  and  C_13
REMARK    7  A    between atoms: C_15  and  O_16
REMARK    8  A    between atoms: O_16  and  C_17
REMARK    9  A    between atoms: C_18  and  C_19
REMARK   10  A    between atoms: C_20  and  C_21
REMARK   11  A    between atoms: C_27  and  C_28
REMARK                            x       y       z     vdW  Elec       q    Type
REMARK                         _______ _______ _______ _____ _____    ______ ____
ROOT
ATOM      1  C   UNL     1       2.108   8.307  18.761  0.00  0.00    +0.000 A 
ATOM      2  C   UNL     1       2.027   9.620  18.267  0.00  0.00    +0.000 A 
ATOM      3  C   UNL     1       1.311  10.599  18.950  0.00  0.00    +0.000 A 
ATOM      4  C   UNL     1       0.645  10.258  20.124  0.00  0.00    +0.000 A 
ATOM      5  C   UNL     1       0.687   8.947  20.633  0.00  0.00    +0.000 A 
ATOM      6  C   UNL     1       1.450   7.953  19.974  0.00  0.00    +0.000 A 
ENDROOT
BRANCH   1   8
ATOM      7  C   UNL     1       4.268   7.454  17.902  0.00  0.00    +0.000 C 
ATOM      8  C   UNL     1       2.930   7.355  17.985  0.00  0.00    +0.000 C 
BRANCH   7  12
ATOM      9  C   UNL     1       6.593   4.947  15.281  0.00  0.00    +0.000 A 
ATOM     10  C   UNL     1       5.626   5.823  14.789  0.00  0.00    +0.000 A 
ATOM     11  C   UNL     1       4.905   6.660  15.649  0.00  0.00    +0.000 A 
ATOM     12  C   UNL     1       5.116   6.614  17.033  0.00  0.00    +0.000 A 
ATOM     13  C   UNL     1       6.115   5.762  17.519  0.00  0.00    +0.000 A 
ATOM     14  C   UNL     1       6.853   4.937  16.654  0.00  0.00    +0.000 A 
BRANCH   9  16
ATOM     15  C   UNL     1       6.389   3.820  13.193  0.00  0.00    +0.000 C 
ATOM     16  O   UNL     1       7.164   4.140  14.340  0.00  0.00    +0.000 OA
ENDBRANCH   9  16
ENDBRANCH   7  12
ENDBRANCH   1   8
BRANCH   3  17
ATOM     17  O   UNL     1       1.340  11.847  18.385  0.00  0.00    +0.000 OA
ATOM     18  C   UNL     1       2.139  12.833  19.031  0.00  0.00    +0.000 C 
ENDBRANCH   3  17
BRANCH   5  19
ATOM     19  O   UNL     1       0.024   8.601  21.791  0.00  0.00    +0.000 OA
ATOM     20  C   UNL     1      -0.032   9.591  22.816  0.00  0.00    +0.000 C 
ENDBRANCH   5  19
BRANCH   6  21
ATOM     21  C   UNL     1       1.553   6.546  20.443  0.00  0.00    +0.000 C 
ATOM     22  C   UNL     1       2.640   5.877  20.867  0.00  0.00    +0.000 C 
BRANCH  22  23
ATOM     23  C   UNL     1       2.503   4.411  21.130  0.00  0.00    +0.000 C 
ATOM     24  O   UNL     1       2.117   4.029  22.235  0.00  0.00    +0.000 OA
ATOM     25  N   UNL     1       2.773   3.530  20.100  0.00  0.00    +0.000 N 
ATOM     26  C   UNL     1       2.509   2.101  20.302  0.00  0.00    +0.000 C 
ATOM     27  C   UNL     1       1.674   1.533  19.154  0.00  0.00    +0.000 C 
ATOM     28  C   UNL     1       2.266   1.884  17.786  0.00  0.00    +0.000 C 
ATOM     29  C   UNL     1       2.532   3.395  17.674  0.00  0.00    +0.000 C 
ATOM     30  C   UNL     1       3.164   3.757  16.336  0.00  0.00    +0.000 C 
ATOM     31  C   UNL     1       3.421   3.851  18.832  0.00  0.00    +0.000 C 
ENDBRANCH  22  23
ENDBRANCH   6  21
TORSDOF 7
ENDMDL
MODEL 2
REMARK VINA RESULT:      -6.4      7.058      9.573
REMARK  Name = 
REMARK  11 active torsions:
REMARK  status: ('A' for Active; 'I' for Inactive)
REMARK    1  A    between atoms: C_1  and  O_2
REMARK    2  A    between atoms: O_2  and  C_3
REMARK    3  A    between atoms: C_6  and  C_7
REMARK    4  A    between atoms: C_8  and  C_9
REMARK    5  A    between atoms: C_11  and  O_12
REMARK    6  A    between atoms: O_12  and  C_13
REMARK    7  A    between atoms: C_15  and  O_16
REMARK    8  A    between atoms: O_16  and  C_17
REMARK    9  A    between atoms: C_18  and  C_19
REMARK   10  A    between atoms: C_20  and  C_21
REMARK   11  A    between atoms: C_27  and  C_28
REMARK                            x       y       z     vdW  Elec       q    Type
REMARK                         _______ _______ _______ _____ _____    ______ ____
ROOT
ATOM      1  C   UNL     1       9.842  11.330  19.368  0.00  0.00    +0.000 A 
ATOM      2  C   UNL     1      10.592  11.662  18.227  0.00  0.00    +0.000 A 
ATOM      3  C   UNL     1      11.298  12.859  18.157  0.00  0.00    +0.000 A 
ATOM      4  C   UNL     1      11.233  13.748  19.227  0.00  0.00    +0.000 A 
ATOM      5  C   UNL     1      10.474  13.456  20.375  0.00  0.00    +0.000 A 
ATOM      6  C   UNL     1       9.789  12.221  20.478  0.00  0.00    +0.000 A 
ENDROOT
BRANCH   1   8
ATOM      7  C   UNL     1       8.857   9.369  18.221  0.00  0.00    +0.000 C 
ATOM      8  C   UNL     1       9.166  10.016  19.359  0.00  0.00    +0.000 C 
BRANCH   7  12
ATOM      9  C   UNL     1       6.393   5.839  18.039  0.00  0.00    +0.000 A 
ATOM     10  C   UNL     1       6.163   6.937  17.210  0.00  0.00    +0.000 A 
ATOM     11  C   UNL     1       6.995   8.061  17.253  0.00  0.00    +0.000 A 
ATOM     12  C   UNL     1       8.064   8.125  18.156  0.00  0.00    +0.000 A 
ATOM     13  C   UNL     1       8.315   7.006  18.960  0.00  0.00    +0.000 A 
ATOM     14  C   UNL     1       7.492   5.869  18.902  0.00  0.00    +0.000 A 
BRANCH   9  16
ATOM     15  C   UNL     1       4.863   4.628  16.674  0.00  0.00    +0.000 C 
ATOM     16  O   UNL     1       5.461   4.846  17.944  0.00  0.00    +0.000 OA
ENDBRANCH   9  16
ENDBRANCH   7  12
ENDBRANCH   1   8
BRANCH   3  17
ATOM     17  O   UNL     1      12.019  13.048  17.008  0.00  0.00    +0.000 OA
ATOM     18  C   UNL     1      12.333  14.391  16.652  0.00  0.00    +0.000 C 
ENDBRANCH   3  17
BRANCH   5  19
ATOM     19  O   UNL     1      10.400  14.334  21.434  0.00  0.00    +0.000 OA
ATOM     20  C   UNL     1      10.868  15.661  21.198  0.00  0.00    +0.000 C 
ENDBRANCH   5  19
BRANCH   6  21
ATOM     21  C   UNL     1       8.967  11.829  21.653  0.00  0.00    +0.000 C 
ATOM     22  C   UNL     1       7.977  12.512  22.254  0.00  0.00    +0.000 C 
BRANCH  22  23
ATOM     23  C   UNL     1       7.418  11.962  23.527  0.00  0.00    +0.000 C 
ATOM     24  O   UNL     1       7.872  10.913  23.984  0.00  0.00    +0.000 OA
ATOM     25  N   UNL     1       6.432  12.681  24.178  0.00  0.00    +0.000 N 
ATOM     26  C   UNL     1       5.975  12.225  25.496  0.00  0.00    +0.000 C 
ATOM     27  C   UNL     1       6.000  13.371  26.507  0.00  0.00    +0.000 C 
ATOM     28  C   UNL     1       5.283  14.617  25.981  0.00  0.00    +0.000 C 
ATOM     29  C   UNL     1       5.809  15.006  24.589  0.00  0.00    +0.000 C 
ATOM     30  C   UNL     1       5.075  16.217  24.028  0.00  0.00    +0.000 C 
ATOM     31  C   UNL     1       5.686  13.813  23.638  0.00  0.00    +0.000 C 
ENDBRANCH  22  23
ENDBRANCH   6  21
TORSDOF 7
ENDMDL
MODEL 3
REMARK VINA RESULT:      -6.4      7.045      9.569
REMARK  Name = 
REMARK  11 active torsions:
REMARK  status: ('A' for Active; 'I' for Inactive)
REMARK    1  A    between atoms: C_1  and  O_2
REMARK    2  A    between atoms: O_2  and  C_3
REMARK    3  A    between atoms: C_6  and  C_7
REMARK    4  A    between atoms: C_8  and  C_9
REMARK    5  A    between atoms: C_11  and  O_12
REMARK    6  A    between atoms: O_12  and  C_13
REMARK    7  A    between atoms: C_15  and  O_16
REMARK    8  A    between atoms: O_16  and  C_17
REMARK    9  A    between atoms: C_18  and  C_19
REMARK   10  A    between atoms: C_20  and  C_21
REMARK   11  A    between atoms: C_27  and  C_28
REMARK                            x       y       z     vdW  Elec       q    Type
REMARK                         _______ _______ _______ _____ _____    ______ ____
ROOT
ATOM      1  C   UNL     1       9.686  11.493  19.261  0.00  0.00    +0.000 A 
ATOM      2  C   UNL     1      10.348  11.897  18.089  0.00  0.00    +0.000 A 
ATOM      3  C   UNL     1      10.924  13.159  17.990  0.00  0.00    +0.000 A 
ATOM      4  C   UNL     1      10.817  14.039  19.064  0.00  0.00    +0.000 A 
ATOM      5  C   UNL     1      10.142  13.674  20.243  0.00  0.00    +0.000 A 
ATOM      6  C   UNL     1       9.591  12.377  20.374  0.00  0.00    +0.000 A 
ENDROOT
BRANCH   1   8
ATOM      7  C   UNL     1       8.693   9.503  18.172  0.00  0.00    +0.000 C 
ATOM      8  C   UNL     1       9.147  10.116  19.279  0.00  0.00    +0.000 C 
BRANCH   7  12
ATOM      9  C   UNL     1       6.900   5.586  18.151  0.00  0.00    +0.000 A 
ATOM     10  C   UNL     1       7.867   5.943  19.089  0.00  0.00    +0.000 A 
ATOM     11  C   UNL     1       8.413   7.232  19.108  0.00  0.00    +0.000 A 
ATOM     12  C   UNL     1       8.023   8.187  18.162  0.00  0.00    +0.000 A 
ATOM     13  C   UNL     1       7.023   7.837  17.246  0.00  0.00    +0.000 A 
ATOM     14  C   UNL     1       6.460   6.550  17.240  0.00  0.00    +0.000 A 
BRANCH   9  16
ATOM     15  C   UNL     1       5.191   4.003  18.648  0.00  0.00    +0.000 C 
ATOM     16  O   UNL     1       6.511   4.278  18.201  0.00  0.00    +0.000 OA
ENDBRANCH   9  16
ENDBRANCH   7  12
ENDBRANCH   1   8
BRANCH   3  17
ATOM     17  O   UNL     1      11.571  13.418  16.811  0.00  0.00    +0.000 OA
ATOM     18  C   UNL     1      12.333  14.619  16.738  0.00  0.00    +0.000 C 
ENDBRANCH   3  17
BRANCH   5  19
ATOM     19  O   UNL     1      10.026  14.543  21.306  0.00  0.00    +0.000 OA
ATOM     20  C   UNL     1      10.976  15.606  21.371  0.00  0.00    +0.000 C 
ENDBRANCH   5  19
BRANCH   6  21
ATOM     21  C   UNL     1       8.866  11.906  21.584  0.00  0.00    +0.000 C 
ATOM     22  C   UNL     1       7.959  12.561  22.330  0.00  0.00    +0.000 C 
BRANCH  22  23
ATOM     23  C   UNL     1       7.499  11.917  23.599  0.00  0.00    +0.000 C 
ATOM     24  O   UNL     1       8.039  10.879  23.981  0.00  0.00    +0.000 OA
ATOM     25  N   UNL     1       6.504  12.540  24.329  0.00  0.00    +0.000 N 
ATOM     26  C   UNL     1       6.141  11.994  25.642  0.00  0.00    +0.000 C 
ATOM     27  C   UNL     1       6.145  13.091  26.707  0.00  0.00    +0.000 C 
ATOM     28  C   UNL     1       5.326  14.312  26.277  0.00  0.00    +0.000 C 
ATOM     29  C   UNL     1       5.758  14.798  24.883  0.00  0.00    +0.000 C 
ATOM     30  C   UNL     1       4.923  15.984  24.418  0.00  0.00    +0.000 C 
ATOM     31  C   UNL     1       5.663  13.645  23.881  0.00  0.00    +0.000 C 
ENDBRANCH  22  23
ENDBRANCH   6  21
TORSDOF 7
ENDMDL
MODEL 4
REMARK VINA RESULT:      -6.4      4.535      9.326
REMARK  Name = 
REMARK  11 active torsions:
REMARK  status: ('A' for Active; 'I' for Inactive)
REMARK    1  A    between atoms: C_1  and  O_2
REMARK    2  A    between atoms: O_2  and  C_3
REMARK    3  A    between atoms: C_6  and  C_7
REMARK    4  A    between atoms: C_8  and  C_9
REMARK    5  A    between atoms: C_11  and  O_12
REMARK    6  A    between atoms: O_12  and  C_13
REMARK    7  A    between atoms: C_15  and  O_16
REMARK    8  A    between atoms: O_16  and  C_17
REMARK    9  A    between atoms: C_18  and  C_19
REMARK   10  A    between atoms: C_20  and  C_21
REMARK   11  A    between atoms: C_27  and  C_28
REMARK                            x       y       z     vdW  Elec       q    Type
REMARK                         _______ _______ _______ _____ _____    ______ ____
ROOT
ATOM      1  C   UNL     1      -0.870  12.115  22.254  0.00  0.00    +0.000 A 
ATOM      2  C   UNL     1      -1.902  11.531  23.009  0.00  0.00    +0.000 A 
ATOM      3  C   UNL     1      -2.902  12.312  23.580  0.00  0.00    +0.000 A 
ATOM      4  C   UNL     1      -2.857  13.694  23.419  0.00  0.00    +0.000 A 
ATOM      5  C   UNL     1      -1.826  14.312  22.688  0.00  0.00    +0.000 A 
ATOM      6  C   UNL     1      -0.828  13.525  22.063  0.00  0.00    +0.000 A 
ENDROOT
BRANCH   1   8
ATOM      7  C   UNL     1      -0.131  10.496  20.531  0.00  0.00    +0.000 C 
ATOM      8  C   UNL     1       0.117  11.192  21.655  0.00  0.00    +0.000 C 
BRANCH   7  12
ATOM      9  C   UNL     1       2.369   7.467  18.761  0.00  0.00    +0.000 A 
ATOM     10  C   UNL     1       1.866   8.531  18.013  0.00  0.00    +0.000 A 
ATOM     11  C   UNL     1       1.087   9.529  18.610  0.00  0.00    +0.000 A 
ATOM     12  C   UNL     1       0.765   9.465  19.971  0.00  0.00    +0.000 A 
ATOM     13  C   UNL     1       1.304   8.417  20.727  0.00  0.00    +0.000 A 
ATOM     14  C   UNL     1       2.103   7.426  20.132  0.00  0.00    +0.000 A 
BRANCH   9  16
ATOM     15  C   UNL     1       2.469   5.236  17.931  0.00  0.00    +0.000 C 
ATOM     16  O   UNL     1       3.048   6.530  18.037  0.00  0.00    +0.000 OA
ENDBRANCH   9  16
ENDBRANCH   7  12
ENDBRANCH   1   8
BRANCH   3  17
ATOM     17  O   UNL     1      -3.870  11.621  24.259  0.00  0.00    +0.000 OA
ATOM     18  C   UNL     1      -4.951  12.377  24.795  0.00  0.00    +0.000 C 
ENDBRANCH   3  17
BRANCH   5  19
ATOM     19  O   UNL     1      -1.772  15.680  22.531  0.00  0.00    +0.000 OA
ATOM     20  C   UNL     1      -2.258  16.468  23.616  0.00  0.00    +0.000 C 
ENDBRANCH   5  19
BRANCH   6  21
ATOM     21  C   UNL     1       0.294  14.093  21.271  0.00  0.00    +0.000 C 
ATOM     22  C   UNL     1       0.398  14.232  19.937  0.00  0.00    +0.000 C 
BRANCH  22  23
ATOM     23  C   UNL     1       1.709  14.686  19.379  0.00  0.00    +0.000 C 
ATOM     24  O   UNL     1       2.663  13.908  19.367  0.00  0.00    +0.000 OA
ATOM     25  N   UNL     1       1.793  15.961  18.850  0.00  0.00    +0.000 N 
ATOM     26  C   UNL     1       3.031  16.368  18.176  0.00  0.00    +0.000 C 
ATOM     27  C   UNL     1       2.731  16.959  16.798  0.00  0.00    +0.000 C 
ATOM     28  C   UNL     1       1.653  18.045  16.862  0.00  0.00    +0.000 C 
ATOM     29  C   UNL     1       0.406  17.538  17.605  0.00  0.00    +0.000 C 
ATOM     30  C   UNL     1      -0.660  18.620  17.719  0.00  0.00    +0.000 C 
ATOM     31  C   UNL     1       0.803  17.023  18.990  0.00  0.00    +0.000 C 
ENDBRANCH  22  23
ENDBRANCH   6  21
TORSDOF 7
ENDMDL
MODEL 5
REMARK VINA RESULT:      -6.3      6.170      9.270
REMARK  Name = 
REMARK  11 active torsions:
REMARK  status: ('A' for Active; 'I' for Inactive)
REMARK    1  A    between atoms: C_1  and  O_2
REMARK    2  A    between atoms: O_2  and  C_3
REMARK    3  A    between atoms: C_6  and  C_7
REMARK    4  A    between atoms: C_8  and  C_9
REMARK    5  A    between atoms: C_11  and  O_12
REMARK    6  A    between atoms: O_12  and  C_13
REMARK    7  A    between atoms: C_15  and  O_16
REMARK    8  A    between atoms: O_16  and  C_17
REMARK    9  A    between atoms: C_18  and  C_19
REMARK   10  A    between atoms: C_20  and  C_21
REMARK   11  A    between atoms: C_27  and  C_28
REMARK                            x       y       z     vdW  Elec       q    Type
REMARK                         _______ _______ _______ _____ _____    ______ ____
ROOT
ATOM      1  C   UNL     1      -4.321  13.836  21.255  0.00  0.00    +0.000 A 
ATOM      2  C   UNL     1      -5.305  14.838  21.192  0.00  0.00    +0.000 A 
ATOM      3  C   UNL     1      -5.773  15.454  22.349  0.00  0.00    +0.000 A 
ATOM      4  C   UNL     1      -5.275  15.048  23.583  0.00  0.00    +0.000 A 
ATOM      5  C   UNL     1      -4.307  14.032  23.682  0.00  0.00    +0.000 A 
ATOM      6  C   UNL     1      -3.788  13.429  22.511  0.00  0.00    +0.000 A 
ENDROOT
BRANCH   1   8
ATOM      7  C   UNL     1      -4.394  12.166  19.428  0.00  0.00    +0.000 C 
ATOM      8  C   UNL     1      -3.861  13.277  19.966  0.00  0.00    +0.000 C 
BRANCH   7  12
ATOM      9  C   UNL     1      -3.061  10.155  15.858  0.00  0.00    +0.000 A 
ATOM     10  C   UNL     1      -4.142  11.036  15.842  0.00  0.00    +0.000 A 
ATOM     11  C   UNL     1      -4.539  11.712  17.002  0.00  0.00    +0.000 A 
ATOM     12  C   UNL     1      -3.879  11.494  18.218  0.00  0.00    +0.000 A 
ATOM     13  C   UNL     1      -2.770  10.639  18.221  0.00  0.00    +0.000 A 
ATOM     14  C   UNL     1      -2.358   9.977  17.053  0.00  0.00    +0.000 A 
BRANCH   9  16
ATOM     15  C   UNL     1      -3.560   9.951  13.538  0.00  0.00    +0.000 C 
ATOM     16  O   UNL     1      -2.832   9.511  14.676  0.00  0.00    +0.000 OA
ENDBRANCH   9  16
ENDBRANCH   7  12
ENDBRANCH   1   8
BRANCH   3  17
ATOM     17  O   UNL     1      -6.703  16.441  22.151  0.00  0.00    +0.000 OA
ATOM     18  C   UNL     1      -6.566  17.626  22.928  0.00  0.00    +0.000 C 
ENDBRANCH   3  17
BRANCH   5  19
ATOM     19  O   UNL     1      -3.815  13.620  24.902  0.00  0.00    +0.000 OA
ATOM     20  C   UNL     1      -2.986  14.545  25.603  0.00  0.00    +0.000 C 
ENDBRANCH   5  19
BRANCH   6  21
ATOM     21  C   UNL     1      -2.762  12.353  22.522  0.00  0.00    +0.000 C 
ATOM     22  C   UNL     1      -1.497  12.400  22.976  0.00  0.00    +0.000 C 
BRANCH  22  23
ATOM     23  C   UNL     1      -0.616  11.219  22.719  0.00  0.00    +0.000 C 
ATOM     24  O   UNL     1      -0.662  10.253  23.480  0.00  0.00    +0.000 OA
ATOM     25  N   UNL     1       0.195  11.235  21.599  0.00  0.00    +0.000 N 
ATOM     26  C   UNL     1       0.959  10.028  21.260  0.00  0.00    +0.000 C 
ATOM     27  C   UNL     1       0.743   9.640  19.797  0.00  0.00    +0.000 C 
ATOM     28  C   UNL     1       0.968  10.823  18.851  0.00  0.00    +0.000 C 
ATOM     29  C   UNL     1       0.149  12.046  19.296  0.00  0.00    +0.000 C 
ATOM     30  C   UNL     1       0.395  13.248  18.393  0.00  0.00    +0.000 C 
ATOM     31  C   UNL     1       0.479  12.387  20.751  0.00  0.00    +0.000 C 
ENDBRANCH  22  23
ENDBRANCH   6  21
TORSDOF 7
ENDMDL
MODEL 6
REMARK VINA RESULT:      -6.3      3.643      7.607
REMARK  Name = 
REMARK  11 active torsions:
REMARK  status: ('A' for Active; 'I' for Inactive)
REMARK    1  A    between atoms: C_1  and  O_2
REMARK    2  A    between atoms: O_2  and  C_3
REMARK    3  A    between atoms: C_6  and  C_7
REMARK    4  A    between atoms: C_8  and  C_9
REMARK    5  A    between atoms: C_11  and  O_12
REMARK    6  A    between atoms: O_12  and  C_13
REMARK    7  A    between atoms: C_15  and  O_16
REMARK    8  A    between atoms: O_16  and  C_17
REMARK    9  A    between atoms: C_18  and  C_19
REMARK   10  A    between atoms: C_20  and  C_21
REMARK   11  A    between atoms: C_27  and  C_28
REMARK                            x       y       z     vdW  Elec       q    Type
REMARK                         _______ _______ _______ _____ _____    ______ ____
ROOT
ATOM      1  C   UNL     1       0.335  10.226  18.356  0.00  0.00    +0.000 A 
ATOM      2  C   UNL     1      -0.734   9.624  17.671  0.00  0.00    +0.000 A 
ATOM      3  C   UNL     1      -1.917  10.320  17.438  0.00  0.00    +0.000 A 
ATOM      4  C   UNL     1      -2.044  11.621  17.918  0.00  0.00    +0.000 A 
ATOM      5  C   UNL     1      -1.001  12.244  18.627  0.00  0.00    +0.000 A 
ATOM      6  C   UNL     1       0.225  11.564  18.830  0.00  0.00    +0.000 A 
ENDROOT
BRANCH   1   8
ATOM      7  C   UNL     1       1.719   8.219  17.921  0.00  0.00    +0.000 C 
ATOM      8  C   UNL     1       1.563   9.417  18.511  0.00  0.00    +0.000 C 
BRANCH   7  12
ATOM      9  C   UNL     1       5.059   5.544  18.426  0.00  0.00    +0.000 A 
ATOM     10  C   UNL     1       5.042   6.513  17.424  0.00  0.00    +0.000 A 
ATOM     11  C   UNL     1       3.967   7.401  17.296  0.00  0.00    +0.000 A 
ATOM     12  C   UNL     1       2.864   7.316  18.154  0.00  0.00    +0.000 A 
ATOM     13  C   UNL     1       2.902   6.367  19.183  0.00  0.00    +0.000 A 
ATOM     14  C   UNL     1       3.990   5.489  19.325  0.00  0.00    +0.000 A 
BRANCH   9  16
ATOM     15  C   UNL     1       6.969   4.758  17.241  0.00  0.00    +0.000 C 
ATOM     16  O   UNL     1       6.131   4.700  18.387  0.00  0.00    +0.000 OA
ENDBRANCH   9  16
ENDBRANCH   7  12
ENDBRANCH   1   8
BRANCH   3  17
ATOM     17  O   UNL     1      -2.869   9.637  16.729  0.00  0.00    +0.000 OA
ATOM     18  C   UNL     1      -3.042   9.998  15.362  0.00  0.00    +0.000 C 
ENDBRANCH   3  17
BRANCH   5  19
ATOM     19  O   UNL     1      -1.123  13.528  19.110  0.00  0.00    +0.000 OA
ATOM     20  C   UNL     1      -2.056  13.726  20.172  0.00  0.00    +0.000 C 
ENDBRANCH   5  19
BRANCH   6  21
ATOM     21  C   UNL     1       1.379  12.147  19.562  0.00  0.00    +0.000 C 
ATOM     22  C   UNL     1       1.472  13.339  20.178  0.00  0.00    +0.000 C 
BRANCH  22  23
ATOM     23  C   UNL     1       2.809  13.754  20.704  0.00  0.00    +0.000 C 
ATOM     24  O   UNL     1       3.352  13.077  21.577  0.00  0.00    +0.000 OA
ATOM     25  N   UNL     1       3.414  14.870  20.155  0.00  0.00    +0.000 N 
ATOM     26  C   UNL     1       4.783  15.206  20.564  0.00  0.00    +0.000 C 
ATOM     27  C   UNL     1       5.677  15.428  19.343  0.00  0.00    +0.000 C 
ATOM     28  C   UNL     1       5.052  16.405  18.344  0.00  0.00    +0.000 C 
ATOM     29  C   UNL     1       3.613  15.988  17.994  0.00  0.00    +0.000 C 
ATOM     30  C   UNL     1       2.958  16.975  17.036  0.00  0.00    +0.000 C 
ATOM     31  C   UNL     1       2.788  15.851  19.275  0.00  0.00    +0.000 C 
ENDBRANCH  22  23
ENDBRANCH   6  21
TORSDOF 7
ENDMDL
MODEL 7
REMARK VINA RESULT:      -6.1      4.976      9.917
REMARK  Name = 
REMARK  11 active torsions:
REMARK  status: ('A' for Active; 'I' for Inactive)
REMARK    1  A    between atoms: C_1  and  O_2
REMARK    2  A    between atoms: O_2  and  C_3
REMARK    3  A    between atoms: C_6  and  C_7
REMARK    4  A    between atoms: C_8  and  C_9
REMARK    5  A    between atoms: C_11  and  O_12
REMARK    6  A    between atoms: O_12  and  C_13
REMARK    7  A    between atoms: C_15  and  O_16
REMARK    8  A    between atoms: O_16  and  C_17
REMARK    9  A    between atoms: C_18  and  C_19
REMARK   10  A    between atoms: C_20  and  C_21
REMARK   11  A    between atoms: C_27  and  C_28
REMARK                            x       y       z     vdW  Elec       q    Type
REMARK                         _______ _______ _______ _____ _____    ______ ____
ROOT
ATOM      1  C   UNL     1      -1.764  12.576  22.978  0.00  0.00    +0.000 A 
ATOM      2  C   UNL     1      -2.911  12.036  23.586  0.00  0.00    +0.000 A 
ATOM      3  C   UNL     1      -3.912  12.862  24.086  0.00  0.00    +0.000 A 
ATOM      4  C   UNL     1      -3.757  14.243  24.003  0.00  0.00    +0.000 A 
ATOM      5  C   UNL     1      -2.611  14.816  23.420  0.00  0.00    +0.000 A 
ATOM      6  C   UNL     1      -1.606  13.987  22.866  0.00  0.00    +0.000 A 
ENDROOT
BRANCH   1   8
ATOM      7  C   UNL     1      -0.818  11.172  21.170  0.00  0.00    +0.000 C 
ATOM      8  C   UNL     1      -0.781  11.611  22.440  0.00  0.00    +0.000 C 
BRANCH   7  12
ATOM      9  C   UNL     1       1.822   8.084  19.737  0.00  0.00    +0.000 A 
ATOM     10  C   UNL     1       1.252   8.028  21.008  0.00  0.00    +0.000 A 
ATOM     11  C   UNL     1       0.365   9.019  21.446  0.00  0.00    +0.000 A 
ATOM     12  C   UNL     1       0.053  10.112  20.627  0.00  0.00    +0.000 A 
ATOM     13  C   UNL     1       0.597  10.144  19.337  0.00  0.00    +0.000 A 
ATOM     14  C   UNL     1       1.471   9.139  18.890  0.00  0.00    +0.000 A 
BRANCH   9  16
ATOM     15  C   UNL     1       2.558   6.363  18.265  0.00  0.00    +0.000 C 
ATOM     16  O   UNL     1       2.724   7.094  19.472  0.00  0.00    +0.000 OA
ENDBRANCH   9  16
ENDBRANCH   7  12
ENDBRANCH   1   8
BRANCH   3  17
ATOM     17  O   UNL     1      -4.994  12.214  24.621  0.00  0.00    +0.000 OA
ATOM     18  C   UNL     1      -6.281  12.605  24.153  0.00  0.00    +0.000 C 
ENDBRANCH   3  17
BRANCH   5  19
ATOM     19  O   UNL     1      -2.448  16.182  23.341  0.00  0.00    +0.000 OA
ATOM     20  C   UNL     1      -2.692  16.925  24.534  0.00  0.00    +0.000 C 
ENDBRANCH   5  19
BRANCH   6  21
ATOM     21  C   UNL     1      -0.367  14.505  22.229  0.00  0.00    +0.000 C 
ATOM     22  C   UNL     1      -0.176  14.903  20.959  0.00  0.00    +0.000 C 
BRANCH  22  23
ATOM     23  C   UNL     1       1.218  15.230  20.528  0.00  0.00    +0.000 C 
ATOM     24  O   UNL     1       2.147  14.509  20.890  0.00  0.00    +0.000 OA
ATOM     25  N   UNL     1       1.411  16.317  19.695  0.00  0.00    +0.000 N 
ATOM     26  C   UNL     1       2.753  16.565  19.155  0.00  0.00    +0.000 C 
ATOM     27  C   UNL     1       2.703  16.752  17.638  0.00  0.00    +0.000 C 
ATOM     28  C   UNL     1       1.647  17.781  17.221  0.00  0.00    +0.000 C 
ATOM     29  C   UNL     1       0.283  17.454  17.852  0.00  0.00    +0.000 C 
ATOM     30  C   UNL     1      -0.769  18.493  17.486  0.00  0.00    +0.000 C 
ATOM     31  C   UNL     1       0.430  17.346  19.371  0.00  0.00    +0.000 C 
ENDBRANCH  22  23
ENDBRANCH   6  21
TORSDOF 7
ENDMDL
MODEL 8
REMARK VINA RESULT:      -6.1      4.399      9.149
REMARK  Name = 
REMARK  11 active torsions:
REMARK  status: ('A' for Active; 'I' for Inactive)
REMARK    1  A    between atoms: C_1  and  O_2
REMARK    2  A    between atoms: O_2  and  C_3
REMARK    3  A    between atoms: C_6  and  C_7
REMARK    4  A    between atoms: C_8  and  C_9
REMARK    5  A    between atoms: C_11  and  O_12
REMARK    6  A    between atoms: O_12  and  C_13
REMARK    7  A    between atoms: C_15  and  O_16
REMARK    8  A    between atoms: O_16  and  C_17
REMARK    9  A    between atoms: C_18  and  C_19
REMARK   10  A    between atoms: C_20  and  C_21
REMARK   11  A    between atoms: C_27  and  C_28
REMARK                            x       y       z     vdW  Elec       q    Type
REMARK                         _______ _______ _______ _____ _____    ______ ____
ROOT
ATOM      1  C   UNL     1      -0.437  12.085  22.008  0.00  0.00    +0.000 A 
ATOM      2  C   UNL     1      -1.545  11.602  22.726  0.00  0.00    +0.000 A 
ATOM      3  C   UNL     1      -2.465  12.476  23.296  0.00  0.00    +0.000 A 
ATOM      4  C   UNL     1      -2.263  13.848  23.173  0.00  0.00    +0.000 A 
ATOM      5  C   UNL     1      -1.152  14.364  22.480  0.00  0.00    +0.000 A 
ATOM      6  C   UNL     1      -0.234  13.486  21.856  0.00  0.00    +0.000 A 
ENDROOT
BRANCH   1   8
ATOM      7  C   UNL     1       0.229  10.538  20.192  0.00  0.00    +0.000 C 
ATOM      8  C   UNL     1       0.456  11.072  21.405  0.00  0.00    +0.000 C 
BRANCH   7  12
ATOM      9  C   UNL     1       2.617   7.310  18.631  0.00  0.00    +0.000 A 
ATOM     10  C   UNL     1       2.130   7.295  19.938  0.00  0.00    +0.000 A 
ATOM     11  C   UNL     1       1.323   8.332  20.419  0.00  0.00    +0.000 A 
ATOM     12  C   UNL     1       1.011   9.430  19.608  0.00  0.00    +0.000 A 
ATOM     13  C   UNL     1       1.469   9.423  18.285  0.00  0.00    +0.000 A 
ATOM     14  C   UNL     1       2.262   8.371  17.795  0.00  0.00    +0.000 A 
BRANCH   9  16
ATOM     15  C   UNL     1       4.340   6.453  17.227  0.00  0.00    +0.000 C 
ATOM     16  O   UNL     1       3.450   6.274  18.321  0.00  0.00    +0.000 OA
ENDBRANCH   9  16
ENDBRANCH   7  12
ENDBRANCH   1   8
BRANCH   3  17
ATOM     17  O   UNL     1      -3.519  11.881  23.937  0.00  0.00    +0.000 OA
ATOM     18  C   UNL     1      -4.625  12.713  24.276  0.00  0.00    +0.000 C 
ENDBRANCH   3  17
BRANCH   5  19
ATOM     19  O   UNL     1      -0.943  15.721  22.361  0.00  0.00    +0.000 OA
ATOM     20  C   UNL     1      -1.685  16.563  23.242  0.00  0.00    +0.000 C 
ENDBRANCH   5  19
BRANCH   6  21
ATOM     21  C   UNL     1       0.963  13.943  21.102  0.00  0.00    +0.000 C 
ATOM     22  C   UNL     1       2.042  14.606  21.556  0.00  0.00    +0.000 C 
BRANCH  22  23
ATOM     23  C   UNL     1       3.038  15.094  20.553  0.00  0.00    +0.000 C 
ATOM     24  O   UNL     1       4.108  14.499  20.424  0.00  0.00    +0.000 OA
ATOM     25  N   UNL     1       2.701  16.181  19.767  0.00  0.00    +0.000 N 
ATOM     26  C   UNL     1       3.610  16.583  18.687  0.00  0.00    +0.000 C 
ATOM     27  C   UNL     1       2.853  16.735  17.368  0.00  0.00    +0.000 C 
ATOM     28  C   UNL     1       1.610  17.618  17.517  0.00  0.00    +0.000 C 
ATOM     29  C   UNL     1       0.733  17.138  18.685  0.00  0.00    +0.000 C 
ATOM     30  C   UNL     1      -0.486  18.032  18.878  0.00  0.00    +0.000 C 
ATOM     31  C   UNL     1       1.566  17.076  19.966  0.00  0.00    +0.000 C 
ENDBRANCH  22  23
ENDBRANCH   6  21
TORSDOF 7
ENDMDL
MODEL 9
REMARK VINA RESULT:      -6.0      4.749      8.016
REMARK  Name = 
REMARK  11 active torsions:
REMARK  status: ('A' for Active; 'I' for Inactive)
REMARK    1  A    between atoms: C_1  and  O_2
REMARK    2  A    between atoms: O_2  and  C_3
REMARK    3  A    between atoms: C_6  and  C_7
REMARK    4  A    between atoms: C_8  and  C_9
REMARK    5  A    between atoms: C_11  and  O_12
REMARK    6  A    between atoms: O_12  and  C_13
REMARK    7  A    between atoms: C_15  and  O_16
REMARK    8  A    between atoms: O_16  and  C_17
REMARK    9  A    between atoms: C_18  and  C_19
REMARK   10  A    between atoms: C_20  and  C_21
REMARK   11  A    between atoms: C_27  and  C_28
REMARK                            x       y       z     vdW  Elec       q    Type
REMARK                         _______ _______ _______ _____ _____    ______ ____
ROOT
ATOM      1  C   UNL     1       0.335  11.935  20.259  0.00  0.00    +0.000 A 
ATOM      2  C   UNL     1       1.395  12.648  20.845  0.00  0.00    +0.000 A 
ATOM      3  C   UNL     1       1.179  13.882  21.452  0.00  0.00    +0.000 A 
ATOM      4  C   UNL     1      -0.104  14.423  21.450  0.00  0.00    +0.000 A 
ATOM      5  C   UNL     1      -1.183  13.746  20.853  0.00  0.00    +0.000 A 
ATOM      6  C   UNL     1      -0.986  12.469  20.273  0.00  0.00    +0.000 A 
ENDROOT
BRANCH   1   8
ATOM      7  C   UNL     1       1.116   9.591  20.425  0.00  0.00    +0.000 C 
ATOM      8  C   UNL     1       0.663  10.615  19.680  0.00  0.00    +0.000 C 
BRANCH   7  12
ATOM      9  C   UNL     1       2.571   5.803  18.979  0.00  0.00    +0.000 A 
ATOM     10  C   UNL     1       1.983   5.929  20.237  0.00  0.00    +0.000 A 
ATOM     11  C   UNL     1       1.480   7.159  20.678  0.00  0.00    +0.000 A 
ATOM     12  C   UNL     1       1.584   8.303  19.877  0.00  0.00    +0.000 A 
ATOM     13  C   UNL     1       2.140   8.163  18.599  0.00  0.00    +0.000 A 
ATOM     14  C   UNL     1       2.626   6.925  18.148  0.00  0.00    +0.000 A 
BRANCH   9  16
ATOM     15  C   UNL     1       2.263   3.658  17.990  0.00  0.00    +0.000 C 
ATOM     16  O   UNL     1       3.085   4.567  18.711  0.00  0.00    +0.000 OA
ENDBRANCH   9  16
ENDBRANCH   7  12
ENDBRANCH   1   8
BRANCH   3  17
ATOM     17  O   UNL     1       2.285  14.458  22.018  0.00  0.00    +0.000 OA
ATOM     18  C   UNL     1       2.233  15.860  22.264  0.00  0.00    +0.000 C 
ENDBRANCH   3  17
BRANCH   5  19
ATOM     19  O   UNL     1      -2.453  14.279  20.841  0.00  0.00    +0.000 OA
ATOM     20  C   UNL     1      -2.573  15.653  21.207  0.00  0.00    +0.000 C 
ENDBRANCH   5  19
BRANCH   6  21
ATOM     21  C   UNL     1      -2.067  11.682  19.624  0.00  0.00    +0.000 C 
ATOM     22  C   UNL     1      -2.644  11.873  18.424  0.00  0.00    +0.000 C 
BRANCH  22  23
ATOM     23  C   UNL     1      -3.830  11.031  18.075  0.00  0.00    +0.000 C 
ATOM     24  O   UNL     1      -3.674  10.020  17.391  0.00  0.00    +0.000 OA
ATOM     25  N   UNL     1      -5.066  11.397  18.575  0.00  0.00    +0.000 N 
ATOM     26  C   UNL     1      -6.211  10.506  18.355  0.00  0.00    +0.000 C 
ATOM     27  C   UNL     1      -6.942  10.225  19.669  0.00  0.00    +0.000 C 
ATOM     28  C   UNL     1      -7.274  11.513  20.428  0.00  0.00    +0.000 C 
ATOM     29  C   UNL     1      -6.023  12.394  20.588  0.00  0.00    +0.000 C 
ATOM     30  C   UNL     1      -6.343  13.702  21.301  0.00  0.00    +0.000 C 
ATOM     31  C   UNL     1      -5.401  12.664  19.217  0.00  0.00    +0.000 C 
ENDBRANCH  22  23
ENDBRANCH   6  21
TORSDOF 7
ENDMDL
