MODEL 1
REMARK VINA RESULT:      -8.3      0.000      0.000
REMARK  Name = 
REMARK  7 active torsions:
REMARK  status: ('A' for Active; 'I' for Inactive)
REMARK    1  A    between atoms: C_1  and  C_2
REMARK    2  A    between atoms: C_2  and  C_3
REMARK    3  A    between atoms: C_2  and  C_4
REMARK    4  A    between atoms: C_4  and  N_5
REMARK    5  A    between atoms: N_8  and  C_9
REMARK    6  A    between atoms: C_9  and  C_10
REMARK    7  A    between atoms: C_9  and  C_16
REMARK                            x       y       z     vdW  Elec       q    Type
REMARK                         _______ _______ _______ _____ _____    ______ ____
ROOT
ATOM      1  C   UNL     1       2.963   5.902  18.292  0.00  0.00    +0.000 C 
ENDROOT
BRANCH   1   2
ATOM      2  C   UNL     1       2.362   7.265  18.666  0.00  0.00    +0.000 A 
ATOM      3  C   UNL     1       2.169   8.236  17.664  0.00  0.00    +0.000 A 
ATOM      4  C   UNL     1       1.585   9.472  17.963  0.00  0.00    +0.000 A 
ATOM      5  C   UNL     1       1.178   9.745  19.265  0.00  0.00    +0.000 A 
ATOM      6 CL   UNL     1       0.424  11.248  19.629  0.00  0.00    +0.000 Cl
ATOM      7  C   UNL     1       1.375   8.808  20.275  0.00  0.00    +0.000 A 
ATOM      8  C   UNL     1       1.979   7.582  19.980  0.00  0.00    +0.000 A 
ENDBRANCH   1   2
BRANCH   1  12
ATOM      9  N   UNL     1       5.298   5.131  15.454  0.00  0.00    +0.000 NA
ATOM     10  C   UNL     1       4.706   4.165  16.401  0.00  0.00    +0.000 C 
ATOM     11  C   UNL     1       4.946   4.514  17.890  0.00  0.00    +0.000 C 
ATOM     12  N   UNL     1       4.455   5.864  18.285  0.00  0.00    +0.000 NA
ATOM     13  C   UNL     1       5.063   6.835  17.344  0.00  0.00    +0.000 C 
ATOM     14  C   UNL     1       4.886   6.500  15.842  0.00  0.00    +0.000 C 
BRANCH   9  15
ATOM     15  C   UNL     1       6.767   5.020  15.373  0.00  0.00    +0.000 C 
BRANCH  15  17
ATOM     16  C   UNL     1       6.152   3.765  13.246  0.00  0.00    +0.000 C 
ATOM     17  C   UNL     1       7.279   4.431  14.038  0.00  0.00    +0.000 C 
ATOM     18  C   UNL     1       7.949   5.521  13.201  0.00  0.00    +0.000 C 
ENDBRANCH  15  17
ENDBRANCH   9  15
ENDBRANCH   1  12
BRANCH   1  19
ATOM     19  C   UNL     1       2.381   4.776  19.167  0.00  0.00    +0.000 A 
ATOM     20  C   UNL     1       1.414   3.886  18.665  0.00  0.00    +0.000 A 
ATOM     21  C   UNL     1       0.836   2.916  19.484  0.00  0.00    +0.000 A 
ATOM     22  C   UNL     1       1.197   2.835  20.825  0.00  0.00    +0.000 A 
ATOM     23  C   UNL     1       2.141   3.717  21.345  0.00  0.00    +0.000 A 
ATOM     24  C   UNL     1       2.738   4.675  20.522  0.00  0.00    +0.000 A 
ENDBRANCH   1  19
TORSDOF 5
ENDMDL
MODEL 2
REMARK VINA RESULT:      -8.1      0.130      1.399
REMARK  Name = 
REMARK  7 active torsions:
REMARK  status: ('A' for Active; 'I' for Inactive)
REMARK    1  A    between atoms: C_1  and  C_2
REMARK    2  A    between atoms: C_2  and  C_3
REMARK    3  A    between atoms: C_2  and  C_4
REMARK    4  A    between atoms: C_4  and  N_5
REMARK    5  A    between atoms: N_8  and  C_9
REMARK    6  A    between atoms: C_9  and  C_10
REMARK    7  A    between atoms: C_9  and  C_16
REMARK                            x       y       z     vdW  Elec       q    Type
REMARK                         _______ _______ _______ _____ _____    ______ ____
ROOT
ATOM      1  C   UNL     1       2.866   5.883  18.354  0.00  0.00    +0.000 C 
ENDROOT
BRANCH   1   2
ATOM      2  C   UNL     1       2.275   7.269  18.652  0.00  0.00    +0.000 A 
ATOM      3  C   UNL     1       1.914   7.600  19.972  0.00  0.00    +0.000 A 
ATOM      4  C   UNL     1       1.412   8.868  20.284  0.00  0.00    +0.000 A 
ATOM      5  C   UNL     1       1.276   9.822  19.280  0.00  0.00    +0.000 A 
ATOM      6 CL   UNL     1       0.696  11.394  19.666  0.00  0.00    +0.000 Cl
ATOM      7  C   UNL     1       1.609   9.511  17.965  0.00  0.00    +0.000 A 
ATOM      8  C   UNL     1       2.089   8.237  17.650  0.00  0.00    +0.000 A 
ENDBRANCH   1   2
BRANCH   1  12
ATOM      9  N   UNL     1       5.248   5.142  15.546  0.00  0.00    +0.000 NA
ATOM     10  C   UNL     1       4.628   4.164  16.462  0.00  0.00    +0.000 C 
ATOM     11  C   UNL     1       4.842   4.482  17.962  0.00  0.00    +0.000 C 
ATOM     12  N   UNL     1       4.358   5.829  18.374  0.00  0.00    +0.000 NA
ATOM     13  C   UNL     1       4.994   6.812  17.466  0.00  0.00    +0.000 C 
ATOM     14  C   UNL     1       4.843   6.508  15.953  0.00  0.00    +0.000 C 
BRANCH   9  15
ATOM     15  C   UNL     1       6.717   5.017  15.492  0.00  0.00    +0.000 C 
BRANCH  15  17
ATOM     16  C   UNL     1       6.136   3.779  13.346  0.00  0.00    +0.000 C 
ATOM     17  C   UNL     1       7.249   4.445  14.157  0.00  0.00    +0.000 C 
ATOM     18  C   UNL     1       7.920   5.549  13.338  0.00  0.00    +0.000 C 
ENDBRANCH  15  17
ENDBRANCH   9  15
ENDBRANCH   1  12
BRANCH   1  19
ATOM     19  C   UNL     1       2.257   4.807  19.271  0.00  0.00    +0.000 A 
ATOM     20  C   UNL     1       2.680   4.657  20.605  0.00  0.00    +0.000 A 
ATOM     21  C   UNL     1       2.178   3.632  21.407  0.00  0.00    +0.000 A 
ATOM     22  C   UNL     1       1.263   2.725  20.883  0.00  0.00    +0.000 A 
ATOM     23  C   UNL     1       0.842   2.847  19.560  0.00  0.00    +0.000 A 
ATOM     24  C   UNL     1       1.327   3.886  18.761  0.00  0.00    +0.000 A 
ENDBRANCH   1  19
TORSDOF 5
ENDMDL
MODEL 3
REMARK VINA RESULT:      -8.1      0.380      1.043
REMARK  Name = 
REMARK  7 active torsions:
REMARK  status: ('A' for Active; 'I' for Inactive)
REMARK    1  A    between atoms: C_1  and  C_2
REMARK    2  A    between atoms: C_2  and  C_3
REMARK    3  A    between atoms: C_2  and  C_4
REMARK    4  A    between atoms: C_4  and  N_5
REMARK    5  A    between atoms: N_8  and  C_9
REMARK    6  A    between atoms: C_9  and  C_10
REMARK    7  A    between atoms: C_9  and  C_16
REMARK                            x       y       z     vdW  Elec       q    Type
REMARK                         _______ _______ _______ _____ _____    ______ ____
ROOT
ATOM      1  C   UNL     1       3.036   5.823  18.078  0.00  0.00    +0.000 C 
ENDROOT
BRANCH   1   2
ATOM      2  C   UNL     1       2.431   7.154  18.544  0.00  0.00    +0.000 A 
ATOM      3  C   UNL     1       2.253   8.199  17.617  0.00  0.00    +0.000 A 
ATOM      4  C   UNL     1       1.665   9.409  18.000  0.00  0.00    +0.000 A 
ATOM      5  C   UNL     1       1.239   9.583  19.313  0.00  0.00    +0.000 A 
ATOM      6 CL   UNL     1       0.481  11.056  19.778  0.00  0.00    +0.000 Cl
ATOM      7  C   UNL     1       1.422   8.572  20.251  0.00  0.00    +0.000 A 
ATOM      8  C   UNL     1       2.029   7.372  19.873  0.00  0.00    +0.000 A 
ENDBRANCH   1   2
BRANCH   1  12
ATOM      9  N   UNL     1       5.392   5.110  15.241  0.00  0.00    +0.000 NA
ATOM     10  C   UNL     1       4.795   4.125  16.164  0.00  0.00    +0.000 C 
ATOM     11  C   UNL     1       5.024   4.445  17.661  0.00  0.00    +0.000 C 
ATOM     12  N   UNL     1       4.528   5.786  18.079  0.00  0.00    +0.000 NA
ATOM     13  C   UNL     1       5.142   6.776  17.163  0.00  0.00    +0.000 C 
ATOM     14  C   UNL     1       4.976   6.470  15.653  0.00  0.00    +0.000 C 
BRANCH   9  15
ATOM     15  C   UNL     1       6.862   5.002  15.168  0.00  0.00    +0.000 C 
BRANCH  15  17
ATOM     16  C   UNL     1       6.275   3.774  13.018  0.00  0.00    +0.000 C 
ATOM     17  C   UNL     1       7.385   4.457  13.819  0.00  0.00    +0.000 C 
ATOM     18  C   UNL     1       8.018   5.584  13.002  0.00  0.00    +0.000 C 
ENDBRANCH  15  17
ENDBRANCH   9  15
ENDBRANCH   1  12
BRANCH   1  19
ATOM     19  C   UNL     1       2.449   4.636  18.863  0.00  0.00    +0.000 A 
ATOM     20  C   UNL     1       3.014   4.212  20.080  0.00  0.00    +0.000 A 
ATOM     21  C   UNL     1       2.523   3.090  20.748  0.00  0.00    +0.000 A 
ATOM     22  C   UNL     1       1.475   2.358  20.199  0.00  0.00    +0.000 A 
ATOM     23  C   UNL     1       0.911   2.753  18.988  0.00  0.00    +0.000 A 
ATOM     24  C   UNL     1       1.386   3.888  18.327  0.00  0.00    +0.000 A 
ENDBRANCH   1  19
TORSDOF 5
ENDMDL
MODEL 4
REMARK VINA RESULT:      -7.6      2.867      6.717
REMARK  Name = 
REMARK  7 active torsions:
REMARK  status: ('A' for Active; 'I' for Inactive)
REMARK    1  A    between atoms: C_1  and  C_2
REMARK    2  A    between atoms: C_2  and  C_3
REMARK    3  A    between atoms: C_2  and  C_4
REMARK    4  A    between atoms: C_4  and  N_5
REMARK    5  A    between atoms: N_8  and  C_9
REMARK    6  A    between atoms: C_9  and  C_10
REMARK    7  A    between atoms: C_9  and  C_16
REMARK                            x       y       z     vdW  Elec       q    Type
REMARK                         _______ _______ _______ _____ _____    ______ ____
ROOT
ATOM      1  C   UNL     1       5.825   4.627  16.456  0.00  0.00    +0.000 C 
ENDROOT
BRANCH   1   2
ATOM      2  C   UNL     1       6.581   5.791  17.114  0.00  0.00    +0.000 A 
ATOM      3  C   UNL     1       7.454   5.532  18.188  0.00  0.00    +0.000 A 
ATOM      4  C   UNL     1       8.190   6.563  18.781  0.00  0.00    +0.000 A 
ATOM      5  C   UNL     1       8.068   7.862  18.300  0.00  0.00    +0.000 A 
ATOM      6 CL   UNL     1       9.001   9.126  19.002  0.00  0.00    +0.000 Cl
ATOM      7  C   UNL     1       7.198   8.145  17.252  0.00  0.00    +0.000 A 
ATOM      8  C   UNL     1       6.446   7.118  16.674  0.00  0.00    +0.000 A 
ENDBRANCH   1   2
BRANCH   1  12
ATOM      9  N   UNL     1       3.875   4.271  19.647  0.00  0.00    +0.000 NA
ATOM     10  C   UNL     1       4.308   3.183  18.747  0.00  0.00    +0.000 C 
ATOM     11  C   UNL     1       3.878   3.376  17.273  0.00  0.00    +0.000 C 
ATOM     12  N   UNL     1       4.347   4.652  16.664  0.00  0.00    +0.000 NA
ATOM     13  C   UNL     1       3.898   5.746  17.558  0.00  0.00    +0.000 C 
ATOM     14  C   UNL     1       4.267   5.571  19.053  0.00  0.00    +0.000 C 
BRANCH   9  15
ATOM     15  C   UNL     1       2.428   4.231  19.931  0.00  0.00    +0.000 C 
BRANCH  15  17
ATOM     16  C   UNL     1       1.460   2.593  21.621  0.00  0.00    +0.000 C 
ATOM     17  C   UNL     1       1.874   2.806  20.164  0.00  0.00    +0.000 C 
ATOM     18  C   UNL     1       0.695   2.537  19.228  0.00  0.00    +0.000 C 
ENDBRANCH  15  17
ENDBRANCH   9  15
ENDBRANCH   1  12
BRANCH   1  19
ATOM     19  C   UNL     1       6.176   4.506  14.962  0.00  0.00    +0.000 A 
ATOM     20  C   UNL     1       5.407   3.711  14.092  0.00  0.00    +0.000 A 
ATOM     21  C   UNL     1       5.774   3.546  12.756  0.00  0.00    +0.000 A 
ATOM     22  C   UNL     1       6.928   4.154  12.273  0.00  0.00    +0.000 A 
ATOM     23  C   UNL     1       7.710   4.934  13.122  0.00  0.00    +0.000 A 
ATOM     24  C   UNL     1       7.334   5.118  14.455  0.00  0.00    +0.000 A 
ENDBRANCH   1  19
TORSDOF 5
ENDMDL
MODEL 5
REMARK VINA RESULT:      -7.6      2.870      6.727
REMARK  Name = 
REMARK  7 active torsions:
REMARK  status: ('A' for Active; 'I' for Inactive)
REMARK    1  A    between atoms: C_1  and  C_2
REMARK    2  A    between atoms: C_2  and  C_3
REMARK    3  A    between atoms: C_2  and  C_4
REMARK    4  A    between atoms: C_4  and  N_5
REMARK    5  A    between atoms: N_8  and  C_9
REMARK    6  A    between atoms: C_9  and  C_10
REMARK    7  A    between atoms: C_9  and  C_16
REMARK                            x       y       z     vdW  Elec       q    Type
REMARK                         _______ _______ _______ _____ _____    ______ ____
ROOT
ATOM      1  C   UNL     1       5.922   4.600  16.522  0.00  0.00    +0.000 C 
ENDROOT
BRANCH   1   2
ATOM      2  C   UNL     1       6.730   5.743  17.154  0.00  0.00    +0.000 A 
ATOM      3  C   UNL     1       6.607   7.047  16.637  0.00  0.00    +0.000 A 
ATOM      4  C   UNL     1       7.296   8.118  17.216  0.00  0.00    +0.000 A 
ATOM      5  C   UNL     1       8.106   7.898  18.326  0.00  0.00    +0.000 A 
ATOM      6 CL   UNL     1       8.924   9.219  19.064  0.00  0.00    +0.000 Cl
ATOM      7  C   UNL     1       8.256   6.615  18.842  0.00  0.00    +0.000 A 
ATOM      8  C   UNL     1       7.586   5.541  18.249  0.00  0.00    +0.000 A 
ENDBRANCH   1   2
BRANCH   1  12
ATOM      9  N   UNL     1       3.880   4.190  19.647  0.00  0.00    +0.000 NA
ATOM     10  C   UNL     1       4.262   3.129  18.693  0.00  0.00    +0.000 C 
ATOM     11  C   UNL     1       3.880   3.435  17.225  0.00  0.00    +0.000 C 
ATOM     12  N   UNL     1       4.445   4.711  16.702  0.00  0.00    +0.000 NA
ATOM     13  C   UNL     1       4.047   5.778  17.651  0.00  0.00    +0.000 C 
ATOM     14  C   UNL     1       4.370   5.492  19.140  0.00  0.00    +0.000 C 
BRANCH   9  15
ATOM     15  C   UNL     1       2.428   4.230  19.901  0.00  0.00    +0.000 C 
BRANCH  15  17
ATOM     16  C   UNL     1       1.351   2.680  21.610  0.00  0.00    +0.000 C 
ATOM     17  C   UNL     1       1.797   2.840  20.155  0.00  0.00    +0.000 C 
ATOM     18  C   UNL     1       0.619   2.612  19.207  0.00  0.00    +0.000 C 
ENDBRANCH  15  17
ENDBRANCH   9  15
ENDBRANCH   1  12
BRANCH   1  19
ATOM     19  C   UNL     1       6.290   4.409  15.039  0.00  0.00    +0.000 A 
ATOM     20  C   UNL     1       7.407   5.052  14.474  0.00  0.00    +0.000 A 
ATOM     21  C   UNL     1       7.691   4.935  13.113  0.00  0.00    +0.000 A 
ATOM     22  C   UNL     1       6.851   4.194  12.289  0.00  0.00    +0.000 A 
ATOM     23  C   UNL     1       5.731   3.562  12.826  0.00  0.00    +0.000 A 
ATOM     24  C   UNL     1       5.456   3.659  14.193  0.00  0.00    +0.000 A 
ENDBRANCH   1  19
TORSDOF 5
ENDMDL
MODEL 6
REMARK VINA RESULT:      -7.2      2.958      6.711
REMARK  Name = 
REMARK  7 active torsions:
REMARK  status: ('A' for Active; 'I' for Inactive)
REMARK    1  A    between atoms: C_1  and  C_2
REMARK    2  A    between atoms: C_2  and  C_3
REMARK    3  A    between atoms: C_2  and  C_4
REMARK    4  A    between atoms: C_4  and  N_5
REMARK    5  A    between atoms: N_8  and  C_9
REMARK    6  A    between atoms: C_9  and  C_10
REMARK    7  A    between atoms: C_9  and  C_16
REMARK                            x       y       z     vdW  Elec       q    Type
REMARK                         _______ _______ _______ _____ _____    ______ ____
ROOT
ATOM      1  C   UNL     1       5.846   4.615  16.612  0.00  0.00    +0.000 C 
ENDROOT
BRANCH   1   2
ATOM      2  C   UNL     1       6.687   5.746  17.223  0.00  0.00    +0.000 A 
ATOM      3  C   UNL     1       6.544   7.059  16.733  0.00  0.00    +0.000 A 
ATOM      4  C   UNL     1       7.263   8.119  17.296  0.00  0.00    +0.000 A 
ATOM      5  C   UNL     1       8.124   7.879  18.362  0.00  0.00    +0.000 A 
ATOM      6 CL   UNL     1       8.980   9.185  19.082  0.00  0.00    +0.000 Cl
ATOM      7  C   UNL     1       8.294   6.587  18.851  0.00  0.00    +0.000 A 
ATOM      8  C   UNL     1       7.593   5.525  18.274  0.00  0.00    +0.000 A 
ENDBRANCH   1   2
BRANCH   1  12
ATOM      9  N   UNL     1       3.814   2.774  19.179  0.00  0.00    +0.000 NA
ATOM     10  C   UNL     1       4.102   2.338  17.797  0.00  0.00    +0.000 C 
ATOM     11  C   UNL     1       3.728   3.381  16.717  0.00  0.00    +0.000 C 
ATOM     12  N   UNL     1       4.384   4.706  16.897  0.00  0.00    +0.000 NA
ATOM     13  C   UNL     1       4.081   5.152  18.278  0.00  0.00    +0.000 C 
ATOM     14  C   UNL     1       4.397   4.119  19.390  0.00  0.00    +0.000 C 
BRANCH   9  15
ATOM     15  C   UNL     1       2.372   2.765  19.489  0.00  0.00    +0.000 C 
BRANCH  15  17
ATOM     16  C   UNL     1       1.033   4.684  20.488  0.00  0.00    +0.000 C 
ATOM     17  C   UNL     1       2.003   3.537  20.777  0.00  0.00    +0.000 C 
ATOM     18  C   UNL     1       1.411   2.584  21.815  0.00  0.00    +0.000 C 
ENDBRANCH  15  17
ENDBRANCH   9  15
ENDBRANCH   1  12
BRANCH   1  19
ATOM     19  C   UNL     1       6.112   4.475  15.102  0.00  0.00    +0.000 A 
ATOM     20  C   UNL     1       5.218   3.785  14.263  0.00  0.00    +0.000 A 
ATOM     21  C   UNL     1       5.502   3.597  12.910  0.00  0.00    +0.000 A 
ATOM     22  C   UNL     1       6.695   4.073  12.378  0.00  0.00    +0.000 A 
ATOM     23  C   UNL     1       7.601   4.746  13.195  0.00  0.00    +0.000 A 
ATOM     24  C   UNL     1       7.310   4.955  14.546  0.00  0.00    +0.000 A 
ENDBRANCH   1  19
TORSDOF 5
ENDMDL
MODEL 7
REMARK VINA RESULT:      -7.2      2.777      6.713
REMARK  Name = 
REMARK  7 active torsions:
REMARK  status: ('A' for Active; 'I' for Inactive)
REMARK    1  A    between atoms: C_1  and  C_2
REMARK    2  A    between atoms: C_2  and  C_3
REMARK    3  A    between atoms: C_2  and  C_4
REMARK    4  A    between atoms: C_4  and  N_5
REMARK    5  A    between atoms: N_8  and  C_9
REMARK    6  A    between atoms: C_9  and  C_10
REMARK    7  A    between atoms: C_9  and  C_16
REMARK                            x       y       z     vdW  Elec       q    Type
REMARK                         _______ _______ _______ _____ _____    ______ ____
ROOT
ATOM      1  C   UNL     1       5.720   4.826  16.614  0.00  0.00    +0.000 C 
ENDROOT
BRANCH   1   2
ATOM      2  C   UNL     1       6.543   5.957  17.247  0.00  0.00    +0.000 A 
ATOM      3  C   UNL     1       7.434   5.664  18.297  0.00  0.00    +0.000 A 
ATOM      4  C   UNL     1       8.229   6.664  18.867  0.00  0.00    +0.000 A 
ATOM      5  C   UNL     1       8.150   7.966  18.384  0.00  0.00    +0.000 A 
ATOM      6 CL   UNL     1       9.154   9.191  19.055  0.00  0.00    +0.000 Cl
ATOM      7  C   UNL     1       7.264   8.283  17.359  0.00  0.00    +0.000 A 
ATOM      8  C   UNL     1       6.453   7.289  16.806  0.00  0.00    +0.000 A 
ENDBRANCH   1   2
BRANCH   1  12
ATOM      9  N   UNL     1       3.391   4.309  19.516  0.00  0.00    +0.000 NA
ATOM     10  C   UNL     1       3.790   3.304  18.510  0.00  0.00    +0.000 C 
ATOM     11  C   UNL     1       3.557   3.751  17.046  0.00  0.00    +0.000 C 
ATOM     12  N   UNL     1       4.242   5.022  16.682  0.00  0.00    +0.000 NA
ATOM     13  C   UNL     1       3.829   6.035  17.682  0.00  0.00    +0.000 C 
ATOM     14  C   UNL     1       4.002   5.611  19.162  0.00  0.00    +0.000 C 
BRANCH   9  15
ATOM     15  C   UNL     1       1.927   4.427  19.652  0.00  0.00    +0.000 C 
BRANCH  15  17
ATOM     16  C   UNL     1       0.910   2.098  19.506  0.00  0.00    +0.000 C 
ATOM     17  C   UNL     1       1.274   3.261  20.431  0.00  0.00    +0.000 C 
ATOM     18  C   UNL     1       2.203   2.785  21.548  0.00  0.00    +0.000 C 
ENDBRANCH  15  17
ENDBRANCH   9  15
ENDBRANCH   1  12
BRANCH   1  19
ATOM     19  C   UNL     1       6.179   4.539  15.173  0.00  0.00    +0.000 A 
ATOM     20  C   UNL     1       7.351   5.117  14.650  0.00  0.00    +0.000 A 
ATOM     21  C   UNL     1       7.720   4.914  13.320  0.00  0.00    +0.000 A 
ATOM     22  C   UNL     1       6.914   4.149  12.485  0.00  0.00    +0.000 A 
ATOM     23  C   UNL     1       5.743   3.579  12.979  0.00  0.00    +0.000 A 
ATOM     24  C   UNL     1       5.381   3.764  14.316  0.00  0.00    +0.000 A 
ENDBRANCH   1  19
TORSDOF 5
ENDMDL
MODEL 8
REMARK VINA RESULT:      -7.1      0.374      1.271
REMARK  Name = 
REMARK  7 active torsions:
REMARK  status: ('A' for Active; 'I' for Inactive)
REMARK    1  A    between atoms: C_1  and  C_2
REMARK    2  A    between atoms: C_2  and  C_3
REMARK    3  A    between atoms: C_2  and  C_4
REMARK    4  A    between atoms: C_4  and  N_5
REMARK    5  A    between atoms: N_8  and  C_9
REMARK    6  A    between atoms: C_9  and  C_10
REMARK    7  A    between atoms: C_9  and  C_16
REMARK                            x       y       z     vdW  Elec       q    Type
REMARK                         _______ _______ _______ _____ _____    ______ ____
ROOT
ATOM      1  C   UNL     1       2.989   5.761  18.158  0.00  0.00    +0.000 C 
ENDROOT
BRANCH   1   2
ATOM      2  C   UNL     1       2.400   7.122  18.560  0.00  0.00    +0.000 A 
ATOM      3  C   UNL     1       2.057   7.359  19.905  0.00  0.00    +0.000 A 
ATOM      4  C   UNL     1       1.559   8.601  20.312  0.00  0.00    +0.000 A 
ATOM      5  C   UNL     1       1.408   9.622  19.379  0.00  0.00    +0.000 A 
ATOM      6 CL   UNL     1       0.831  11.163  19.883  0.00  0.00    +0.000 Cl
ATOM      7  C   UNL     1       1.723   9.405  18.042  0.00  0.00    +0.000 A 
ATOM      8  C   UNL     1       2.199   8.157  17.632  0.00  0.00    +0.000 A 
ENDBRANCH   1   2
BRANCH   1  12
ATOM      9  N   UNL     1       5.184   5.174  15.168  0.00  0.00    +0.000 NA
ATOM     10  C   UNL     1       4.641   4.150  16.082  0.00  0.00    +0.000 C 
ATOM     11  C   UNL     1       4.953   4.410  17.576  0.00  0.00    +0.000 C 
ATOM     12  N   UNL     1       4.478   5.731  18.076  0.00  0.00    +0.000 NA
ATOM     13  C   UNL     1       5.038   6.760  17.168  0.00  0.00    +0.000 C 
ATOM     14  C   UNL     1       4.789   6.515  15.658  0.00  0.00    +0.000 C 
BRANCH   9  15
ATOM     15  C   UNL     1       6.647   5.076  15.009  0.00  0.00    +0.000 C 
BRANCH  15  17
ATOM     16  C   UNL     1       8.621   5.423  13.440  0.00  0.00    +0.000 C 
ATOM     17  C   UNL     1       7.123   5.126  13.539  0.00  0.00    +0.000 C 
ATOM     18  C   UNL     1       6.791   3.813  12.829  0.00  0.00    +0.000 C 
ENDBRANCH  15  17
ENDBRANCH   9  15
ENDBRANCH   1  12
BRANCH   1  19
ATOM     19  C   UNL     1       2.457   4.633  19.062  0.00  0.00    +0.000 A 
ATOM     20  C   UNL     1       1.413   3.790  18.642  0.00  0.00    +0.000 A 
ATOM     21  C   UNL     1       0.886   2.819  19.494  0.00  0.00    +0.000 A 
ATOM     22  C   UNL     1       1.377   2.691  20.788  0.00  0.00    +0.000 A 
ATOM     23  C   UNL     1       2.401   3.526  21.229  0.00  0.00    +0.000 A 
ATOM     24  C   UNL     1       2.946   4.485  20.371  0.00  0.00    +0.000 A 
ENDBRANCH   1  19
TORSDOF 5
ENDMDL
MODEL 9
REMARK VINA RESULT:      -6.4      4.913      9.073
REMARK  Name = 
REMARK  7 active torsions:
REMARK  status: ('A' for Active; 'I' for Inactive)
REMARK    1  A    between atoms: C_1  and  C_2
REMARK    2  A    between atoms: C_2  and  C_3
REMARK    3  A    between atoms: C_2  and  C_4
REMARK    4  A    between atoms: C_4  and  N_5
REMARK    5  A    between atoms: N_8  and  C_9
REMARK    6  A    between atoms: C_9  and  C_10
REMARK    7  A    between atoms: C_9  and  C_16
REMARK                            x       y       z     vdW  Elec       q    Type
REMARK                         _______ _______ _______ _____ _____    ______ ____
ROOT
ATOM      1  C   UNL     1       0.052  11.237  19.054  0.00  0.00    +0.000 C 
ENDROOT
BRANCH   1   2
ATOM      2  C   UNL     1       0.847   9.931  19.198  0.00  0.00    +0.000 A 
ATOM      3  C   UNL     1       0.847   9.252  20.432  0.00  0.00    +0.000 A 
ATOM      4  C   UNL     1       1.526   8.039  20.585  0.00  0.00    +0.000 A 
ATOM      5  C   UNL     1       2.202   7.486  19.502  0.00  0.00    +0.000 A 
ATOM      6 CL   UNL     1       3.006   5.974  19.676  0.00  0.00    +0.000 Cl
ATOM      7  C   UNL     1       2.231   8.148  18.279  0.00  0.00    +0.000 A 
ATOM      8  C   UNL     1       1.572   9.371  18.133  0.00  0.00    +0.000 A 
ENDBRANCH   1   2
BRANCH   1  12
ATOM      9  N   UNL     1       1.403  14.520  20.281  0.00  0.00    +0.000 NA
ATOM     10  C   UNL     1       0.041  14.257  19.773  0.00  0.00    +0.000 C 
ATOM     11  C   UNL     1       0.008  13.595  18.374  0.00  0.00    +0.000 C 
ATOM     12  N   UNL     1       0.756  12.310  18.291  0.00  0.00    +0.000 NA
ATOM     13  C   UNL     1       2.128  12.578  18.785  0.00  0.00    +0.000 C 
ATOM     14  C   UNL     1       2.208  13.283  20.163  0.00  0.00    +0.000 C 
BRANCH   9  15
ATOM     15  C   UNL     1       2.057  15.648  19.592  0.00  0.00    +0.000 C 
BRANCH  15  17
ATOM     16  C   UNL     1       1.473  17.923  20.574  0.00  0.00    +0.000 C 
ATOM     17  C   UNL     1       1.169  16.909  19.469  0.00  0.00    +0.000 C 
ATOM     18  C   UNL     1       1.345  17.549  18.092  0.00  0.00    +0.000 C 
ENDBRANCH  15  17
ENDBRANCH   9  15
ENDBRANCH   1  12
BRANCH   1  19
ATOM     19  C   UNL     1      -1.353  10.976  18.480  0.00  0.00    +0.000 A 
ATOM     20  C   UNL     1      -1.546  10.124  17.377  0.00  0.00    +0.000 A 
ATOM     21  C   UNL     1      -2.811   9.950  16.816  0.00  0.00    +0.000 A 
ATOM     22  C   UNL     1      -3.901  10.644  17.332  0.00  0.00    +0.000 A 
ATOM     23  C   UNL     1      -3.728  11.504  18.414  0.00  0.00    +0.000 A 
ATOM     24  C   UNL     1      -2.466  11.663  18.992  0.00  0.00    +0.000 A 
ENDBRANCH   1  19
TORSDOF 5
ENDMDL
