MODEL 1
REMARK VINA RESULT:      -9.2      0.000      0.000
REMARK  Name = 
REMARK  6 active torsions:
REMARK  status: ('A' for Active; 'I' for Inactive)
REMARK    1  A    between atoms: C_1  and  C_2
REMARK    2  A    between atoms: C_4  and  C_5
REMARK    3  A    between atoms: C_9  and  C_10
REMARK    4  A    between atoms: N_12  and  C_13
REMARK    5  A    between atoms: C_18  and  C_19
REMARK    6  A    between atoms: C_19  and  C_20
REMARK                            x       y       z     vdW  Elec       q    Type
REMARK                         _______ _______ _______ _____ _____    ______ ____
ROOT
ATOM      1  C   UNL     1       2.593   7.763  18.899  0.00  0.00    +0.000 A 
ATOM      2  C   UNL     1       3.237   8.121  17.716  0.00  0.00    +0.000 A 
ATOM      3  C   UNL     1       3.855   7.159  16.920  0.00  0.00    +0.000 A 
ATOM      4  C   UNL     1       3.824   5.820  17.295  0.00  0.00    +0.000 A 
ATOM      5  F   UNL     1       4.367   4.931  16.454  0.00  0.00    +0.000 F 
ATOM      6  C   UNL     1       3.214   5.408  18.482  0.00  0.00    +0.000 A 
ATOM      7  C   UNL     1       2.617   6.415  19.291  0.00  0.00    +0.000 A 
ENDROOT
BRANCH   6   8
ATOM      8  C   UNL     1       3.063   3.916  18.857  0.00  0.00    +0.000 C 
ATOM      9  N   UNL     1       2.949   3.856  20.340  0.00  0.00    +0.000 NA
ATOM     10  C   UNL     1       2.033   3.218  20.961  0.00  0.00    +0.000 C 
ATOM     11  N   UNL     1       2.077   3.219  22.323  0.00  0.00    +0.000 N 
ATOM     12  C   UNL     1       0.923   2.447  20.314  0.00  0.00    +0.000 C 
ATOM     13  C   UNL     1       0.734   2.661  18.833  0.00  0.00    +0.000 C 
ATOM     14  C   UNL     1       1.863   3.316  18.065  0.00  0.00    +0.000 C 
ATOM     15  F   UNL     1       2.302   2.406  17.141  0.00  0.00    +0.000 F 
ATOM     16  F   UNL     1       1.268   4.283  17.294  0.00  0.00    +0.000 F 
ATOM     17  H   UNL     1       2.993   3.472  22.686  0.00  0.00    +0.000 HD
ATOM     18  H   UNL     1       1.651   2.441  22.813  0.00  0.00    +0.000 HD
BRANCH   8  19
ATOM     19  C   UNL     1       4.292   3.033  18.484  0.00  0.00    +0.000 C 
ATOM     20  F   UNL     1       5.450   3.574  18.951  0.00  0.00    +0.000 F 
ATOM     21  F   UNL     1       4.181   1.814  19.096  0.00  0.00    +0.000 F 
ENDBRANCH   8  19
ENDBRANCH   6   8
BRANCH   1  24
ATOM     22  C   UNL     1       0.888   9.552  19.279  0.00  0.00    +0.000 C 
ATOM     23  O   UNL     1       0.435   9.602  18.142  0.00  0.00    +0.000 OA
ATOM     24  N   UNL     1       1.900   8.698  19.705  0.00  0.00    +0.000 N 
ATOM     25  H   UNL     1       2.078   8.702  20.706  0.00  0.00    +0.000 HD
BRANCH  22  32
ATOM     26  C   UNL     1      -0.447   8.456  21.803  0.00  0.00    +0.000 C 
ATOM     27  C   UNL     1      -0.307   9.923  21.512  0.00  0.00    +0.000 A 
ATOM     28  C   UNL     1      -0.833  10.843  22.436  0.00  0.00    +0.000 A 
ATOM     29  C   UNL     1      -0.730  12.212  22.202  0.00  0.00    +0.000 A 
ATOM     30  C   UNL     1      -0.095  12.626  21.042  0.00  0.00    +0.000 A 
ATOM     31  N   UNL     1       0.438  11.782  20.121  0.00  0.00    +0.000 NA
ATOM     32  C   UNL     1       0.312  10.439  20.362  0.00  0.00    +0.000 A 
BRANCH  29  33
ATOM     33  C   UNL     1      -1.261  13.164  23.127  0.00  0.00    +0.000 C 
ATOM     34  N   UNL     1      -1.697  13.934  23.877  0.00  0.00    +0.000 NA
ENDBRANCH  29  33
ENDBRANCH  22  32
ENDBRANCH   1  24
TORSDOF 5
ENDMDL
MODEL 2
REMARK VINA RESULT:      -9.1      1.030      1.055
REMARK  Name = 
REMARK  6 active torsions:
REMARK  status: ('A' for Active; 'I' for Inactive)
REMARK    1  A    between atoms: C_1  and  C_2
REMARK    2  A    between atoms: C_4  and  C_5
REMARK    3  A    between atoms: C_9  and  C_10
REMARK    4  A    between atoms: N_12  and  C_13
REMARK    5  A    between atoms: C_18  and  C_19
REMARK    6  A    between atoms: C_19  and  C_20
REMARK                            x       y       z     vdW  Elec       q    Type
REMARK                         _______ _______ _______ _____ _____    ______ ____
ROOT
ATOM      1  C   UNL     1       1.998   8.059  19.215  0.00  0.00    +0.000 A 
ATOM      2  C   UNL     1       2.624   8.601  18.094  0.00  0.00    +0.000 A 
ATOM      3  C   UNL     1       3.424   7.810  17.272  0.00  0.00    +0.000 A 
ATOM      4  C   UNL     1       3.595   6.459  17.557  0.00  0.00    +0.000 A 
ATOM      5  F   UNL     1       4.310   5.732  16.690  0.00  0.00    +0.000 F 
ATOM      6  C   UNL     1       3.010   5.870  18.680  0.00  0.00    +0.000 A 
ATOM      7  C   UNL     1       2.224   6.707  19.520  0.00  0.00    +0.000 A 
ENDROOT
BRANCH   6   8
ATOM      8  C   UNL     1       3.087   4.350  18.948  0.00  0.00    +0.000 C 
ATOM      9  N   UNL     1       2.915   4.164  20.415  0.00  0.00    +0.000 NA
ATOM     10  C   UNL     1       2.087   3.343  20.938  0.00  0.00    +0.000 C 
ATOM     11  N   UNL     1       2.066   3.252  22.298  0.00  0.00    +0.000 N 
ATOM     12  C   UNL     1       1.150   2.455  20.179  0.00  0.00    +0.000 C 
ATOM     13  C   UNL     1       0.998   2.744  18.706  0.00  0.00    +0.000 C 
ATOM     14  C   UNL     1       2.041   3.626  18.049  0.00  0.00    +0.000 C 
ATOM     15  F   UNL     1       2.665   2.868  17.096  0.00  0.00    +0.000 F 
ATOM     16  F   UNL     1       1.332   4.539  17.309  0.00  0.00    +0.000 F 
ATOM     17  H   UNL     1       2.910   3.620  22.730  0.00  0.00    +0.000 HD
ATOM     18  H   UNL     1       1.750   2.382  22.710  0.00  0.00    +0.000 HD
BRANCH   8  19
ATOM     19  C   UNL     1       4.460   3.704  18.591  0.00  0.00    +0.000 C 
ATOM     20  F   UNL     1       5.493   4.411  19.125  0.00  0.00    +0.000 F 
ATOM     21  F   UNL     1       4.538   2.458  19.150  0.00  0.00    +0.000 F 
ENDBRANCH   8  19
ENDBRANCH   6   8
BRANCH   1  24
ATOM     22  C   UNL     1       0.861  10.171  19.925  0.00  0.00    +0.000 C 
ATOM     23  O   UNL     1       1.328  10.914  19.070  0.00  0.00    +0.000 OA
ATOM     24  N   UNL     1       1.128   8.811  20.042  0.00  0.00    +0.000 N 
ATOM     25  H   UNL     1       0.570   8.318  20.735  0.00  0.00    +0.000 HD
BRANCH  22  32
ATOM     26  C   UNL     1       0.794   9.254  22.841  0.00  0.00    +0.000 C 
ATOM     27  C   UNL     1      -0.150  10.275  22.274  0.00  0.00    +0.000 A 
ATOM     28  C   UNL     1      -1.129  10.826  23.120  0.00  0.00    +0.000 A 
ATOM     29  C   UNL     1      -2.029  11.771  22.632  0.00  0.00    +0.000 A 
ATOM     30  C   UNL     1      -1.919  12.145  21.302  0.00  0.00    +0.000 A 
ATOM     31  N   UNL     1      -0.989  11.653  20.445  0.00  0.00    +0.000 NA
ATOM     32  C   UNL     1      -0.124  10.712  20.940  0.00  0.00    +0.000 A 
BRANCH  29  33
ATOM     33  C   UNL     1      -3.034  12.341  23.474  0.00  0.00    +0.000 C 
ATOM     34  N   UNL     1      -3.853  12.802  24.153  0.00  0.00    +0.000 NA
ENDBRANCH  29  33
ENDBRANCH  22  32
ENDBRANCH   1  24
TORSDOF 5
ENDMDL
MODEL 3
REMARK VINA RESULT:      -8.9      2.576      4.392
REMARK  Name = 
REMARK  6 active torsions:
REMARK  status: ('A' for Active; 'I' for Inactive)
REMARK    1  A    between atoms: C_1  and  C_2
REMARK    2  A    between atoms: C_4  and  C_5
REMARK    3  A    between atoms: C_9  and  C_10
REMARK    4  A    between atoms: N_12  and  C_13
REMARK    5  A    between atoms: C_18  and  C_19
REMARK    6  A    between atoms: C_19  and  C_20
REMARK                            x       y       z     vdW  Elec       q    Type
REMARK                         _______ _______ _______ _____ _____    ______ ____
ROOT
ATOM      1  C   UNL     1       2.537   6.856  18.517  0.00  0.00    +0.000 A 
ATOM      2  C   UNL     1       1.829   5.672  18.318  0.00  0.00    +0.000 A 
ATOM      3  C   UNL     1       2.436   4.571  17.717  0.00  0.00    +0.000 A 
ATOM      4  C   UNL     1       3.767   4.638  17.320  0.00  0.00    +0.000 A 
ATOM      5  F   UNL     1       4.319   3.527  16.820  0.00  0.00    +0.000 F 
ATOM      6  C   UNL     1       4.516   5.808  17.474  0.00  0.00    +0.000 A 
ATOM      7  C   UNL     1       3.864   6.927  18.062  0.00  0.00    +0.000 A 
ENDROOT
BRANCH   6   8
ATOM      8  C   UNL     1       6.026   5.867  17.152  0.00  0.00    +0.000 C 
ATOM      9  N   UNL     1       6.381   7.307  17.024  0.00  0.00    +0.000 NA
ATOM     10  C   UNL     1       7.364   7.857  17.627  0.00  0.00    +0.000 C 
ATOM     11  N   UNL     1       7.593   9.179  17.383  0.00  0.00    +0.000 N 
ATOM     12  C   UNL     1       8.303   7.163  18.565  0.00  0.00    +0.000 C 
ATOM     13  C   UNL     1       7.896   5.785  19.023  0.00  0.00    +0.000 C 
ATOM     14  C   UNL     1       6.807   5.076  18.244  0.00  0.00    +0.000 C 
ATOM     15  F   UNL     1       7.364   3.944  17.714  0.00  0.00    +0.000 F 
ATOM     16  F   UNL     1       5.941   4.586  19.190  0.00  0.00    +0.000 F 
ATOM     17  H   UNL     1       7.147   9.504  16.530  0.00  0.00    +0.000 HD
ATOM     18  H   UNL     1       8.537   9.527  17.502  0.00  0.00    +0.000 HD
BRANCH   8  19
ATOM     19  C   UNL     1       6.421   5.206  15.797  0.00  0.00    +0.000 C 
ATOM     20  F   UNL     1       5.620   5.636  14.785  0.00  0.00    +0.000 F 
ATOM     21  F   UNL     1       7.688   5.588  15.453  0.00  0.00    +0.000 F 
ENDBRANCH   8  19
ENDBRANCH   6   8
BRANCH   1  24
ATOM     22  C   UNL     1       1.521   9.141  18.569  0.00  0.00    +0.000 C 
ATOM     23  O   UNL     1       1.515   9.354  17.363  0.00  0.00    +0.000 OA
ATOM     24  N   UNL     1       1.980   7.977  19.178  0.00  0.00    +0.000 N 
ATOM     25  H   UNL     1       1.808   7.916  20.178  0.00  0.00    +0.000 HD
BRANCH  22  32
ATOM     26  C   UNL     1       2.218  12.114  18.407  0.00  0.00    +0.000 C 
ATOM     27  C   UNL     1       1.296  11.536  19.442  0.00  0.00    +0.000 A 
ATOM     28  C   UNL     1       0.738  12.401  20.400  0.00  0.00    +0.000 A 
ATOM     29  C   UNL     1      -0.117  11.905  21.382  0.00  0.00    +0.000 A 
ATOM     30  C   UNL     1      -0.396  10.548  21.374  0.00  0.00    +0.000 A 
ATOM     31  N   UNL     1       0.108   9.670  20.469  0.00  0.00    +0.000 NA
ATOM     32  C   UNL     1       0.961  10.175  19.522  0.00  0.00    +0.000 A 
BRANCH  29  33
ATOM     33  C   UNL     1      -0.693  12.766  22.367  0.00  0.00    +0.000 C 
ATOM     34  N   UNL     1      -1.166  13.463  23.164  0.00  0.00    +0.000 NA
ENDBRANCH  29  33
ENDBRANCH  22  32
ENDBRANCH   1  24
TORSDOF 5
ENDMDL
MODEL 4
REMARK VINA RESULT:      -8.8      1.172      1.457
REMARK  Name = 
REMARK  6 active torsions:
REMARK  status: ('A' for Active; 'I' for Inactive)
REMARK    1  A    between atoms: C_1  and  C_2
REMARK    2  A    between atoms: C_4  and  C_5
REMARK    3  A    between atoms: C_9  and  C_10
REMARK    4  A    between atoms: N_12  and  C_13
REMARK    5  A    between atoms: C_18  and  C_19
REMARK    6  A    between atoms: C_19  and  C_20
REMARK                            x       y       z     vdW  Elec       q    Type
REMARK                         _______ _______ _______ _____ _____    ______ ____
ROOT
ATOM      1  C   UNL     1       2.012   8.089  19.060  0.00  0.00    +0.000 A 
ATOM      2  C   UNL     1       2.712   8.610  17.974  0.00  0.00    +0.000 A 
ATOM      3  C   UNL     1       3.561   7.804  17.219  0.00  0.00    +0.000 A 
ATOM      4  C   UNL     1       3.709   6.457  17.536  0.00  0.00    +0.000 A 
ATOM      5  F   UNL     1       4.476   5.714  16.731  0.00  0.00    +0.000 F 
ATOM      6  C   UNL     1       3.049   5.889  18.629  0.00  0.00    +0.000 A 
ATOM      7  C   UNL     1       2.213   6.742  19.401  0.00  0.00    +0.000 A 
ENDROOT
BRANCH   6   8
ATOM      8  C   UNL     1       3.104   4.373  18.926  0.00  0.00    +0.000 C 
ATOM      9  N   UNL     1       2.926   4.218  20.396  0.00  0.00    +0.000 NA
ATOM     10  C   UNL     1       2.085   3.420  20.934  0.00  0.00    +0.000 C 
ATOM     11  N   UNL     1       2.061   3.355  22.295  0.00  0.00    +0.000 N 
ATOM     12  C   UNL     1       1.137   2.531  20.190  0.00  0.00    +0.000 C 
ATOM     13  C   UNL     1       0.992   2.793  18.712  0.00  0.00    +0.000 C 
ATOM     14  C   UNL     1       2.048   3.647  18.040  0.00  0.00    +0.000 C 
ATOM     15  F   UNL     1       2.663   2.861  17.103  0.00  0.00    +0.000 F 
ATOM     16  F   UNL     1       1.354   4.555  17.281  0.00  0.00    +0.000 F 
ATOM     17  H   UNL     1       2.909   3.720  22.721  0.00  0.00    +0.000 HD
ATOM     18  H   UNL     1       1.732   2.498  22.724  0.00  0.00    +0.000 HD
BRANCH   8  19
ATOM     19  C   UNL     1       4.468   3.701  18.585  0.00  0.00    +0.000 C 
ATOM     20  F   UNL     1       5.505   4.363  19.166  0.00  0.00    +0.000 F 
ATOM     21  F   UNL     1       4.498   2.437  19.108  0.00  0.00    +0.000 F 
ENDBRANCH   8  19
ENDBRANCH   6   8
BRANCH   1  24
ATOM     22  C   UNL     1       1.001  10.244  19.828  0.00  0.00    +0.000 C 
ATOM     23  O   UNL     1       1.695  11.005  19.165  0.00  0.00    +0.000 OA
ATOM     24  N   UNL     1       1.092   8.856  19.816  0.00  0.00    +0.000 N 
ATOM     25  H   UNL     1       0.366   8.370  20.336  0.00  0.00    +0.000 HD
BRANCH  22  32
ATOM     26  C   UNL     1      -1.440  11.739  18.752  0.00  0.00    +0.000 C 
ATOM     27  C   UNL     1      -1.199  11.492  20.215  0.00  0.00    +0.000 A 
ATOM     28  C   UNL     1      -2.133  11.989  21.141  0.00  0.00    +0.000 A 
ATOM     29  C   UNL     1      -1.944  11.788  22.507  0.00  0.00    +0.000 A 
ATOM     30  C   UNL     1      -0.820  11.085  22.909  0.00  0.00    +0.000 A 
ATOM     31  N   UNL     1       0.107  10.575  22.058  0.00  0.00    +0.000 NA
ATOM     32  C   UNL     1      -0.088  10.799  20.720  0.00  0.00    +0.000 A 
BRANCH  29  33
ATOM     33  C   UNL     1      -2.879  12.288  23.465  0.00  0.00    +0.000 C 
ATOM     34  N   UNL     1      -3.642  12.690  24.241  0.00  0.00    +0.000 NA
ENDBRANCH  29  33
ENDBRANCH  22  32
ENDBRANCH   1  24
TORSDOF 5
ENDMDL
MODEL 5
REMARK VINA RESULT:      -8.8      2.616      4.410
REMARK  Name = 
REMARK  6 active torsions:
REMARK  status: ('A' for Active; 'I' for Inactive)
REMARK    1  A    between atoms: C_1  and  C_2
REMARK    2  A    between atoms: C_4  and  C_5
REMARK    3  A    between atoms: C_9  and  C_10
REMARK    4  A    between atoms: N_12  and  C_13
REMARK    5  A    between atoms: C_18  and  C_19
REMARK    6  A    between atoms: C_19  and  C_20
REMARK                            x       y       z     vdW  Elec       q    Type
REMARK                         _______ _______ _______ _____ _____    ______ ____
ROOT
ATOM      1  C   UNL     1       2.550   6.388  18.311  0.00  0.00    +0.000 A 
ATOM      2  C   UNL     1       1.954   5.156  18.047  0.00  0.00    +0.000 A 
ATOM      3  C   UNL     1       2.671   4.134  17.428  0.00  0.00    +0.000 A 
ATOM      4  C   UNL     1       4.003   4.330  17.079  0.00  0.00    +0.000 A 
ATOM      5  F   UNL     1       4.664   3.290  16.559  0.00  0.00    +0.000 F 
ATOM      6  C   UNL     1       4.643   5.553  17.299  0.00  0.00    +0.000 A 
ATOM      7  C   UNL     1       3.878   6.589  17.903  0.00  0.00    +0.000 A 
ENDROOT
BRANCH   6   8
ATOM      8  C   UNL     1       6.152   5.753  17.030  0.00  0.00    +0.000 C 
ATOM      9  N   UNL     1       6.380   7.222  16.941  0.00  0.00    +0.000 NA
ATOM     10  C   UNL     1       7.290   7.843  17.588  0.00  0.00    +0.000 C 
ATOM     11  N   UNL     1       7.407   9.185  17.378  0.00  0.00    +0.000 N 
ATOM     12  C   UNL     1       8.256   7.214  18.544  0.00  0.00    +0.000 C 
ATOM     13  C   UNL     1       7.959   5.796  18.962  0.00  0.00    +0.000 C 
ATOM     14  C   UNL     1       6.964   5.010  18.132  0.00  0.00    +0.000 C 
ATOM     15  F   UNL     1       7.637   3.945  17.600  0.00  0.00    +0.000 F 
ATOM     16  F   UNL     1       6.116   4.424  19.038  0.00  0.00    +0.000 F 
ATOM     17  H   UNL     1       6.961   9.488  16.516  0.00  0.00    +0.000 HD
ATOM     18  H   UNL     1       8.311   9.613  17.535  0.00  0.00    +0.000 HD
BRANCH   8  19
ATOM     19  C   UNL     1       6.647   5.160  15.676  0.00  0.00    +0.000 C 
ATOM     20  F   UNL     1       5.806   5.484  14.657  0.00  0.00    +0.000 F 
ATOM     21  F   UNL     1       7.855   5.712  15.350  0.00  0.00    +0.000 F 
ENDBRANCH   8  19
ENDBRANCH   6   8
BRANCH   1  24
ATOM     22  C   UNL     1       1.660   8.717  18.507  0.00  0.00    +0.000 C 
ATOM     23  O   UNL     1       2.003   9.125  17.404  0.00  0.00    +0.000 OA
ATOM     24  N   UNL     1       1.878   7.431  18.992  0.00  0.00    +0.000 N 
ATOM     25  H   UNL     1       1.429   7.222  19.880  0.00  0.00    +0.000 HD
BRANCH  22  32
ATOM     26  C   UNL     1      -0.975  10.071  17.750  0.00  0.00    +0.000 C 
ATOM     27  C   UNL     1      -0.306  10.250  19.083  0.00  0.00    +0.000 A 
ATOM     28  C   UNL     1      -0.910  11.100  20.027  0.00  0.00    +0.000 A 
ATOM     29  C   UNL     1      -0.319  11.299  21.273  0.00  0.00    +0.000 A 
ATOM     30  C   UNL     1       0.865  10.634  21.543  0.00  0.00    +0.000 A 
ATOM     31  N   UNL     1       1.486   9.796  20.672  0.00  0.00    +0.000 NA
ATOM     32  C   UNL     1       0.898   9.627  19.446  0.00  0.00    +0.000 A 
BRANCH  29  33
ATOM     33  C   UNL     1      -0.915  12.160  22.246  0.00  0.00    +0.000 C 
ATOM     34  N   UNL     1      -1.403  12.861  23.031  0.00  0.00    +0.000 NA
ENDBRANCH  29  33
ENDBRANCH  22  32
ENDBRANCH   1  24
TORSDOF 5
ENDMDL
MODEL 6
REMARK VINA RESULT:      -8.8      1.088      1.314
REMARK  Name = 
REMARK  6 active torsions:
REMARK  status: ('A' for Active; 'I' for Inactive)
REMARK    1  A    between atoms: C_1  and  C_2
REMARK    2  A    between atoms: C_4  and  C_5
REMARK    3  A    between atoms: C_9  and  C_10
REMARK    4  A    between atoms: N_12  and  C_13
REMARK    5  A    between atoms: C_18  and  C_19
REMARK    6  A    between atoms: C_19  and  C_20
REMARK                            x       y       z     vdW  Elec       q    Type
REMARK                         _______ _______ _______ _____ _____    ______ ____
ROOT
ATOM      1  C   UNL     1       2.595   7.584  18.473  0.00  0.00    +0.000 A 
ATOM      2  C   UNL     1       3.478   7.887  17.439  0.00  0.00    +0.000 A 
ATOM      3  C   UNL     1       4.278   6.897  16.871  0.00  0.00    +0.000 A 
ATOM      4  C   UNL     1       4.192   5.585  17.326  0.00  0.00    +0.000 A 
ATOM      5  F   UNL     1       4.926   4.663  16.693  0.00  0.00    +0.000 F 
ATOM      6  C   UNL     1       3.341   5.231  18.376  0.00  0.00    +0.000 A 
ATOM      7  C   UNL     1       2.559   6.267  18.959  0.00  0.00    +0.000 A 
ENDROOT
BRANCH   6   8
ATOM      8  C   UNL     1       3.141   3.763  18.816  0.00  0.00    +0.000 C 
ATOM      9  N   UNL     1       2.999   3.775  20.298  0.00  0.00    +0.000 NA
ATOM     10  C   UNL     1       2.053   3.191  20.929  0.00  0.00    +0.000 C 
ATOM     11  N   UNL     1       2.073   3.254  22.291  0.00  0.00    +0.000 N 
ATOM     12  C   UNL     1       0.934   2.422  20.296  0.00  0.00    +0.000 C 
ATOM     13  C   UNL     1       0.778   2.572  18.804  0.00  0.00    +0.000 C 
ATOM     14  C   UNL     1       1.940   3.160  18.028  0.00  0.00    +0.000 C 
ATOM     15  F   UNL     1       2.369   2.196  17.157  0.00  0.00    +0.000 F 
ATOM     16  F   UNL     1       1.386   4.106  17.202  0.00  0.00    +0.000 F 
ATOM     17  H   UNL     1       2.988   3.498  22.659  0.00  0.00    +0.000 HD
ATOM     18  H   UNL     1       1.616   2.511  22.806  0.00  0.00    +0.000 HD
BRANCH   8  19
ATOM     19  C   UNL     1       4.351   2.830  18.508  0.00  0.00    +0.000 C 
ATOM     20  F   UNL     1       5.478   3.256  19.142  0.00  0.00    +0.000 F 
ATOM     21  F   UNL     1       4.101   1.579  19.001  0.00  0.00    +0.000 F 
ENDBRANCH   8  19
ENDBRANCH   6   8
BRANCH   1  24
ATOM     22  C   UNL     1       1.491   9.827  18.549  0.00  0.00    +0.000 C 
ATOM     23  O   UNL     1       2.002  10.304  17.542  0.00  0.00    +0.000 OA
ATOM     24  N   UNL     1       1.720   8.545  19.037  0.00  0.00    +0.000 N 
ATOM     25  H   UNL     1       1.130   8.266  19.816  0.00  0.00    +0.000 HD
BRANCH  22  32
ATOM     26  C   UNL     1      -1.431  10.160  17.713  0.00  0.00    +0.000 C 
ATOM     27  C   UNL     1      -0.846  10.791  18.945  0.00  0.00    +0.000 A 
ATOM     28  C   UNL     1      -1.678  11.592  19.747  0.00  0.00    +0.000 A 
ATOM     29  C   UNL     1      -1.173  12.200  20.895  0.00  0.00    +0.000 A 
ATOM     30  C   UNL     1       0.158  11.984  21.212  0.00  0.00    +0.000 A 
ATOM     31  N   UNL     1       1.002  11.214  20.478  0.00  0.00    +0.000 NA
ATOM     32  C   UNL     1       0.491  10.638  19.345  0.00  0.00    +0.000 A 
BRANCH  29  33
ATOM     33  C   UNL     1      -2.001  13.021  21.723  0.00  0.00    +0.000 C 
ATOM     34  N   UNL     1      -2.677  13.685  22.391  0.00  0.00    +0.000 NA
ENDBRANCH  29  33
ENDBRANCH  22  32
ENDBRANCH   1  24
TORSDOF 5
ENDMDL
MODEL 7
REMARK VINA RESULT:      -8.7      1.227      1.940
REMARK  Name = 
REMARK  6 active torsions:
REMARK  status: ('A' for Active; 'I' for Inactive)
REMARK    1  A    between atoms: C_1  and  C_2
REMARK    2  A    between atoms: C_4  and  C_5
REMARK    3  A    between atoms: C_9  and  C_10
REMARK    4  A    between atoms: N_12  and  C_13
REMARK    5  A    between atoms: C_18  and  C_19
REMARK    6  A    between atoms: C_19  and  C_20
REMARK                            x       y       z     vdW  Elec       q    Type
REMARK                         _______ _______ _______ _____ _____    ______ ____
ROOT
ATOM      1  C   UNL     1       2.317   7.849  19.218  0.00  0.00    +0.000 A 
ATOM      2  C   UNL     1       3.079   8.146  18.089  0.00  0.00    +0.000 A 
ATOM      3  C   UNL     1       3.634   7.128  17.316  0.00  0.00    +0.000 A 
ATOM      4  C   UNL     1       3.422   5.797  17.659  0.00  0.00    +0.000 A 
ATOM      5  F   UNL     1       3.914   4.862  16.838  0.00  0.00    +0.000 F 
ATOM      6  C   UNL     1       2.687   5.444  18.793  0.00  0.00    +0.000 A 
ATOM      7  C   UNL     1       2.156   6.503  19.582  0.00  0.00    +0.000 A 
ENDROOT
BRANCH   6   8
ATOM      8  C   UNL     1       2.337   3.976  19.124  0.00  0.00    +0.000 C 
ATOM      9  N   UNL     1       3.627   3.238  19.217  0.00  0.00    +0.000 NA
ATOM     10  C   UNL     1       3.948   2.481  20.194  0.00  0.00    +0.000 C 
ATOM     11  N   UNL     1       5.148   1.838  20.124  0.00  0.00    +0.000 N 
ATOM     12  C   UNL     1       3.103   2.222  21.404  0.00  0.00    +0.000 C 
ATOM     13  C   UNL     1       1.910   3.125  21.593  0.00  0.00    +0.000 C 
ATOM     14  C   UNL     1       1.450   3.944  20.405  0.00  0.00    +0.000 C 
ATOM     15  F   UNL     1       0.180   3.534  20.102  0.00  0.00    +0.000 F 
ATOM     16  F   UNL     1       1.263   5.215  20.888  0.00  0.00    +0.000 F 
ATOM     17  H   UNL     1       5.516   1.795  19.178  0.00  0.00    +0.000 HD
ATOM     18  H   UNL     1       5.251   0.969  20.636  0.00  0.00    +0.000 HD
BRANCH   8  19
ATOM     19  C   UNL     1       1.505   3.250  18.024  0.00  0.00    +0.000 C 
ATOM     20  F   UNL     1       0.906   4.141  17.188  0.00  0.00    +0.000 F 
ATOM     21  F   UNL     1       2.340   2.507  17.235  0.00  0.00    +0.000 F 
ENDBRANCH   8  19
ENDBRANCH   6   8
BRANCH   1  24
ATOM     22  C   UNL     1       0.683   9.712  19.559  0.00  0.00    +0.000 C 
ATOM     23  O   UNL     1       0.191   9.717  18.437  0.00  0.00    +0.000 OA
ATOM     24  N   UNL     1       1.682   8.849  19.995  0.00  0.00    +0.000 N 
ATOM     25  H   UNL     1       1.897   8.901  20.988  0.00  0.00    +0.000 HD
BRANCH  22  32
ATOM     26  C   UNL     1      -0.566   8.797  22.195  0.00  0.00    +0.000 C 
ATOM     27  C   UNL     1      -0.406  10.241  21.813  0.00  0.00    +0.000 A 
ATOM     28  C   UNL     1      -0.871  11.226  22.704  0.00  0.00    +0.000 A 
ATOM     29  C   UNL     1      -0.747  12.576  22.385  0.00  0.00    +0.000 A 
ATOM     30  C   UNL     1      -0.153  12.906  21.178  0.00  0.00    +0.000 A 
ATOM     31  N   UNL     1       0.321  11.998  20.287  0.00  0.00    +0.000 NA
ATOM     32  C   UNL     1       0.175  10.674  20.611  0.00  0.00    +0.000 A 
BRANCH  29  33
ATOM     33  C   UNL     1      -1.215  13.593  23.274  0.00  0.00    +0.000 C 
ATOM     34  N   UNL     1      -1.601  14.416  23.994  0.00  0.00    +0.000 NA
ENDBRANCH  29  33
ENDBRANCH  22  32
ENDBRANCH   1  24
TORSDOF 5
ENDMDL
MODEL 8
REMARK VINA RESULT:      -8.7      2.463      4.149
REMARK  Name = 
REMARK  6 active torsions:
REMARK  status: ('A' for Active; 'I' for Inactive)
REMARK    1  A    between atoms: C_1  and  C_2
REMARK    2  A    between atoms: C_4  and  C_5
REMARK    3  A    between atoms: C_9  and  C_10
REMARK    4  A    between atoms: N_12  and  C_13
REMARK    5  A    between atoms: C_18  and  C_19
REMARK    6  A    between atoms: C_19  and  C_20
REMARK                            x       y       z     vdW  Elec       q    Type
REMARK                         _______ _______ _______ _____ _____    ______ ____
ROOT
ATOM      1  C   UNL     1       2.535   6.935  18.655  0.00  0.00    +0.000 A 
ATOM      2  C   UNL     1       1.783   5.780  18.445  0.00  0.00    +0.000 A 
ATOM      3  C   UNL     1       2.338   4.675  17.803  0.00  0.00    +0.000 A 
ATOM      4  C   UNL     1       3.661   4.709  17.375  0.00  0.00    +0.000 A 
ATOM      5  F   UNL     1       4.164   3.593  16.835  0.00  0.00    +0.000 F 
ATOM      6  C   UNL     1       4.452   5.849  17.539  0.00  0.00    +0.000 A 
ATOM      7  C   UNL     1       3.851   6.974  18.169  0.00  0.00    +0.000 A 
ENDROOT
BRANCH   6   8
ATOM      8  C   UNL     1       5.956   5.867  17.181  0.00  0.00    +0.000 C 
ATOM      9  N   UNL     1       6.347   7.297  17.049  0.00  0.00    +0.000 NA
ATOM     10  C   UNL     1       7.360   7.817  17.630  0.00  0.00    +0.000 C 
ATOM     11  N   UNL     1       7.619   9.133  17.385  0.00  0.00    +0.000 N 
ATOM     12  C   UNL     1       8.301   7.093  18.543  0.00  0.00    +0.000 C 
ATOM     13  C   UNL     1       7.866   5.726  19.007  0.00  0.00    +0.000 C 
ATOM     14  C   UNL     1       6.739   5.050  18.251  0.00  0.00    +0.000 C 
ATOM     15  F   UNL     1       7.252   3.905  17.705  0.00  0.00    +0.000 F 
ATOM     16  F   UNL     1       5.883   4.581  19.216  0.00  0.00    +0.000 F 
ATOM     17  H   UNL     1       7.162   9.473  16.543  0.00  0.00    +0.000 HD
ATOM     18  H   UNL     1       8.576   9.454  17.482  0.00  0.00    +0.000 HD
BRANCH   8  19
ATOM     19  C   UNL     1       6.299   5.200  15.815  0.00  0.00    +0.000 C 
ATOM     20  F   UNL     1       5.489   5.660  14.822  0.00  0.00    +0.000 F 
ATOM     21  F   UNL     1       7.569   5.544  15.444  0.00  0.00    +0.000 F 
ENDBRANCH   8  19
ENDBRANCH   6   8
BRANCH   1  24
ATOM     22  C   UNL     1       1.302   9.106  18.805  0.00  0.00    +0.000 C 
ATOM     23  O   UNL     1       0.971   9.198  17.629  0.00  0.00    +0.000 OA
ATOM     24  N   UNL     1       2.031   8.057  19.356  0.00  0.00    +0.000 N 
ATOM     25  H   UNL     1       2.121   8.078  20.369  0.00  0.00    +0.000 HD
BRANCH  22  32
ATOM     26  C   UNL     1      -0.219   8.478  21.382  0.00  0.00    +0.000 C 
ATOM     27  C   UNL     1       0.170   9.869  20.970  0.00  0.00    +0.000 A 
ATOM     28  C   UNL     1      -0.199  10.942  21.800  0.00  0.00    +0.000 A 
ATOM     29  C   UNL     1       0.137  12.248  21.452  0.00  0.00    +0.000 A 
ATOM     30  C   UNL     1       0.843  12.445  20.276  0.00  0.00    +0.000 A 
ATOM     31  N   UNL     1       1.231  11.446  19.443  0.00  0.00    +0.000 NA
ATOM     32  C   UNL     1       0.877  10.170  19.795  0.00  0.00    +0.000 A 
BRANCH  29  33
ATOM     33  C   UNL     1      -0.231  13.354  22.280  0.00  0.00    +0.000 C 
ATOM     34  N   UNL     1      -0.535  14.248  22.953  0.00  0.00    +0.000 NA
ENDBRANCH  29  33
ENDBRANCH  22  32
ENDBRANCH   1  24
TORSDOF 5
ENDMDL
MODEL 9
REMARK VINA RESULT:      -8.7      0.763      1.341
REMARK  Name = 
REMARK  6 active torsions:
REMARK  status: ('A' for Active; 'I' for Inactive)
REMARK    1  A    between atoms: C_1  and  C_2
REMARK    2  A    between atoms: C_4  and  C_5
REMARK    3  A    between atoms: C_9  and  C_10
REMARK    4  A    between atoms: N_12  and  C_13
REMARK    5  A    between atoms: C_18  and  C_19
REMARK    6  A    between atoms: C_19  and  C_20
REMARK                            x       y       z     vdW  Elec       q    Type
REMARK                         _______ _______ _______ _____ _____    ______ ____
ROOT
ATOM      1  C   UNL     1       2.792   7.660  18.656  0.00  0.00    +0.000 A 
ATOM      2  C   UNL     1       3.499   7.932  17.486  0.00  0.00    +0.000 A 
ATOM      3  C   UNL     1       4.112   6.907  16.769  0.00  0.00    +0.000 A 
ATOM      4  C   UNL     1       4.012   5.591  17.208  0.00  0.00    +0.000 A 
ATOM      5  F   UNL     1       4.554   4.641  16.439  0.00  0.00    +0.000 F 
ATOM      6  C   UNL     1       3.335   5.266  18.387  0.00  0.00    +0.000 A 
ATOM      7  C   UNL     1       2.745   6.334  19.116  0.00  0.00    +0.000 A 
ENDROOT
BRANCH   6   8
ATOM      8  C   UNL     1       3.108   3.802  18.828  0.00  0.00    +0.000 C 
ATOM      9  N   UNL     1       2.985   3.816  20.312  0.00  0.00    +0.000 NA
ATOM     10  C   UNL     1       2.034   3.253  20.955  0.00  0.00    +0.000 C 
ATOM     11  N   UNL     1       2.072   3.315  22.316  0.00  0.00    +0.000 N 
ATOM     12  C   UNL     1       0.891   2.509  20.336  0.00  0.00    +0.000 C 
ATOM     13  C   UNL     1       0.720   2.663  18.845  0.00  0.00    +0.000 C 
ATOM     14  C   UNL     1       1.884   3.225  18.056  0.00  0.00    +0.000 C 
ATOM     15  F   UNL     1       2.281   2.253  17.179  0.00  0.00    +0.000 F 
ATOM     16  F   UNL     1       1.341   4.183  17.237  0.00  0.00    +0.000 F 
ATOM     17  H   UNL     1       2.997   3.539  22.673  0.00  0.00    +0.000 HD
ATOM     18  H   UNL     1       1.606   2.583  22.837  0.00  0.00    +0.000 HD
BRANCH   8  19
ATOM     19  C   UNL     1       4.294   2.843  18.506  0.00  0.00    +0.000 C 
ATOM     20  F   UNL     1       5.474   3.344  18.962  0.00  0.00    +0.000 F 
ATOM     21  F   UNL     1       4.116   1.658  19.166  0.00  0.00    +0.000 F 
ENDBRANCH   8  19
ENDBRANCH   6   8
BRANCH   1  24
ATOM     22  C   UNL     1       1.092   9.481  18.888  0.00  0.00    +0.000 C 
ATOM     23  O   UNL     1       0.638   9.438  17.751  0.00  0.00    +0.000 OA
ATOM     24  N   UNL     1       2.102   8.661  19.382  0.00  0.00    +0.000 N 
ATOM     25  H   UNL     1       2.281   8.749  20.379  0.00  0.00    +0.000 HD
BRANCH  22  32
ATOM     26  C   UNL     1       1.691  12.479  18.831  0.00  0.00    +0.000 C 
ATOM     27  C   UNL     1       0.811  11.830  19.862  0.00  0.00    +0.000 A 
ATOM     28  C   UNL     1       0.248  12.638  20.866  0.00  0.00    +0.000 A 
ATOM     29  C   UNL     1      -0.569  12.075  21.845  0.00  0.00    +0.000 A 
ATOM     30  C   UNL     1      -0.804  10.711  21.788  0.00  0.00    +0.000 A 
ATOM     31  N   UNL     1      -0.293   9.887  20.837  0.00  0.00    +0.000 NA
ATOM     32  C   UNL     1       0.521  10.457  19.893  0.00  0.00    +0.000 A 
BRANCH  29  33
ATOM     33  C   UNL     1      -1.149  12.878  22.876  0.00  0.00    +0.000 C 
ATOM     34  N   UNL     1      -1.625  13.525  23.712  0.00  0.00    +0.000 NA
ENDBRANCH  29  33
ENDBRANCH  22  32
ENDBRANCH   1  24
TORSDOF 5
ENDMDL
