MODEL 1
REMARK VINA RESULT:      -7.5      0.000      0.000
REMARK  Name = 
REMARK  7 active torsions:
REMARK  status: ('A' for Active; 'I' for Inactive)
REMARK    1  A    between atoms: C_2  and  O_3
REMARK    2  A    between atoms: C_2  and  C_4
REMARK    3  A    between atoms: C_7  and  N_8
REMARK    4  A    between atoms: C_9  and  C_11
REMARK    5  A    between atoms: C_14  and  C_15
REMARK    6  A    between atoms: C_15  and  O_16
REMARK    7  A    between atoms: O_16  and  C_17
REMARK                            x       y       z     vdW  Elec       q    Type
REMARK                         _______ _______ _______ _____ _____    ______ ____
ROOT
ATOM      1  N   UNL     1       2.434   6.986  19.107  0.00  0.00    +0.000 N 
ATOM      2  C   UNL     1       2.251   5.644  19.417  0.00  0.00    +0.000 C 
ATOM      3  O   UNL     1       1.501   5.228  20.296  0.00  0.00    +0.000 OA
ATOM      4  H   UNL     1       3.093   7.173  18.358  0.00  0.00    +0.000 HD
ENDROOT
BRANCH   1   8
ATOM      5  C   UNL     1       0.359  10.296  20.769  0.00  0.00    +0.000 A 
ATOM      6  C   UNL     1       0.752   9.242  21.594  0.00  0.00    +0.000 A 
ATOM      7  C   UNL     1       1.443   8.151  21.055  0.00  0.00    +0.000 A 
ATOM      8  C   UNL     1       1.769   8.088  19.696  0.00  0.00    +0.000 A 
ATOM      9  C   UNL     1       1.410   9.170  18.881  0.00  0.00    +0.000 A 
ATOM     10  C   UNL     1       0.713  10.267  19.414  0.00  0.00    +0.000 A 
BRANCH   5  12
ATOM     11  O   UNL     1       0.062  12.189  22.175  0.00  0.00    +0.000 OA
ATOM     12  C   UNL     1      -0.383  11.471  21.294  0.00  0.00    +0.000 C 
BRANCH  12  13
ATOM     13  O   UNL     1      -1.568  11.701  20.692  0.00  0.00    +0.000 OA
ATOM     14  H   UNL     1      -1.800  12.637  20.553  0.00  0.00    +0.000 HD
ENDBRANCH  12  13
ENDBRANCH   5  12
ENDBRANCH   1   8
BRANCH   2  15
ATOM     15  C   UNL     1       3.019   4.709  18.615  0.00  0.00    +0.000 A 
ATOM     16  C   UNL     1       3.149   3.340  18.759  0.00  0.00    +0.000 A 
ATOM     17  C   UNL     1       3.984   2.892  17.716  0.00  0.00    +0.000 A 
ATOM     18  C   UNL     1       4.323   4.012  16.984  0.00  0.00    +0.000 A 
ATOM     19  O   UNL     1       3.746   5.129  17.531  0.00  0.00    +0.000 OA
BRANCH  18  20
ATOM     20  C   UNL     1       5.168   4.201  15.774  0.00  0.00    +0.000 C 
BRANCH  20  21
ATOM     21  O   UNL     1       6.524   4.079  16.203  0.00  0.00    +0.000 OA
BRANCH  21  22
ATOM     22  C   UNL     1       7.000   5.112  16.963  0.00  0.00    +0.000 A 
ATOM     23  C   UNL     1       7.540   4.745  18.199  0.00  0.00    +0.000 A 
ATOM     24  C   UNL     1       8.065   5.711  19.058  0.00  0.00    +0.000 A 
ATOM     25  C   UNL     1       8.074   7.051  18.675  0.00  0.00    +0.000 A 
ATOM     26  C   UNL     1       7.559   7.420  17.434  0.00  0.00    +0.000 A 
ATOM     27  C   UNL     1       7.021   6.454  16.579  0.00  0.00    +0.000 A 
ENDBRANCH  21  22
ENDBRANCH  20  21
ENDBRANCH  18  20
ENDBRANCH   2  15
TORSDOF 7
ENDMDL
MODEL 2
REMARK VINA RESULT:      -7.4      2.069      4.129
REMARK  Name = 
REMARK  7 active torsions:
REMARK  status: ('A' for Active; 'I' for Inactive)
REMARK    1  A    between atoms: C_2  and  O_3
REMARK    2  A    between atoms: C_2  and  C_4
REMARK    3  A    between atoms: C_7  and  N_8
REMARK    4  A    between atoms: C_9  and  C_11
REMARK    5  A    between atoms: C_14  and  C_15
REMARK    6  A    between atoms: C_15  and  O_16
REMARK    7  A    between atoms: O_16  and  C_17
REMARK                            x       y       z     vdW  Elec       q    Type
REMARK                         _______ _______ _______ _____ _____    ______ ____
ROOT
ATOM      1  N   UNL     1       2.033   7.883  19.657  0.00  0.00    +0.000 N 
ATOM      2  C   UNL     1       2.445   8.007  18.336  0.00  0.00    +0.000 C 
ATOM      3  O   UNL     1       2.153   8.947  17.601  0.00  0.00    +0.000 OA
ATOM      4  H   UNL     1       2.351   7.044  20.134  0.00  0.00    +0.000 HD
ENDROOT
BRANCH   1   8
ATOM      5  C   UNL     1      -0.181  10.674  21.965  0.00  0.00    +0.000 A 
ATOM      6  C   UNL     1      -0.060  10.858  20.588  0.00  0.00    +0.000 A 
ATOM      7  C   UNL     1       0.662   9.939  19.819  0.00  0.00    +0.000 A 
ATOM      8  C   UNL     1       1.265   8.815  20.394  0.00  0.00    +0.000 A 
ATOM      9  C   UNL     1       1.102   8.611  21.771  0.00  0.00    +0.000 A 
ATOM     10  C   UNL     1       0.382   9.532  22.550  0.00  0.00    +0.000 A 
BRANCH   5  12
ATOM     11  O   UNL     1      -0.552  12.771  23.020  0.00  0.00    +0.000 OA
ATOM     12  C   UNL     1      -0.930  11.627  22.824  0.00  0.00    +0.000 C 
BRANCH  12  13
ATOM     13  O   UNL     1      -2.078  11.139  23.336  0.00  0.00    +0.000 OA
ATOM     14  H   UNL     1      -2.811  11.775  23.420  0.00  0.00    +0.000 HD
ENDBRANCH  12  13
ENDBRANCH   5  12
ENDBRANCH   1   8
BRANCH   2  15
ATOM     15  C   UNL     1       3.280   6.929  17.839  0.00  0.00    +0.000 A 
ATOM     16  C   UNL     1       4.621   6.949  17.503  0.00  0.00    +0.000 A 
ATOM     17  C   UNL     1       4.966   5.644  17.097  0.00  0.00    +0.000 A 
ATOM     18  C   UNL     1       3.815   4.890  17.205  0.00  0.00    +0.000 A 
ATOM     19  O   UNL     1       2.777   5.668  17.649  0.00  0.00    +0.000 OA
BRANCH  18  20
ATOM     20  C   UNL     1       3.527   3.456  16.930  0.00  0.00    +0.000 C 
BRANCH  20  21
ATOM     21  O   UNL     1       3.942   2.730  18.087  0.00  0.00    +0.000 OA
BRANCH  21  22
ATOM     22  C   UNL     1       3.087   2.775  19.153  0.00  0.00    +0.000 A 
ATOM     23  C   UNL     1       1.729   2.673  18.835  0.00  0.00    +0.000 A 
ATOM     24  C   UNL     1       0.762   2.697  19.840  0.00  0.00    +0.000 A 
ATOM     25  C   UNL     1       1.149   2.801  21.175  0.00  0.00    +0.000 A 
ATOM     26  C   UNL     1       2.502   2.880  21.500  0.00  0.00    +0.000 A 
ATOM     27  C   UNL     1       3.470   2.868  20.492  0.00  0.00    +0.000 A 
ENDBRANCH  21  22
ENDBRANCH  20  21
ENDBRANCH  18  20
ENDBRANCH   2  15
TORSDOF 7
ENDMDL
MODEL 3
REMARK VINA RESULT:      -7.4      4.854      7.389
REMARK  Name = 
REMARK  7 active torsions:
REMARK  status: ('A' for Active; 'I' for Inactive)
REMARK    1  A    between atoms: C_2  and  O_3
REMARK    2  A    between atoms: C_2  and  C_4
REMARK    3  A    between atoms: C_7  and  N_8
REMARK    4  A    between atoms: C_9  and  C_11
REMARK    5  A    between atoms: C_14  and  C_15
REMARK    6  A    between atoms: C_15  and  O_16
REMARK    7  A    between atoms: O_16  and  C_17
REMARK                            x       y       z     vdW  Elec       q    Type
REMARK                         _______ _______ _______ _____ _____    ______ ____
ROOT
ATOM      1  N   UNL     1       8.910   9.076  18.916  0.00  0.00    +0.000 N 
ATOM      2  C   UNL     1       8.033   8.602  17.948  0.00  0.00    +0.000 C 
ATOM      3  O   UNL     1       7.478   9.305  17.107  0.00  0.00    +0.000 OA
ATOM      4  H   UNL     1       9.284   8.371  19.545  0.00  0.00    +0.000 HD
ENDROOT
BRANCH   1   8
ATOM      5  C   UNL     1      10.318  13.039  19.492  0.00  0.00    +0.000 A 
ATOM      6  C   UNL     1      10.156  12.545  18.198  0.00  0.00    +0.000 A 
ATOM      7  C   UNL     1       9.685  11.242  17.999  0.00  0.00    +0.000 A 
ATOM      8  C   UNL     1       9.354  10.410  19.074  0.00  0.00    +0.000 A 
ATOM      9  C   UNL     1       9.478  10.927  20.371  0.00  0.00    +0.000 A 
ATOM     10  C   UNL     1       9.953  12.232  20.578  0.00  0.00    +0.000 A 
BRANCH   5  12
ATOM     11  O   UNL     1      11.852  14.627  20.372  0.00  0.00    +0.000 OA
ATOM     12  C   UNL     1      10.822  14.412  19.753  0.00  0.00    +0.000 C 
BRANCH  12  13
ATOM     13  O   UNL     1      10.072  15.396  19.217  0.00  0.00    +0.000 OA
ATOM     14  H   UNL     1      10.378  15.746  18.360  0.00  0.00    +0.000 HD
ENDBRANCH  12  13
ENDBRANCH   5  12
ENDBRANCH   1   8
BRANCH   2  15
ATOM     15  C   UNL     1       7.792   7.171  17.972  0.00  0.00    +0.000 A 
ATOM     16  C   UNL     1       8.041   6.263  18.984  0.00  0.00    +0.000 A 
ATOM     17  C   UNL     1       7.609   5.003  18.525  0.00  0.00    +0.000 A 
ATOM     18  C   UNL     1       7.116   5.204  17.251  0.00  0.00    +0.000 A 
ATOM     19  O   UNL     1       7.232   6.524  16.900  0.00  0.00    +0.000 OA
BRANCH  18  20
ATOM     20  C   UNL     1       6.520   4.280  16.249  0.00  0.00    +0.000 C 
BRANCH  20  21
ATOM     21  O   UNL     1       5.302   4.884  15.814  0.00  0.00    +0.000 OA
BRANCH  21  22
ATOM     22  C   UNL     1       4.282   4.884  16.726  0.00  0.00    +0.000 A 
ATOM     23  C   UNL     1       3.739   3.628  17.013  0.00  0.00    +0.000 A 
ATOM     24  C   UNL     1       2.699   3.500  17.935  0.00  0.00    +0.000 A 
ATOM     25  C   UNL     1       2.211   4.627  18.593  0.00  0.00    +0.000 A 
ATOM     26  C   UNL     1       2.764   5.878  18.328  0.00  0.00    +0.000 A 
ATOM     27  C   UNL     1       3.797   6.008  17.396  0.00  0.00    +0.000 A 
ENDBRANCH  21  22
ENDBRANCH  20  21
ENDBRANCH  18  20
ENDBRANCH   2  15
TORSDOF 7
ENDMDL
MODEL 4
REMARK VINA RESULT:      -7.4      0.670      1.521
REMARK  Name = 
REMARK  7 active torsions:
REMARK  status: ('A' for Active; 'I' for Inactive)
REMARK    1  A    between atoms: C_2  and  O_3
REMARK    2  A    between atoms: C_2  and  C_4
REMARK    3  A    between atoms: C_7  and  N_8
REMARK    4  A    between atoms: C_9  and  C_11
REMARK    5  A    between atoms: C_14  and  C_15
REMARK    6  A    between atoms: C_15  and  O_16
REMARK    7  A    between atoms: O_16  and  C_17
REMARK                            x       y       z     vdW  Elec       q    Type
REMARK                         _______ _______ _______ _____ _____    ______ ____
ROOT
ATOM      1  N   UNL     1       2.356   7.059  19.660  0.00  0.00    +0.000 N 
ATOM      2  C   UNL     1       2.095   5.704  19.822  0.00  0.00    +0.000 C 
ATOM      3  O   UNL     1       1.220   5.246  20.552  0.00  0.00    +0.000 OA
ATOM      4  H   UNL     1       3.117   7.281  19.025  0.00  0.00    +0.000 HD
ENDROOT
BRANCH   1   8
ATOM      5  C   UNL     1       0.325  10.290  21.520  0.00  0.00    +0.000 A 
ATOM      6  C   UNL     1       0.375  10.215  20.128  0.00  0.00    +0.000 A 
ATOM      7  C   UNL     1       1.036   9.149  19.507  0.00  0.00    +0.000 A 
ATOM      8  C   UNL     1       1.647   8.133  20.249  0.00  0.00    +0.000 A 
ATOM      9  C   UNL     1       1.556   8.190  21.646  0.00  0.00    +0.000 A 
ATOM     10  C   UNL     1       0.898   9.259  22.277  0.00  0.00    +0.000 A 
BRANCH   5  12
ATOM     11  O   UNL     1      -0.021  12.572  22.087  0.00  0.00    +0.000 OA
ATOM     12  C   UNL     1      -0.357  11.406  22.223  0.00  0.00    +0.000 C 
BRANCH  12  13
ATOM     13  O   UNL     1      -1.398  11.031  22.993  0.00  0.00    +0.000 OA
ATOM     14  H   UNL     1      -1.248  10.256  23.565  0.00  0.00    +0.000 HD
ENDBRANCH  12  13
ENDBRANCH   5  12
ENDBRANCH   1   8
BRANCH   2  15
ATOM     15  C   UNL     1       2.939   4.810  19.051  0.00  0.00    +0.000 A 
ATOM     16  C   UNL     1       3.285   3.497  19.313  0.00  0.00    +0.000 A 
ATOM     17  C   UNL     1       4.106   3.066  18.251  0.00  0.00    +0.000 A 
ATOM     18  C   UNL     1       4.221   4.139  17.392  0.00  0.00    +0.000 A 
ATOM     19  O   UNL     1       3.519   5.213  17.877  0.00  0.00    +0.000 OA
BRANCH  18  20
ATOM     20  C   UNL     1       4.944   4.319  16.104  0.00  0.00    +0.000 C 
BRANCH  20  21
ATOM     21  O   UNL     1       6.327   4.101  16.381  0.00  0.00    +0.000 OA
BRANCH  21  22
ATOM     22  C   UNL     1       6.934   5.055  17.152  0.00  0.00    +0.000 A 
ATOM     23  C   UNL     1       6.909   6.351  16.628  0.00  0.00    +0.000 A 
ATOM     24  C   UNL     1       7.488   7.409  17.330  0.00  0.00    +0.000 A 
ATOM     25  C   UNL     1       8.078   7.180  18.571  0.00  0.00    +0.000 A 
ATOM     26  C   UNL     1       8.086   5.895  19.108  0.00  0.00    +0.000 A 
ATOM     27  C   UNL     1       7.517   4.832  18.401  0.00  0.00    +0.000 A 
ENDBRANCH  21  22
ENDBRANCH  20  21
ENDBRANCH  18  20
ENDBRANCH   2  15
TORSDOF 7
ENDMDL
MODEL 5
REMARK VINA RESULT:      -7.4      0.473      1.145
REMARK  Name = 
REMARK  7 active torsions:
REMARK  status: ('A' for Active; 'I' for Inactive)
REMARK    1  A    between atoms: C_2  and  O_3
REMARK    2  A    between atoms: C_2  and  C_4
REMARK    3  A    between atoms: C_7  and  N_8
REMARK    4  A    between atoms: C_9  and  C_11
REMARK    5  A    between atoms: C_14  and  C_15
REMARK    6  A    between atoms: C_15  and  O_16
REMARK    7  A    between atoms: O_16  and  C_17
REMARK                            x       y       z     vdW  Elec       q    Type
REMARK                         _______ _______ _______ _____ _____    ______ ____
ROOT
ATOM      1  N   UNL     1       2.356   7.037  19.136  0.00  0.00    +0.000 N 
ATOM      2  C   UNL     1       2.282   5.697  19.493  0.00  0.00    +0.000 C 
ATOM      3  O   UNL     1       1.658   5.267  20.460  0.00  0.00    +0.000 OA
ATOM      4  H   UNL     1       2.918   7.237  18.313  0.00  0.00    +0.000 HD
ENDROOT
BRANCH   1   8
ATOM      5  C   UNL     1       0.477  10.272  21.143  0.00  0.00    +0.000 A 
ATOM      6  C   UNL     1       0.668  10.332  19.763  0.00  0.00    +0.000 A 
ATOM      7  C   UNL     1       1.280   9.268  19.092  0.00  0.00    +0.000 A 
ATOM      8  C   UNL     1       1.701   8.119  19.771  0.00  0.00    +0.000 A 
ATOM      9  C   UNL     1       1.467   8.045  21.151  0.00  0.00    +0.000 A 
ATOM     10  C   UNL     1       0.856   9.112  21.831  0.00  0.00    +0.000 A 
BRANCH   5  12
ATOM     11  O   UNL     1      -1.152  11.219  22.592  0.00  0.00    +0.000 OA
ATOM     12  C   UNL     1      -0.160  11.381  21.898  0.00  0.00    +0.000 C 
BRANCH  12  13
ATOM     13  O   UNL     1       0.467  12.569  21.786  0.00  0.00    +0.000 OA
ATOM     14  H   UNL     1       1.261  12.580  21.221  0.00  0.00    +0.000 HD
ENDBRANCH  12  13
ENDBRANCH   5  12
ENDBRANCH   1   8
BRANCH   2  15
ATOM     15  C   UNL     1       3.007   4.781  18.632  0.00  0.00    +0.000 A 
ATOM     16  C   UNL     1       3.067   3.401  18.682  0.00  0.00    +0.000 A 
ATOM     17  C   UNL     1       3.885   2.983  17.613  0.00  0.00    +0.000 A 
ATOM     18  C   UNL     1       4.285   4.131  16.961  0.00  0.00    +0.000 A 
ATOM     19  O   UNL     1       3.761   5.236  17.581  0.00  0.00    +0.000 OA
BRANCH  18  20
ATOM     20  C   UNL     1       5.145   4.360  15.769  0.00  0.00    +0.000 C 
BRANCH  20  21
ATOM     21  O   UNL     1       6.494   4.190  16.204  0.00  0.00    +0.000 OA
BRANCH  21  22
ATOM     22  C   UNL     1       6.996   5.197  16.983  0.00  0.00    +0.000 A 
ATOM     23  C   UNL     1       7.523   4.794  18.213  0.00  0.00    +0.000 A 
ATOM     24  C   UNL     1       8.072   5.731  19.090  0.00  0.00    +0.000 A 
ATOM     25  C   UNL     1       8.117   7.077  18.730  0.00  0.00    +0.000 A 
ATOM     26  C   UNL     1       7.613   7.482  17.496  0.00  0.00    +0.000 A 
ATOM     27  C   UNL     1       7.052   6.545  16.623  0.00  0.00    +0.000 A 
ENDBRANCH  21  22
ENDBRANCH  20  21
ENDBRANCH  18  20
ENDBRANCH   2  15
TORSDOF 7
ENDMDL
MODEL 6
REMARK VINA RESULT:      -7.4      4.813      7.803
REMARK  Name = 
REMARK  7 active torsions:
REMARK  status: ('A' for Active; 'I' for Inactive)
REMARK    1  A    between atoms: C_2  and  O_3
REMARK    2  A    between atoms: C_2  and  C_4
REMARK    3  A    between atoms: C_7  and  N_8
REMARK    4  A    between atoms: C_9  and  C_11
REMARK    5  A    between atoms: C_14  and  C_15
REMARK    6  A    between atoms: C_15  and  O_16
REMARK    7  A    between atoms: O_16  and  C_17
REMARK                            x       y       z     vdW  Elec       q    Type
REMARK                         _______ _______ _______ _____ _____    ______ ____
ROOT
ATOM      1  N   UNL     1       8.713   8.871  18.878  0.00  0.00    +0.000 N 
ATOM      2  C   UNL     1       7.789   8.533  17.895  0.00  0.00    +0.000 C 
ATOM      3  O   UNL     1       7.373   9.306  17.036  0.00  0.00    +0.000 OA
ATOM      4  H   UNL     1       8.954   8.123  19.521  0.00  0.00    +0.000 HD
ENDROOT
BRANCH   1   8
ATOM      5  C   UNL     1      10.714  12.569  19.460  0.00  0.00    +0.000 A 
ATOM      6  C   UNL     1      10.708  11.978  18.197  0.00  0.00    +0.000 A 
ATOM      7  C   UNL     1      10.045  10.762  17.994  0.00  0.00    +0.000 A 
ATOM      8  C   UNL     1       9.364  10.117  19.033  0.00  0.00    +0.000 A 
ATOM      9  C   UNL     1       9.337  10.737  20.289  0.00  0.00    +0.000 A 
ATOM     10  C   UNL     1      10.004  11.955  20.500  0.00  0.00    +0.000 A 
BRANCH   5  12
ATOM     11  O   UNL     1      11.193  14.528  20.718  0.00  0.00    +0.000 OA
ATOM     12  C   UNL     1      11.412  13.853  19.724  0.00  0.00    +0.000 C 
BRANCH  12  13
ATOM     13  O   UNL     1      12.333  14.192  18.800  0.00  0.00    +0.000 OA
ATOM     14  H   UNL     1      12.929  13.477  18.511  0.00  0.00    +0.000 HD
ENDBRANCH  12  13
ENDBRANCH   5  12
ENDBRANCH   1   8
BRANCH   2  15
ATOM     15  C   UNL     1       7.319   7.161  17.928  0.00  0.00    +0.000 A 
ATOM     16  C   UNL     1       7.871   6.065  18.565  0.00  0.00    +0.000 A 
ATOM     17  C   UNL     1       7.025   4.968  18.311  0.00  0.00    +0.000 A 
ATOM     18  C   UNL     1       5.994   5.448  17.529  0.00  0.00    +0.000 A 
ATOM     19  O   UNL     1       6.169   6.786  17.282  0.00  0.00    +0.000 OA
BRANCH  18  20
ATOM     20  C   UNL     1       4.795   4.795  16.937  0.00  0.00    +0.000 C 
BRANCH  20  21
ATOM     21  O   UNL     1       3.658   5.464  17.482  0.00  0.00    +0.000 OA
BRANCH  21  22
ATOM     22  C   UNL     1       2.770   4.669  18.155  0.00  0.00    +0.000 A 
ATOM     23  C   UNL     1       2.615   3.378  17.641  0.00  0.00    +0.000 A 
ATOM     24  C   UNL     1       1.744   2.474  18.249  0.00  0.00    +0.000 A 
ATOM     25  C   UNL     1       1.038   2.848  19.391  0.00  0.00    +0.000 A 
ATOM     26  C   UNL     1       1.206   4.126  19.922  0.00  0.00    +0.000 A 
ATOM     27  C   UNL     1       2.070   5.036  19.306  0.00  0.00    +0.000 A 
ENDBRANCH  21  22
ENDBRANCH  20  21
ENDBRANCH  18  20
ENDBRANCH   2  15
TORSDOF 7
ENDMDL
MODEL 7
REMARK VINA RESULT:      -7.3      2.350      9.628
REMARK  Name = 
REMARK  7 active torsions:
REMARK  status: ('A' for Active; 'I' for Inactive)
REMARK    1  A    between atoms: C_2  and  O_3
REMARK    2  A    between atoms: C_2  and  C_4
REMARK    3  A    between atoms: C_7  and  N_8
REMARK    4  A    between atoms: C_9  and  C_11
REMARK    5  A    between atoms: C_14  and  C_15
REMARK    6  A    between atoms: C_15  and  O_16
REMARK    7  A    between atoms: O_16  and  C_17
REMARK                            x       y       z     vdW  Elec       q    Type
REMARK                         _______ _______ _______ _____ _____    ______ ____
ROOT
ATOM      1  N   UNL     1       2.933   7.026  18.768  0.00  0.00    +0.000 N 
ATOM      2  C   UNL     1       2.205   8.191  18.563  0.00  0.00    +0.000 C 
ATOM      3  O   UNL     1       2.183   8.821  17.509  0.00  0.00    +0.000 OA
ATOM      4  H   UNL     1       2.855   6.623  19.698  0.00  0.00    +0.000 HD
ENDROOT
BRANCH   1   8
ATOM      5  C   UNL     1       5.398   5.041  15.939  0.00  0.00    +0.000 A 
ATOM      6  C   UNL     1       4.434   4.319  16.642  0.00  0.00    +0.000 A 
ATOM      7  C   UNL     1       3.612   4.967  17.571  0.00  0.00    +0.000 A 
ATOM      8  C   UNL     1       3.720   6.341  17.812  0.00  0.00    +0.000 A 
ATOM      9  C   UNL     1       4.661   7.069  17.071  0.00  0.00    +0.000 A 
ATOM     10  C   UNL     1       5.492   6.424  16.140  0.00  0.00    +0.000 A 
BRANCH   5  12
ATOM     11  O   UNL     1       5.887   3.647  14.076  0.00  0.00    +0.000 OA
ATOM     12  C   UNL     1       6.298   4.394  14.950  0.00  0.00    +0.000 C 
BRANCH  12  13
ATOM     13  O   UNL     1       7.599   4.730  15.071  0.00  0.00    +0.000 OA
ATOM     14  H   UNL     1       8.240   4.015  14.905  0.00  0.00    +0.000 HD
ENDBRANCH  12  13
ENDBRANCH   5  12
ENDBRANCH   1   8
BRANCH   2  15
ATOM     15  C   UNL     1       1.432   8.652  19.701  0.00  0.00    +0.000 A 
ATOM     16  C   UNL     1       1.306   8.084  20.956  0.00  0.00    +0.000 A 
ATOM     17  C   UNL     1       0.463   8.925  21.708  0.00  0.00    +0.000 A 
ATOM     18  C   UNL     1       0.115   9.969  20.875  0.00  0.00    +0.000 A 
ATOM     19  O   UNL     1       0.695   9.806  19.643  0.00  0.00    +0.000 OA
BRANCH  18  20
ATOM     20  C   UNL     1      -0.741  11.170  21.075  0.00  0.00    +0.000 C 
BRANCH  20  21
ATOM     21  O   UNL     1      -0.324  11.765  22.304  0.00  0.00    +0.000 OA
BRANCH  21  22
ATOM     22  C   UNL     1      -1.268  12.519  22.946  0.00  0.00    +0.000 A 
ATOM     23  C   UNL     1      -2.474  11.864  23.216  0.00  0.00    +0.000 A 
ATOM     24  C   UNL     1      -3.508  12.530  23.875  0.00  0.00    +0.000 A 
ATOM     25  C   UNL     1      -3.335  13.849  24.289  0.00  0.00    +0.000 A 
ATOM     26  C   UNL     1      -2.127  14.499  24.043  0.00  0.00    +0.000 A 
ATOM     27  C   UNL     1      -1.095  13.837  23.372  0.00  0.00    +0.000 A 
ENDBRANCH  21  22
ENDBRANCH  20  21
ENDBRANCH  18  20
ENDBRANCH   2  15
TORSDOF 7
ENDMDL
MODEL 8
REMARK VINA RESULT:      -7.3      2.046      4.071
REMARK  Name = 
REMARK  7 active torsions:
REMARK  status: ('A' for Active; 'I' for Inactive)
REMARK    1  A    between atoms: C_2  and  O_3
REMARK    2  A    between atoms: C_2  and  C_4
REMARK    3  A    between atoms: C_7  and  N_8
REMARK    4  A    between atoms: C_9  and  C_11
REMARK    5  A    between atoms: C_14  and  C_15
REMARK    6  A    between atoms: C_15  and  O_16
REMARK    7  A    between atoms: O_16  and  C_17
REMARK                            x       y       z     vdW  Elec       q    Type
REMARK                         _______ _______ _______ _____ _____    ______ ____
ROOT
ATOM      1  N   UNL     1       2.205   7.820  19.342  0.00  0.00    +0.000 N 
ATOM      2  C   UNL     1       2.720   7.981  18.062  0.00  0.00    +0.000 C 
ATOM      3  O   UNL     1       2.469   8.932  17.325  0.00  0.00    +0.000 OA
ATOM      4  H   UNL     1       2.501   6.978  19.827  0.00  0.00    +0.000 HD
ENDROOT
BRANCH   1   8
ATOM      5  C   UNL     1      -0.234  10.537  21.508  0.00  0.00    +0.000 A 
ATOM      6  C   UNL     1      -0.194  10.603  20.116  0.00  0.00    +0.000 A 
ATOM      7  C   UNL     1       0.601   9.706  19.394  0.00  0.00    +0.000 A 
ATOM      8  C   UNL     1       1.360   8.721  20.033  0.00  0.00    +0.000 A 
ATOM      9  C   UNL     1       1.282   8.631  21.430  0.00  0.00    +0.000 A 
ATOM     10  C   UNL     1       0.489   9.530  22.162  0.00  0.00    +0.000 A 
BRANCH   5  12
ATOM     11  O   UNL     1      -1.251  11.313  23.512  0.00  0.00    +0.000 OA
ATOM     12  C   UNL     1      -1.057  11.472  22.317  0.00  0.00    +0.000 C 
BRANCH  12  13
ATOM     13  O   UNL     1      -1.540  12.530  21.634  0.00  0.00    +0.000 OA
ATOM     14  H   UNL     1      -2.483  12.486  21.392  0.00  0.00    +0.000 HD
ENDBRANCH  12  13
ENDBRANCH   5  12
ENDBRANCH   1   8
BRANCH   2  15
ATOM     15  C   UNL     1       3.614   6.930  17.613  0.00  0.00    +0.000 A 
ATOM     16  C   UNL     1       4.559   6.962  16.604  0.00  0.00    +0.000 A 
ATOM     17  C   UNL     1       5.180   5.698  16.578  0.00  0.00    +0.000 A 
ATOM     18  C   UNL     1       4.583   4.954  17.575  0.00  0.00    +0.000 A 
ATOM     19  O   UNL     1       3.618   5.695  18.207  0.00  0.00    +0.000 OA
BRANCH  18  20
ATOM     20  C   UNL     1       4.793   3.559  18.048  0.00  0.00    +0.000 C 
BRANCH  20  21
ATOM     21  O   UNL     1       3.537   2.892  17.916  0.00  0.00    +0.000 OA
BRANCH  21  22
ATOM     22  C   UNL     1       2.753   2.879  19.037  0.00  0.00    +0.000 A 
ATOM     23  C   UNL     1       3.427   2.621  20.235  0.00  0.00    +0.000 A 
ATOM     24  C   UNL     1       2.734   2.592  21.445  0.00  0.00    +0.000 A 
ATOM     25  C   UNL     1       1.363   2.843  21.468  0.00  0.00    +0.000 A 
ATOM     26  C   UNL     1       0.690   3.123  20.281  0.00  0.00    +0.000 A 
ATOM     27  C   UNL     1       1.382   3.141  19.067  0.00  0.00    +0.000 A 
ENDBRANCH  21  22
ENDBRANCH  20  21
ENDBRANCH  18  20
ENDBRANCH   2  15
TORSDOF 7
ENDMDL
MODEL 9
REMARK VINA RESULT:      -7.3      2.402      8.730
REMARK  Name = 
REMARK  7 active torsions:
REMARK  status: ('A' for Active; 'I' for Inactive)
REMARK    1  A    between atoms: C_2  and  O_3
REMARK    2  A    between atoms: C_2  and  C_4
REMARK    3  A    between atoms: C_7  and  N_8
REMARK    4  A    between atoms: C_9  and  C_11
REMARK    5  A    between atoms: C_14  and  C_15
REMARK    6  A    between atoms: C_15  and  O_16
REMARK    7  A    between atoms: O_16  and  C_17
REMARK                            x       y       z     vdW  Elec       q    Type
REMARK                         _______ _______ _______ _____ _____    ______ ____
ROOT
ATOM      1  N   UNL     1       2.668   7.304  18.501  0.00  0.00    +0.000 N 
ATOM      2  C   UNL     1       2.295   6.999  19.805  0.00  0.00    +0.000 C 
ATOM      3  O   UNL     1       2.684   6.014  20.428  0.00  0.00    +0.000 OA
ATOM      4  H   UNL     1       2.257   8.151  18.119  0.00  0.00    +0.000 HD
ENDROOT
BRANCH   1   8
ATOM      5  C   UNL     1       5.502   5.221  16.124  0.00  0.00    +0.000 A 
ATOM      6  C   UNL     1       4.466   4.518  16.739  0.00  0.00    +0.000 A 
ATOM      7  C   UNL     1       3.523   5.198  17.518  0.00  0.00    +0.000 A 
ATOM      8  C   UNL     1       3.580   6.585  17.693  0.00  0.00    +0.000 A 
ATOM      9  C   UNL     1       4.598   7.292  17.037  0.00  0.00    +0.000 A 
ATOM     10  C   UNL     1       5.550   6.615  16.257  0.00  0.00    +0.000 A 
BRANCH   5  12
ATOM     11  O   UNL     1       7.568   5.088  14.957  0.00  0.00    +0.000 OA
ATOM     12  C   UNL     1       6.531   4.541  15.295  0.00  0.00    +0.000 C 
BRANCH  12  13
ATOM     13  O   UNL     1       6.242   3.262  14.981  0.00  0.00    +0.000 OA
ATOM     14  H   UNL     1       5.985   3.100  14.055  0.00  0.00    +0.000 HD
ENDBRANCH  12  13
ENDBRANCH   5  12
ENDBRANCH   1   8
BRANCH   2  15
ATOM     15  C   UNL     1       1.385   7.941  20.429  0.00  0.00    +0.000 A 
ATOM     16  C   UNL     1       0.637   7.795  21.583  0.00  0.00    +0.000 A 
ATOM     17  C   UNL     1      -0.065   9.002  21.776  0.00  0.00    +0.000 A 
ATOM     18  C   UNL     1       0.290   9.827  20.729  0.00  0.00    +0.000 A 
ATOM     19  O   UNL     1       1.169   9.185  19.895  0.00  0.00    +0.000 OA
BRANCH  18  20
ATOM     20  C   UNL     1      -0.103  11.216  20.368  0.00  0.00    +0.000 C 
BRANCH  20  21
ATOM     21  O   UNL     1      -0.176  11.261  18.943  0.00  0.00    +0.000 OA
BRANCH  21  22
ATOM     22  C   UNL     1      -1.403  10.986  18.404  0.00  0.00    +0.000 A 
ATOM     23  C   UNL     1      -2.451  11.787  18.865  0.00  0.00    +0.000 A 
ATOM     24  C   UNL     1      -3.747  11.606  18.380  0.00  0.00    +0.000 A 
ATOM     25  C   UNL     1      -3.998  10.636  17.412  0.00  0.00    +0.000 A 
ATOM     26  C   UNL     1      -2.953   9.849  16.932  0.00  0.00    +0.000 A 
ATOM     27  C   UNL     1      -1.657  10.022  17.426  0.00  0.00    +0.000 A 
ENDBRANCH  21  22
ENDBRANCH  20  21
ENDBRANCH  18  20
ENDBRANCH   2  15
TORSDOF 7
ENDMDL
