MODEL 1
REMARK VINA RESULT:      -6.3      0.000      0.000
REMARK  Name = 
REMARK  9 active torsions:
REMARK  status: ('A' for Active; 'I' for Inactive)
REMARK    1  A    between atoms: C_1  and  C_2
REMARK    2  A    between atoms: C_2  and  C_3
REMARK    3  A    between atoms: C_3  and  C_4
REMARK    4  A    between atoms: C_4  and  C_5
REMARK    5  A    between atoms: C_5  and  C_6
REMARK    6  A    between atoms: C_7  and  C_8
REMARK    7  A    between atoms: C_9  and  O_10
REMARK    8  A    between atoms: O_10  and  C_11
REMARK    9  A    between atoms: C_16  and  C_17
REMARK                            x       y       z     vdW  Elec       q    Type
REMARK                         _______ _______ _______ _____ _____    ______ ____
ROOT
ATOM      1  C   UNL     1       4.735   5.042  16.936  0.00  0.00    +0.000 A 
ATOM      2  C   UNL     1       4.640   6.253  17.758  0.00  0.00    +0.000 A 
ATOM      3  C   UNL     1       5.618   7.166  17.751  0.00  0.00    +0.000 A 
ATOM      4  C   UNL     1       6.823   6.993  16.939  0.00  0.00    +0.000 A 
ATOM      5  O   UNL     1       7.711   7.838  16.946  0.00  0.00    +0.000 OA
ATOM      6  O   UNL     1       6.882   5.873  16.168  0.00  0.00    +0.000 OA
ATOM      7  C   UNL     1       5.838   4.912  16.160  0.00  0.00    +0.000 A 
ATOM      8  C   UNL     1       6.089   3.810  15.170  0.00  0.00    +0.000 C 
ENDROOT
BRANCH   1  10
ATOM      9  C   UNL     1       3.595   3.032  17.806  0.00  0.00    +0.000 C 
ATOM     10  C   UNL     1       3.705   4.009  16.890  0.00  0.00    +0.000 C 
BRANCH   9  11
ATOM     11  C   UNL     1       2.522   1.984  17.796  0.00  0.00    +0.000 C 
BRANCH  11  12
ATOM     12  C   UNL     1       1.778   1.968  19.132  0.00  0.00    +0.000 C 
BRANCH  12  13
ATOM     13  C   UNL     1       0.872   3.190  19.276  0.00  0.00    +0.000 C 
BRANCH  13  15
ATOM     14  C   UNL     1       1.886   3.043  21.571  0.00  0.00    +0.000 C 
ATOM     15  C   UNL     1       1.141   3.927  20.585  0.00  0.00    +0.000 C 
ENDBRANCH  13  15
ENDBRANCH  12  13
ENDBRANCH  11  12
ENDBRANCH   9  11
ENDBRANCH   1  10
BRANCH   2  16
ATOM     16  O   UNL     1       3.466   6.566  18.423  0.00  0.00    +0.000 OA
ATOM     17  C   UNL     1       2.779   7.753  18.036  0.00  0.00    +0.000 C 
ENDBRANCH   2  16
TORSDOF 6
ENDMDL
MODEL 2
REMARK VINA RESULT:      -6.1      1.150      2.754
REMARK  Name = 
REMARK  9 active torsions:
REMARK  status: ('A' for Active; 'I' for Inactive)
REMARK    1  A    between atoms: C_1  and  C_2
REMARK    2  A    between atoms: C_2  and  C_3
REMARK    3  A    between atoms: C_3  and  C_4
REMARK    4  A    between atoms: C_4  and  C_5
REMARK    5  A    between atoms: C_5  and  C_6
REMARK    6  A    between atoms: C_7  and  C_8
REMARK    7  A    between atoms: C_9  and  O_10
REMARK    8  A    between atoms: O_10  and  C_11
REMARK    9  A    between atoms: C_16  and  C_17
REMARK                            x       y       z     vdW  Elec       q    Type
REMARK                         _______ _______ _______ _____ _____    ______ ____
ROOT
ATOM      1  C   UNL     1       4.757   4.789  17.003  0.00  0.00    +0.000 A 
ATOM      2  C   UNL     1       5.856   4.699  16.035  0.00  0.00    +0.000 A 
ATOM      3  C   UNL     1       6.843   5.601  16.031  0.00  0.00    +0.000 A 
ATOM      4  C   UNL     1       6.866   6.718  16.977  0.00  0.00    +0.000 A 
ATOM      5  O   UNL     1       7.778   7.537  16.959  0.00  0.00    +0.000 OA
ATOM      6  O   UNL     1       5.849   6.772  17.880  0.00  0.00    +0.000 OA
ATOM      7  C   UNL     1       4.810   5.805  17.897  0.00  0.00    +0.000 A 
ATOM      8  C   UNL     1       3.852   6.024  19.033  0.00  0.00    +0.000 C 
ENDROOT
BRANCH   1  10
ATOM      9  C   UNL     1       3.686   2.710  17.796  0.00  0.00    +0.000 C 
ATOM     10  C   UNL     1       3.652   3.839  17.067  0.00  0.00    +0.000 C 
BRANCH   9  11
ATOM     11  C   UNL     1       2.547   1.741  17.904  0.00  0.00    +0.000 C 
BRANCH  11  12
ATOM     12  C   UNL     1       1.658   2.092  19.097  0.00  0.00    +0.000 C 
BRANCH  12  13
ATOM     13  C   UNL     1       2.493   2.384  20.343  0.00  0.00    +0.000 C 
BRANCH  13  15
ATOM     14  C   UNL     1       0.980   4.389  20.432  0.00  0.00    +0.000 C 
ATOM     15  C   UNL     1       1.803   3.403  21.244  0.00  0.00    +0.000 C 
ENDBRANCH  13  15
ENDBRANCH  12  13
ENDBRANCH  11  12
ENDBRANCH   9  11
ENDBRANCH   1  10
BRANCH   2  16
ATOM     16  O   UNL     1       5.990   3.587  15.220  0.00  0.00    +0.000 OA
ATOM     17  C   UNL     1       6.226   3.806  13.832  0.00  0.00    +0.000 C 
ENDBRANCH   2  16
TORSDOF 6
ENDMDL
MODEL 3
REMARK VINA RESULT:      -6.1      2.359      5.647
REMARK  Name = 
REMARK  9 active torsions:
REMARK  status: ('A' for Active; 'I' for Inactive)
REMARK    1  A    between atoms: C_1  and  C_2
REMARK    2  A    between atoms: C_2  and  C_3
REMARK    3  A    between atoms: C_3  and  C_4
REMARK    4  A    between atoms: C_4  and  C_5
REMARK    5  A    between atoms: C_5  and  C_6
REMARK    6  A    between atoms: C_7  and  C_8
REMARK    7  A    between atoms: C_9  and  O_10
REMARK    8  A    between atoms: O_10  and  C_11
REMARK    9  A    between atoms: C_16  and  C_17
REMARK                            x       y       z     vdW  Elec       q    Type
REMARK                         _______ _______ _______ _____ _____    ______ ____
ROOT
ATOM      1  C   UNL     1       2.838   3.585  18.448  0.00  0.00    +0.000 A 
ATOM      2  C   UNL     1       2.053   4.578  19.190  0.00  0.00    +0.000 A 
ATOM      3  C   UNL     1       1.508   4.276  20.374  0.00  0.00    +0.000 A 
ATOM      4  C   UNL     1       1.658   2.948  20.972  0.00  0.00    +0.000 A 
ATOM      5  O   UNL     1       1.151   2.688  22.056  0.00  0.00    +0.000 OA
ATOM      6  O   UNL     1       2.407   2.049  20.277  0.00  0.00    +0.000 OA
ATOM      7  C   UNL     1       3.001   2.373  19.030  0.00  0.00    +0.000 A 
ATOM      8  C   UNL     1       3.848   1.251  18.498  0.00  0.00    +0.000 C 
ENDROOT
BRANCH   1  10
ATOM      9  C   UNL     1       4.647   4.469  17.018  0.00  0.00    +0.000 C 
ATOM     10  C   UNL     1       3.465   3.846  17.156  0.00  0.00    +0.000 C 
BRANCH   9  11
ATOM     11  C   UNL     1       5.324   4.714  15.703  0.00  0.00    +0.000 C 
BRANCH  11  12
ATOM     12  C   UNL     1       6.766   5.170  15.921  0.00  0.00    +0.000 C 
BRANCH  12  13
ATOM     13  C   UNL     1       7.303   4.689  17.268  0.00  0.00    +0.000 C 
BRANCH  13  15
ATOM     14  C   UNL     1       7.459   7.189  17.469  0.00  0.00    +0.000 C 
ATOM     15  C   UNL     1       7.601   5.862  18.196  0.00  0.00    +0.000 C 
ENDBRANCH  13  15
ENDBRANCH  12  13
ENDBRANCH  11  12
ENDBRANCH   9  11
ENDBRANCH   1  10
BRANCH   2  16
ATOM     16  O   UNL     1       2.003   5.897  18.770  0.00  0.00    +0.000 OA
ATOM     17  C   UNL     1       2.823   6.842  19.453  0.00  0.00    +0.000 C 
ENDBRANCH   2  16
TORSDOF 6
ENDMDL
MODEL 4
REMARK VINA RESULT:      -6.1      2.491      5.940
REMARK  Name = 
REMARK  9 active torsions:
REMARK  status: ('A' for Active; 'I' for Inactive)
REMARK    1  A    between atoms: C_1  and  C_2
REMARK    2  A    between atoms: C_2  and  C_3
REMARK    3  A    between atoms: C_3  and  C_4
REMARK    4  A    between atoms: C_4  and  C_5
REMARK    5  A    between atoms: C_5  and  C_6
REMARK    6  A    between atoms: C_7  and  C_8
REMARK    7  A    between atoms: C_9  and  O_10
REMARK    8  A    between atoms: O_10  and  C_11
REMARK    9  A    between atoms: C_16  and  C_17
REMARK                            x       y       z     vdW  Elec       q    Type
REMARK                         _______ _______ _______ _____ _____    ______ ____
ROOT
ATOM      1  C   UNL     1       2.924   4.389  18.821  0.00  0.00    +0.000 A 
ATOM      2  C   UNL     1       2.405   5.192  19.933  0.00  0.00    +0.000 A 
ATOM      3  C   UNL     1       1.980   4.611  21.061  0.00  0.00    +0.000 A 
ATOM      4  C   UNL     1       2.002   3.157  21.230  0.00  0.00    +0.000 A 
ATOM      5  O   UNL     1       1.608   2.640  22.269  0.00  0.00    +0.000 OA
ATOM      6  O   UNL     1       2.508   2.431  20.195  0.00  0.00    +0.000 OA
ATOM      7  C   UNL     1       2.975   3.048  19.006  0.00  0.00    +0.000 A 
ATOM      8  C   UNL     1       3.563   2.053  18.046  0.00  0.00    +0.000 C 
ENDROOT
BRANCH   1  10
ATOM      9  C   UNL     1       4.517   5.710  17.473  0.00  0.00    +0.000 C 
ATOM     10  C   UNL     1       3.409   4.955  17.567  0.00  0.00    +0.000 C 
BRANCH   9  11
ATOM     11  C   UNL     1       5.050   6.270  16.189  0.00  0.00    +0.000 C 
BRANCH  11  12
ATOM     12  C   UNL     1       6.020   5.283  15.538  0.00  0.00    +0.000 C 
BRANCH  12  13
ATOM     13  C   UNL     1       5.407   4.645  14.291  0.00  0.00    +0.000 C 
BRANCH  13  15
ATOM     14  C   UNL     1       5.973   3.321  12.231  0.00  0.00    +0.000 C 
ATOM     15  C   UNL     1       6.356   3.624  13.670  0.00  0.00    +0.000 C 
ENDBRANCH  13  15
ENDBRANCH  12  13
ENDBRANCH  11  12
ENDBRANCH   9  11
ENDBRANCH   1  10
BRANCH   2  16
ATOM     16  O   UNL     1       2.502   6.574  19.913  0.00  0.00    +0.000 OA
ATOM     17  C   UNL     1       1.587   7.315  20.714  0.00  0.00    +0.000 C 
ENDBRANCH   2  16
TORSDOF 6
ENDMDL
MODEL 5
REMARK VINA RESULT:      -6.0      1.543      3.122
REMARK  Name = 
REMARK  9 active torsions:
REMARK  status: ('A' for Active; 'I' for Inactive)
REMARK    1  A    between atoms: C_1  and  C_2
REMARK    2  A    between atoms: C_2  and  C_3
REMARK    3  A    between atoms: C_3  and  C_4
REMARK    4  A    between atoms: C_4  and  C_5
REMARK    5  A    between atoms: C_5  and  C_6
REMARK    6  A    between atoms: C_7  and  C_8
REMARK    7  A    between atoms: C_9  and  O_10
REMARK    8  A    between atoms: O_10  and  C_11
REMARK    9  A    between atoms: C_16  and  C_17
REMARK                            x       y       z     vdW  Elec       q    Type
REMARK                         _______ _______ _______ _____ _____    ______ ____
ROOT
ATOM      1  C   UNL     1       4.895   5.140  17.449  0.00  0.00    +0.000 A 
ATOM      2  C   UNL     1       5.868   5.941  16.698  0.00  0.00    +0.000 A 
ATOM      3  C   UNL     1       6.424   5.472  15.575  0.00  0.00    +0.000 A 
ATOM      4  C   UNL     1       6.098   4.143  15.055  0.00  0.00    +0.000 A 
ATOM      5  O   UNL     1       6.618   3.727  14.027  0.00  0.00    +0.000 OA
ATOM      6  O   UNL     1       5.178   3.424  15.755  0.00  0.00    +0.000 OA
ATOM      7  C   UNL     1       4.574   3.928  16.936  0.00  0.00    +0.000 A 
ATOM      8  C   UNL     1       3.531   2.994  17.482  0.00  0.00    +0.000 C 
ENDROOT
BRANCH   1  10
ATOM      9  C   UNL     1       3.009   6.112  18.712  0.00  0.00    +0.000 C 
ATOM     10  C   UNL     1       4.247   5.591  18.676  0.00  0.00    +0.000 C 
BRANCH   9  11
ATOM     11  C   UNL     1       2.312   6.546  19.967  0.00  0.00    +0.000 C 
BRANCH  11  12
ATOM     12  C   UNL     1       1.934   5.332  20.815  0.00  0.00    +0.000 C 
BRANCH  12  13
ATOM     13  C   UNL     1       1.096   4.335  20.015  0.00  0.00    +0.000 C 
BRANCH  13  15
ATOM     14  C   UNL     1       2.416   2.808  21.511  0.00  0.00    +0.000 C 
ATOM     15  C   UNL     1       1.216   2.926  20.588  0.00  0.00    +0.000 C 
ENDBRANCH  13  15
ENDBRANCH  12  13
ENDBRANCH  11  12
ENDBRANCH   9  11
ENDBRANCH   1  10
BRANCH   2  16
ATOM     16  O   UNL     1       6.104   7.265  17.034  0.00  0.00    +0.000 OA
ATOM     17  C   UNL     1       7.410   7.611  17.487  0.00  0.00    +0.000 C 
ENDBRANCH   2  16
TORSDOF 6
ENDMDL
MODEL 6
REMARK VINA RESULT:      -6.0      1.467      3.174
REMARK  Name = 
REMARK  9 active torsions:
REMARK  status: ('A' for Active; 'I' for Inactive)
REMARK    1  A    between atoms: C_1  and  C_2
REMARK    2  A    between atoms: C_2  and  C_3
REMARK    3  A    between atoms: C_3  and  C_4
REMARK    4  A    between atoms: C_4  and  C_5
REMARK    5  A    between atoms: C_5  and  C_6
REMARK    6  A    between atoms: C_7  and  C_8
REMARK    7  A    between atoms: C_9  and  O_10
REMARK    8  A    between atoms: O_10  and  C_11
REMARK    9  A    between atoms: C_16  and  C_17
REMARK                            x       y       z     vdW  Elec       q    Type
REMARK                         _______ _______ _______ _____ _____    ______ ____
ROOT
ATOM      1  C   UNL     1       5.245   5.547  17.259  0.00  0.00    +0.000 A 
ATOM      2  C   UNL     1       4.758   4.490  16.365  0.00  0.00    +0.000 A 
ATOM      3  C   UNL     1       5.439   4.155  15.264  0.00  0.00    +0.000 A 
ATOM      4  C   UNL     1       6.685   4.830  14.897  0.00  0.00    +0.000 A 
ATOM      5  O   UNL     1       7.296   4.512  13.883  0.00  0.00    +0.000 OA
ATOM      6  O   UNL     1       7.130   5.793  15.750  0.00  0.00    +0.000 OA
ATOM      7  C   UNL     1       6.418   6.137  16.928  0.00  0.00    +0.000 A 
ATOM      8  C   UNL     1       7.146   7.162  17.751  0.00  0.00    +0.000 C 
ENDROOT
BRANCH   1  10
ATOM      9  C   UNL     1       3.245   6.245  18.528  0.00  0.00    +0.000 C 
ATOM     10  C   UNL     1       4.557   5.959  18.477  0.00  0.00    +0.000 C 
BRANCH   9  11
ATOM     11  C   UNL     1       2.513   6.635  19.777  0.00  0.00    +0.000 C 
BRANCH  11  12
ATOM     12  C   UNL     1       2.022   5.392  20.519  0.00  0.00    +0.000 C 
BRANCH  12  13
ATOM     13  C   UNL     1       1.395   4.383  19.556  0.00  0.00    +0.000 C 
BRANCH  13  15
ATOM     14  C   UNL     1       1.803   2.988  21.605  0.00  0.00    +0.000 C 
ATOM     15  C   UNL     1       1.118   3.054  20.251  0.00  0.00    +0.000 C 
ENDBRANCH  13  15
ENDBRANCH  12  13
ENDBRANCH  11  12
ENDBRANCH   9  11
ENDBRANCH   1  10
BRANCH   2  16
ATOM     16  O   UNL     1       3.680   3.698  16.727  0.00  0.00    +0.000 OA
ATOM     17  C   UNL     1       3.927   2.600  17.600  0.00  0.00    +0.000 C 
ENDBRANCH   2  16
TORSDOF 6
ENDMDL
MODEL 7
REMARK VINA RESULT:      -6.0      2.271      5.863
REMARK  Name = 
REMARK  9 active torsions:
REMARK  status: ('A' for Active; 'I' for Inactive)
REMARK    1  A    between atoms: C_1  and  C_2
REMARK    2  A    between atoms: C_2  and  C_3
REMARK    3  A    between atoms: C_3  and  C_4
REMARK    4  A    between atoms: C_4  and  C_5
REMARK    5  A    between atoms: C_5  and  C_6
REMARK    6  A    between atoms: C_7  and  C_8
REMARK    7  A    between atoms: C_9  and  O_10
REMARK    8  A    between atoms: O_10  and  C_11
REMARK    9  A    between atoms: C_16  and  C_17
REMARK                            x       y       z     vdW  Elec       q    Type
REMARK                         _______ _______ _______ _____ _____    ______ ____
ROOT
ATOM      1  C   UNL     1       3.526   4.006  18.235  0.00  0.00    +0.000 A 
ATOM      2  C   UNL     1       3.067   5.112  19.082  0.00  0.00    +0.000 A 
ATOM      3  C   UNL     1       2.373   4.878  20.202  0.00  0.00    +0.000 A 
ATOM      4  C   UNL     1       2.033   3.518  20.623  0.00  0.00    +0.000 A 
ATOM      5  O   UNL     1       1.396   3.321  21.651  0.00  0.00    +0.000 OA
ATOM      6  O   UNL     1       2.486   2.505  19.835  0.00  0.00    +0.000 OA
ATOM      7  C   UNL     1       3.237   2.751  18.656  0.00  0.00    +0.000 A 
ATOM      8  C   UNL     1       3.697   1.479  18.002  0.00  0.00    +0.000 C 
ENDROOT
BRANCH   1  10
ATOM      9  C   UNL     1       5.611   4.431  16.982  0.00  0.00    +0.000 C 
ATOM     10  C   UNL     1       4.289   4.187  17.005  0.00  0.00    +0.000 C 
BRANCH   9  11
ATOM     11  C   UNL     1       6.419   4.584  15.729  0.00  0.00    +0.000 C 
BRANCH  11  12
ATOM     12  C   UNL     1       5.712   3.911  14.552  0.00  0.00    +0.000 C 
BRANCH  12  13
ATOM     13  C   UNL     1       6.494   4.102  13.252  0.00  0.00    +0.000 C 
BRANCH  13  15
ATOM     14  C   UNL     1       4.581   3.379  11.792  0.00  0.00    +0.000 C 
ATOM     15  C   UNL     1       6.028   3.125  12.178  0.00  0.00    +0.000 C 
ENDBRANCH  13  15
ENDBRANCH  12  13
ENDBRANCH  11  12
ENDBRANCH   9  11
ENDBRANCH   1  10
BRANCH   2  16
ATOM     16  O   UNL     1       3.486   6.410  18.839  0.00  0.00    +0.000 OA
ATOM     17  C   UNL     1       2.578   7.288  18.180  0.00  0.00    +0.000 C 
ENDBRANCH   2  16
TORSDOF 6
ENDMDL
MODEL 8
REMARK VINA RESULT:      -6.0      2.898      6.261
REMARK  Name = 
REMARK  9 active torsions:
REMARK  status: ('A' for Active; 'I' for Inactive)
REMARK    1  A    between atoms: C_1  and  C_2
REMARK    2  A    between atoms: C_2  and  C_3
REMARK    3  A    between atoms: C_3  and  C_4
REMARK    4  A    between atoms: C_4  and  C_5
REMARK    5  A    between atoms: C_5  and  C_6
REMARK    6  A    between atoms: C_7  and  C_8
REMARK    7  A    between atoms: C_9  and  O_10
REMARK    8  A    between atoms: O_10  and  C_11
REMARK    9  A    between atoms: C_16  and  C_17
REMARK                            x       y       z     vdW  Elec       q    Type
REMARK                         _______ _______ _______ _____ _____    ______ ____
ROOT
ATOM      1  C   UNL     1       3.383   3.129  18.942  0.00  0.00    +0.000 A 
ATOM      2  C   UNL     1       3.911   2.549  20.181  0.00  0.00    +0.000 A 
ATOM      3  C   UNL     1       3.135   2.418  21.263  0.00  0.00    +0.000 A 
ATOM      4  C   UNL     1       1.739   2.856  21.263  0.00  0.00    +0.000 A 
ATOM      5  O   UNL     1       1.042   2.731  22.264  0.00  0.00    +0.000 OA
ATOM      6  O   UNL     1       1.262   3.372  20.097  0.00  0.00    +0.000 OA
ATOM      7  C   UNL     1       2.079   3.495  18.944  0.00  0.00    +0.000 A 
ATOM      8  C   UNL     1       1.312   4.011  17.759  0.00  0.00    +0.000 C 
ENDROOT
BRANCH   1  10
ATOM      9  C   UNL     1       4.914   4.385  17.466  0.00  0.00    +0.000 C 
ATOM     10  C   UNL     1       4.170   3.296  17.724  0.00  0.00    +0.000 C 
BRANCH   9  11
ATOM     11  C   UNL     1       5.758   4.559  16.239  0.00  0.00    +0.000 C 
BRANCH  11  12
ATOM     12  C   UNL     1       7.190   4.931  16.623  0.00  0.00    +0.000 C 
BRANCH  12  13
ATOM     13  C   UNL     1       7.356   5.004  18.141  0.00  0.00    +0.000 C 
BRANCH  13  15
ATOM     14  C   UNL     1       7.515   7.437  17.534  0.00  0.00    +0.000 C 
ATOM     15  C   UNL     1       7.839   6.383  18.578  0.00  0.00    +0.000 C 
ENDBRANCH  13  15
ENDBRANCH  12  13
ENDBRANCH  11  12
ENDBRANCH   9  11
ENDBRANCH   1  10
BRANCH   2  16
ATOM     16  O   UNL     1       5.167   1.965  20.210  0.00  0.00    +0.000 OA
ATOM     17  C   UNL     1       5.376   0.883  21.113  0.00  0.00    +0.000 C 
ENDBRANCH   2  16
TORSDOF 6
ENDMDL
MODEL 9
REMARK VINA RESULT:      -6.0      1.579      2.671
REMARK  Name = 
REMARK  9 active torsions:
REMARK  status: ('A' for Active; 'I' for Inactive)
REMARK    1  A    between atoms: C_1  and  C_2
REMARK    2  A    between atoms: C_2  and  C_3
REMARK    3  A    between atoms: C_3  and  C_4
REMARK    4  A    between atoms: C_4  and  C_5
REMARK    5  A    between atoms: C_5  and  C_6
REMARK    6  A    between atoms: C_7  and  C_8
REMARK    7  A    between atoms: C_9  and  O_10
REMARK    8  A    between atoms: O_10  and  C_11
REMARK    9  A    between atoms: C_16  and  C_17
REMARK                            x       y       z     vdW  Elec       q    Type
REMARK                         _______ _______ _______ _____ _____    ______ ____
ROOT
ATOM      1  C   UNL     1       5.131   4.346  17.197  0.00  0.00    +0.000 A 
ATOM      2  C   UNL     1       5.637   4.709  15.869  0.00  0.00    +0.000 A 
ATOM      3  C   UNL     1       6.518   5.704  15.719  0.00  0.00    +0.000 A 
ATOM      4  C   UNL     1       7.004   6.478  16.862  0.00  0.00    +0.000 A 
ATOM      5  O   UNL     1       7.810   7.388  16.706  0.00  0.00    +0.000 OA
ATOM      6  O   UNL     1       6.539   6.112  18.087  0.00  0.00    +0.000 OA
ATOM      7  C   UNL     1       5.617   5.045  18.250  0.00  0.00    +0.000 A 
ATOM      8  C   UNL     1       5.316   4.774  19.697  0.00  0.00    +0.000 C 
ENDROOT
BRANCH   1  10
ATOM      9  C   UNL     1       2.849   3.466  17.539  0.00  0.00    +0.000 C 
ATOM     10  C   UNL     1       4.174   3.270  17.436  0.00  0.00    +0.000 C 
BRANCH   9  11
ATOM     11  C   UNL     1       1.847   2.369  17.746  0.00  0.00    +0.000 C 
BRANCH  11  12
ATOM     12  C   UNL     1       0.926   2.702  18.920  0.00  0.00    +0.000 C 
BRANCH  12  13
ATOM     13  C   UNL     1       1.358   3.993  19.616  0.00  0.00    +0.000 C 
BRANCH  13  15
ATOM     14  C   UNL     1       2.593   2.752  21.420  0.00  0.00    +0.000 C 
ATOM     15  C   UNL     1       1.519   3.783  21.119  0.00  0.00    +0.000 C 
ENDBRANCH  13  15
ENDBRANCH  12  13
ENDBRANCH  11  12
ENDBRANCH   9  11
ENDBRANCH   1  10
BRANCH   2  16
ATOM     16  O   UNL     1       5.351   3.922  14.765  0.00  0.00    +0.000 OA
ATOM     17  C   UNL     1       6.292   3.915  13.695  0.00  0.00    +0.000 C 
ENDBRANCH   2  16
TORSDOF 6
ENDMDL
