MODEL 1
REMARK VINA RESULT:      -7.8      0.000      0.000
REMARK  Name = 
REMARK  7 active torsions:
REMARK  status: ('A' for Active; 'I' for Inactive)
REMARK    1  A    between atoms: C_1  and  O_2
REMARK    2  A    between atoms: O_2  and  C_3
REMARK    3  A    between atoms: C_6  and  O_7
REMARK    4  A    between atoms: O_7  and  C_8
REMARK    5  A    between atoms: C_8  and  C_9
REMARK    6  A    between atoms: C_11  and  C_12
REMARK    7  A    between atoms: N_14  and  C_15
REMARK                            x       y       z     vdW  Elec       q    Type
REMARK                         _______ _______ _______ _____ _____    ______ ____
ROOT
ATOM      1  C   UNL     1       7.783   7.601  18.008  0.00  0.00    +0.000 A 
ATOM      2  C   UNL     1       6.825   6.876  17.334  0.00  0.00    +0.000 A 
ATOM      3  C   UNL     1       6.742   5.630  18.009  0.00  0.00    +0.000 A 
ATOM      4  N   UNL     1       7.628   5.575  19.026  0.00  0.00    +0.000 NA
ATOM      5  N   UNL     1       8.239   6.773  18.994  0.00  0.00    +0.000 N 
ATOM      6  H   UNL     1       8.953   6.967  19.688  0.00  0.00    +0.000 HD
ENDROOT
BRANCH   3   7
ATOM      7  C   UNL     1       5.842   4.511  17.688  0.00  0.00    +0.000 C 
ATOM      8  O   UNL     1       5.856   3.936  16.603  0.00  0.00    +0.000 OA
ATOM      9  N   UNL     1       5.003   4.161  18.721  0.00  0.00    +0.000 N 
ATOM     10  H   UNL     1       5.082   4.717  19.569  0.00  0.00    +0.000 HD
BRANCH   9  11
ATOM     11  C   UNL     1       4.085   3.035  18.640  0.00  0.00    +0.000 C 
ATOM     12  C   UNL     1       4.080   2.238  19.948  0.00  0.00    +0.000 C 
ATOM     13  C   UNL     1       3.207   2.913  21.000  0.00  0.00    +0.000 C 
ATOM     14  C   UNL     1       1.783   2.989  20.479  0.00  0.00    +0.000 C 
ATOM     15  N   UNL     1       1.721   3.630  19.187  0.00  0.00    +0.000 N 
ATOM     16  C   UNL     1       2.691   3.545  18.223  0.00  0.00    +0.000 C 
ATOM     17  O   UNL     1       2.458   4.003  17.105  0.00  0.00    +0.000 OA
ATOM     18  H   UNL     1       0.824   3.945  18.835  0.00  0.00    +0.000 HD
ENDBRANCH   9  11
ENDBRANCH   3   7
BRANCH   1  19
ATOM     19  C   UNL     1       8.288   8.989  17.840  0.00  0.00    +0.000 C 
BRANCH  19  20
ATOM     20  O   UNL     1       8.737   9.412  19.118  0.00  0.00    +0.000 OA
BRANCH  20  24
ATOM     21  C   UNL     1      11.090  12.868  19.011  0.00  0.00    +0.000 A 
ATOM     22  C   UNL     1      10.959  11.998  17.941  0.00  0.00    +0.000 A 
ATOM     23  C   UNL     1      10.149  10.864  18.058  0.00  0.00    +0.000 A 
ATOM     24  C   UNL     1       9.460  10.570  19.247  0.00  0.00    +0.000 A 
ATOM     25  C   UNL     1       9.605  11.449  20.329  0.00  0.00    +0.000 A 
ATOM     26 CL   UNL     1       8.852  11.273  21.875  0.00  0.00    +0.000 Cl
ATOM     27  C   UNL     1      10.428  12.581  20.205  0.00  0.00    +0.000 A 
BRANCH  21  29
ATOM     28  C   UNL     1      11.284  15.117  19.692  0.00  0.00    +0.000 C 
ATOM     29  O   UNL     1      11.859  14.001  19.024  0.00  0.00    +0.000 OA
ENDBRANCH  21  29
ENDBRANCH  20  24
ENDBRANCH  19  20
ENDBRANCH   1  19
TORSDOF 6
ENDMDL
MODEL 2
REMARK VINA RESULT:      -7.8      2.863      9.986
REMARK  Name = 
REMARK  7 active torsions:
REMARK  status: ('A' for Active; 'I' for Inactive)
REMARK    1  A    between atoms: C_1  and  O_2
REMARK    2  A    between atoms: O_2  and  C_3
REMARK    3  A    between atoms: C_6  and  O_7
REMARK    4  A    between atoms: O_7  and  C_8
REMARK    5  A    between atoms: C_8  and  C_9
REMARK    6  A    between atoms: C_11  and  C_12
REMARK    7  A    between atoms: N_14  and  C_15
REMARK                            x       y       z     vdW  Elec       q    Type
REMARK                         _______ _______ _______ _____ _____    ______ ____
ROOT
ATOM      1  C   UNL     1       7.742   6.914  17.974  0.00  0.00    +0.000 A 
ATOM      2  C   UNL     1       8.430   7.627  18.931  0.00  0.00    +0.000 A 
ATOM      3  C   UNL     1       8.463   8.967  18.463  0.00  0.00    +0.000 A 
ATOM      4  N   UNL     1       7.858   9.069  17.260  0.00  0.00    +0.000 NA
ATOM      5  N   UNL     1       7.441   7.818  16.995  0.00  0.00    +0.000 N 
ATOM      6  H   UNL     1       6.940   7.652  16.129  0.00  0.00    +0.000 HD
ENDROOT
BRANCH   3   7
ATOM      7  C   UNL     1       9.065  10.125  19.142  0.00  0.00    +0.000 C 
ATOM      8  O   UNL     1       9.361  10.117  20.334  0.00  0.00    +0.000 OA
ATOM      9  N   UNL     1       9.282  11.202  18.314  0.00  0.00    +0.000 N 
ATOM     10  H   UNL     1       8.989  11.088  17.347  0.00  0.00    +0.000 HD
BRANCH   9  11
ATOM     11  C   UNL     1       9.934  12.421  18.766  0.00  0.00    +0.000 C 
ATOM     12  C   UNL     1      11.453  12.326  18.591  0.00  0.00    +0.000 C 
ATOM     13  C   UNL     1      11.860  12.607  17.149  0.00  0.00    +0.000 C 
ATOM     14  C   UNL     1      11.421  14.014  16.782  0.00  0.00    +0.000 C 
ATOM     15  N   UNL     1      10.014  14.216  17.030  0.00  0.00    +0.000 N 
ATOM     16  C   UNL     1       9.305  13.630  18.045  0.00  0.00    +0.000 C 
ATOM     17  O   UNL     1       8.149  13.999  18.252  0.00  0.00    +0.000 OA
ATOM     18  H   UNL     1       9.552  15.021  16.623  0.00  0.00    +0.000 HD
ENDBRANCH   9  11
ENDBRANCH   3   7
BRANCH   1  19
ATOM     19  C   UNL     1       7.318   5.491  17.900  0.00  0.00    +0.000 C 
BRANCH  19  20
ATOM     20  O   UNL     1       6.346   5.307  18.916  0.00  0.00    +0.000 OA
BRANCH  20  24
ATOM     21  C   UNL     1       2.601   3.627  18.113  0.00  0.00    +0.000 A 
ATOM     22  C   UNL     1       3.652   2.920  18.676  0.00  0.00    +0.000 A 
ATOM     23  C   UNL     1       4.874   3.559  18.915  0.00  0.00    +0.000 A 
ATOM     24  C   UNL     1       5.074   4.910  18.590  0.00  0.00    +0.000 A 
ATOM     25  C   UNL     1       4.011   5.616  18.011  0.00  0.00    +0.000 A 
ATOM     26 CL   UNL     1       4.046   7.277  17.535  0.00  0.00    +0.000 Cl
ATOM     27  C   UNL     1       2.790   4.964  17.766  0.00  0.00    +0.000 A 
BRANCH  21  29
ATOM     28  C   UNL     1       0.711   2.456  18.899  0.00  0.00    +0.000 C 
ATOM     29  O   UNL     1       1.366   3.113  17.821  0.00  0.00    +0.000 OA
ENDBRANCH  21  29
ENDBRANCH  20  24
ENDBRANCH  19  20
ENDBRANCH   1  19
TORSDOF 6
ENDMDL
MODEL 3
REMARK VINA RESULT:      -7.7      6.647      9.354
REMARK  Name = 
REMARK  7 active torsions:
REMARK  status: ('A' for Active; 'I' for Inactive)
REMARK    1  A    between atoms: C_1  and  O_2
REMARK    2  A    between atoms: O_2  and  C_3
REMARK    3  A    between atoms: C_6  and  O_7
REMARK    4  A    between atoms: O_7  and  C_8
REMARK    5  A    between atoms: C_8  and  C_9
REMARK    6  A    between atoms: C_11  and  C_12
REMARK    7  A    between atoms: N_14  and  C_15
REMARK                            x       y       z     vdW  Elec       q    Type
REMARK                         _______ _______ _______ _____ _____    ______ ____
ROOT
ATOM      1  C   UNL     1       1.538   9.024  18.882  0.00  0.00    +0.000 A 
ATOM      2  C   UNL     1       2.355   8.019  18.413  0.00  0.00    +0.000 A 
ATOM      3  C   UNL     1       2.462   7.084  19.476  0.00  0.00    +0.000 A 
ATOM      4  N   UNL     1       1.774   7.507  20.558  0.00  0.00    +0.000 NA
ATOM      5  N   UNL     1       1.236   8.676  20.168  0.00  0.00    +0.000 N 
ATOM      6  H   UNL     1       0.656   9.182  20.829  0.00  0.00    +0.000 HD
ENDROOT
BRANCH   3   7
ATOM      7  C   UNL     1       3.209   5.816  19.464  0.00  0.00    +0.000 C 
ATOM      8  O   UNL     1       3.052   4.943  20.314  0.00  0.00    +0.000 OA
ATOM      9  N   UNL     1       4.079   5.696  18.405  0.00  0.00    +0.000 N 
ATOM     10  H   UNL     1       4.124   6.490  17.771  0.00  0.00    +0.000 HD
BRANCH   9  11
ATOM     11  C   UNL     1       4.860   4.493  18.163  0.00  0.00    +0.000 C 
ATOM     12  C   UNL     1       4.661   3.989  16.731  0.00  0.00    +0.000 C 
ATOM     13  C   UNL     1       5.516   4.778  15.745  0.00  0.00    +0.000 C 
ATOM     14  C   UNL     1       6.978   4.603  16.117  0.00  0.00    +0.000 C 
ATOM     15  N   UNL     1       7.224   4.952  17.496  0.00  0.00    +0.000 N 
ATOM     16  C   UNL     1       6.335   4.765  18.522  0.00  0.00    +0.000 C 
ATOM     17  O   UNL     1       6.714   4.954  19.677  0.00  0.00    +0.000 OA
ATOM     18  H   UNL     1       8.178   5.096  17.806  0.00  0.00    +0.000 HD
ENDBRANCH   9  11
ENDBRANCH   3   7
BRANCH   1  19
ATOM     19  C   UNL     1       0.994  10.250  18.242  0.00  0.00    +0.000 C 
BRANCH  19  20
ATOM     20  O   UNL     1       0.021  10.772  19.133  0.00  0.00    +0.000 OA
BRANCH  20  24
ATOM     21  C   UNL     1      -3.816  10.977  17.480  0.00  0.00    +0.000 A 
ATOM     22  C   UNL     1      -2.813  10.157  16.987  0.00  0.00    +0.000 A 
ATOM     23  C   UNL     1      -1.556  10.146  17.601  0.00  0.00    +0.000 A 
ATOM     24  C   UNL     1      -1.271  10.957  18.712  0.00  0.00    +0.000 A 
ATOM     25  C   UNL     1      -2.287  11.792  19.198  0.00  0.00    +0.000 A 
ATOM     26 CL   UNL     1      -2.147  12.866  20.545  0.00  0.00    +0.000 Cl
ATOM     27  C   UNL     1      -3.544  11.803  18.570  0.00  0.00    +0.000 A 
BRANCH  21  29
ATOM     28  C   UNL     1      -5.761  12.294  17.275  0.00  0.00    +0.000 C 
ATOM     29  O   UNL     1      -5.078  11.086  16.962  0.00  0.00    +0.000 OA
ENDBRANCH  21  29
ENDBRANCH  20  24
ENDBRANCH  19  20
ENDBRANCH   1  19
TORSDOF 6
ENDMDL
MODEL 4
REMARK VINA RESULT:      -7.6      5.824      8.554
REMARK  Name = 
REMARK  7 active torsions:
REMARK  status: ('A' for Active; 'I' for Inactive)
REMARK    1  A    between atoms: C_1  and  O_2
REMARK    2  A    between atoms: O_2  and  C_3
REMARK    3  A    between atoms: C_6  and  O_7
REMARK    4  A    between atoms: O_7  and  C_8
REMARK    5  A    between atoms: C_8  and  C_9
REMARK    6  A    between atoms: C_11  and  C_12
REMARK    7  A    between atoms: N_14  and  C_15
REMARK                            x       y       z     vdW  Elec       q    Type
REMARK                         _______ _______ _______ _____ _____    ______ ____
ROOT
ATOM      1  C   UNL     1       2.596   6.504  19.650  0.00  0.00    +0.000 A 
ATOM      2  C   UNL     1       2.313   7.278  18.547  0.00  0.00    +0.000 A 
ATOM      3  C   UNL     1       1.682   8.447  19.049  0.00  0.00    +0.000 A 
ATOM      4  N   UNL     1       1.551   8.382  20.391  0.00  0.00    +0.000 NA
ATOM      5  N   UNL     1       2.106   7.201  20.718  0.00  0.00    +0.000 N 
ATOM      6  H   UNL     1       2.131   6.937  21.697  0.00  0.00    +0.000 HD
ENDROOT
BRANCH   3   7
ATOM      7  C   UNL     1       1.208   9.599  18.267  0.00  0.00    +0.000 C 
ATOM      8  O   UNL     1       1.946  10.262  17.543  0.00  0.00    +0.000 OA
ATOM      9  N   UNL     1      -0.138   9.849  18.408  0.00  0.00    +0.000 N 
ATOM     10  H   UNL     1      -0.642   9.233  19.041  0.00  0.00    +0.000 HD
BRANCH   9  11
ATOM     11  C   UNL     1      -0.824  10.895  17.667  0.00  0.00    +0.000 C 
ATOM     12  C   UNL     1      -1.990  10.318  16.857  0.00  0.00    +0.000 C 
ATOM     13  C   UNL     1      -3.215  10.095  17.737  0.00  0.00    +0.000 C 
ATOM     14  C   UNL     1      -3.649  11.429  18.317  0.00  0.00    +0.000 C 
ATOM     15  N   UNL     1      -2.565  12.091  19.003  0.00  0.00    +0.000 N 
ATOM     16  C   UNL     1      -1.246  12.014  18.640  0.00  0.00    +0.000 C 
ATOM     17  O   UNL     1      -0.432  12.745  19.203  0.00  0.00    +0.000 OA
ATOM     18  H   UNL     1      -2.772  12.867  19.620  0.00  0.00    +0.000 HD
ENDBRANCH   9  11
ENDBRANCH   3   7
BRANCH   1  19
ATOM     19  C   UNL     1       3.299   5.203  19.805  0.00  0.00    +0.000 C 
BRANCH  19  20
ATOM     20  O   UNL     1       4.681   5.469  19.629  0.00  0.00    +0.000 OA
BRANCH  20  24
ATOM     21  C   UNL     1       6.132   4.187  15.922  0.00  0.00    +0.000 A 
ATOM     22  C   UNL     1       4.829   3.980  16.347  0.00  0.00    +0.000 A 
ATOM     23  C   UNL     1       4.423   4.444  17.603  0.00  0.00    +0.000 A 
ATOM     24  C   UNL     1       5.308   5.115  18.462  0.00  0.00    +0.000 A 
ATOM     25  C   UNL     1       6.627   5.311  18.030  0.00  0.00    +0.000 A 
ATOM     26 CL   UNL     1       7.872   6.105  18.928  0.00  0.00    +0.000 Cl
ATOM     27  C   UNL     1       7.029   4.834  16.770  0.00  0.00    +0.000 A 
BRANCH  21  29
ATOM     28  C   UNL     1       7.074   4.813  13.853  0.00  0.00    +0.000 C 
ATOM     29  O   UNL     1       6.651   3.772  14.725  0.00  0.00    +0.000 OA
ENDBRANCH  21  29
ENDBRANCH  20  24
ENDBRANCH  19  20
ENDBRANCH   1  19
TORSDOF 6
ENDMDL
MODEL 5
REMARK VINA RESULT:      -7.6      6.933      9.554
REMARK  Name = 
REMARK  7 active torsions:
REMARK  status: ('A' for Active; 'I' for Inactive)
REMARK    1  A    between atoms: C_1  and  O_2
REMARK    2  A    between atoms: O_2  and  C_3
REMARK    3  A    between atoms: C_6  and  O_7
REMARK    4  A    between atoms: O_7  and  C_8
REMARK    5  A    between atoms: C_8  and  C_9
REMARK    6  A    between atoms: C_11  and  C_12
REMARK    7  A    between atoms: N_14  and  C_15
REMARK                            x       y       z     vdW  Elec       q    Type
REMARK                         _______ _______ _______ _____ _____    ______ ____
ROOT
ATOM      1  C   UNL     1       1.334   9.097  19.099  0.00  0.00    +0.000 A 
ATOM      2  C   UNL     1       2.136   8.091  18.606  0.00  0.00    +0.000 A 
ATOM      3  C   UNL     1       2.278   7.159  19.667  0.00  0.00    +0.000 A 
ATOM      4  N   UNL     1       1.627   7.585  20.771  0.00  0.00    +0.000 NA
ATOM      5  N   UNL     1       1.076   8.753  20.395  0.00  0.00    +0.000 N 
ATOM      6  H   UNL     1       0.518   9.261  21.074  0.00  0.00    +0.000 HD
ENDROOT
BRANCH   3   7
ATOM      7  C   UNL     1       3.025   5.891  19.634  0.00  0.00    +0.000 C 
ATOM      8  O   UNL     1       2.762   4.944  20.370  0.00  0.00    +0.000 OA
ATOM      9  N   UNL     1       4.027   5.863  18.691  0.00  0.00    +0.000 N 
ATOM     10  H   UNL     1       4.152   6.712  18.146  0.00  0.00    +0.000 HD
BRANCH   9  11
ATOM     11  C   UNL     1       4.838   4.681  18.443  0.00  0.00    +0.000 C 
ATOM     12  C   UNL     1       4.554   4.106  17.052  0.00  0.00    +0.000 C 
ATOM     13  C   UNL     1       5.300   4.882  15.972  0.00  0.00    +0.000 C 
ATOM     14  C   UNL     1       6.791   4.780  16.238  0.00  0.00    +0.000 C 
ATOM     15  N   UNL     1       7.124   5.200  17.578  0.00  0.00    +0.000 N 
ATOM     16  C   UNL     1       6.322   5.026  18.675  0.00  0.00    +0.000 C 
ATOM     17  O   UNL     1       6.778   5.282  19.789  0.00  0.00    +0.000 OA
ATOM     18  H   UNL     1       8.092   5.395  17.808  0.00  0.00    +0.000 HD
ENDBRANCH   9  11
ENDBRANCH   3   7
BRANCH   1  19
ATOM     19  C   UNL     1       0.768  10.321  18.473  0.00  0.00    +0.000 C 
BRANCH  19  20
ATOM     20  O   UNL     1      -0.336   9.899  17.689  0.00  0.00    +0.000 OA
BRANCH  20  24
ATOM     21  C   UNL     1      -3.891  11.882  18.648  0.00  0.00    +0.000 A 
ATOM     22  C   UNL     1      -2.754  11.922  19.440  0.00  0.00    +0.000 A 
ATOM     23  C   UNL     1      -1.604  11.232  19.045  0.00  0.00    +0.000 A 
ATOM     24  C   UNL     1      -1.565  10.481  17.858  0.00  0.00    +0.000 A 
ATOM     25  C   UNL     1      -2.722  10.436  17.067  0.00  0.00    +0.000 A 
ATOM     26 CL   UNL     1      -2.890   9.574  15.579  0.00  0.00    +0.000 Cl
ATOM     27  C   UNL     1      -3.877  11.126  17.476  0.00  0.00    +0.000 A 
BRANCH  21  29
ATOM     28  C   UNL     1      -5.609  12.237  20.223  0.00  0.00    +0.000 C 
ATOM     29  O   UNL     1      -5.077  12.504  18.930  0.00  0.00    +0.000 OA
ENDBRANCH  21  29
ENDBRANCH  20  24
ENDBRANCH  19  20
ENDBRANCH   1  19
TORSDOF 6
ENDMDL
MODEL 6
REMARK VINA RESULT:      -7.5      5.541      8.363
REMARK  Name = 
REMARK  7 active torsions:
REMARK  status: ('A' for Active; 'I' for Inactive)
REMARK    1  A    between atoms: C_1  and  O_2
REMARK    2  A    between atoms: O_2  and  C_3
REMARK    3  A    between atoms: C_6  and  O_7
REMARK    4  A    between atoms: O_7  and  C_8
REMARK    5  A    between atoms: C_8  and  C_9
REMARK    6  A    between atoms: C_11  and  C_12
REMARK    7  A    between atoms: N_14  and  C_15
REMARK                            x       y       z     vdW  Elec       q    Type
REMARK                         _______ _______ _______ _____ _____    ______ ____
ROOT
ATOM      1  C   UNL     1       3.106   5.944  19.486  0.00  0.00    +0.000 A 
ATOM      2  C   UNL     1       2.931   6.920  18.530  0.00  0.00    +0.000 A 
ATOM      3  C   UNL     1       2.124   7.916  19.141  0.00  0.00    +0.000 A 
ATOM      4  N   UNL     1       1.788   7.555  20.398  0.00  0.00    +0.000 NA
ATOM      5  N   UNL     1       2.391   6.365  20.570  0.00  0.00    +0.000 N 
ATOM      6  H   UNL     1       2.284   5.898  21.465  0.00  0.00    +0.000 HD
ENDROOT
BRANCH   3   7
ATOM      7  C   UNL     1       1.675   9.181  18.538  0.00  0.00    +0.000 C 
ATOM      8  O   UNL     1       1.951   9.504  17.386  0.00  0.00    +0.000 OA
ATOM      9  N   UNL     1       0.904   9.952  19.378  0.00  0.00    +0.000 N 
ATOM     10  H   UNL     1       0.749   9.578  20.311  0.00  0.00    +0.000 HD
BRANCH   9  11
ATOM     11  C   UNL     1       0.298  11.205  18.957  0.00  0.00    +0.000 C 
ATOM     12  C   UNL     1      -1.139  11.319  19.474  0.00  0.00    +0.000 C 
ATOM     13  C   UNL     1      -1.166  11.762  20.933  0.00  0.00    +0.000 C 
ATOM     14  C   UNL     1      -0.507  13.125  21.042  0.00  0.00    +0.000 C 
ATOM     15  N   UNL     1       0.817  13.126  20.468  0.00  0.00    +0.000 N 
ATOM     16  C   UNL     1       1.202  12.377  19.387  0.00  0.00    +0.000 C 
ATOM     17  O   UNL     1       2.310  12.577  18.891  0.00  0.00    +0.000 OA
ATOM     18  H   UNL     1       1.444  13.895  20.674  0.00  0.00    +0.000 HD
ENDBRANCH   9  11
ENDBRANCH   3   7
BRANCH   1  19
ATOM     19  C   UNL     1       3.893   4.683  19.494  0.00  0.00    +0.000 C 
BRANCH  19  20
ATOM     20  O   UNL     1       5.249   5.052  19.298  0.00  0.00    +0.000 OA
BRANCH  20  24
ATOM     21  C   UNL     1       6.557   4.596  15.352  0.00  0.00    +0.000 A 
ATOM     22  C   UNL     1       5.511   3.872  15.900  0.00  0.00    +0.000 A 
ATOM     23  C   UNL     1       5.133   4.087  17.229  0.00  0.00    +0.000 A 
ATOM     24  C   UNL     1       5.796   5.022  18.041  0.00  0.00    +0.000 A 
ATOM     25  C   UNL     1       6.861   5.744  17.484  0.00  0.00    +0.000 A 
ATOM     26 CL   UNL     1       7.809   6.933  18.305  0.00  0.00    +0.000 Cl
ATOM     27  C   UNL     1       7.240   5.514  16.150  0.00  0.00    +0.000 A 
BRANCH  21  29
ATOM     28  C   UNL     1       6.184   3.744  13.186  0.00  0.00    +0.000 C 
ATOM     29  O   UNL     1       7.027   4.469  14.072  0.00  0.00    +0.000 OA
ENDBRANCH  21  29
ENDBRANCH  20  24
ENDBRANCH  19  20
ENDBRANCH   1  19
TORSDOF 6
ENDMDL
MODEL 7
REMARK VINA RESULT:      -7.5      3.179     10.109
REMARK  Name = 
REMARK  7 active torsions:
REMARK  status: ('A' for Active; 'I' for Inactive)
REMARK    1  A    between atoms: C_1  and  O_2
REMARK    2  A    between atoms: O_2  and  C_3
REMARK    3  A    between atoms: C_6  and  O_7
REMARK    4  A    between atoms: O_7  and  C_8
REMARK    5  A    between atoms: C_8  and  C_9
REMARK    6  A    between atoms: C_11  and  C_12
REMARK    7  A    between atoms: N_14  and  C_15
REMARK                            x       y       z     vdW  Elec       q    Type
REMARK                         _______ _______ _______ _____ _____    ______ ____
ROOT
ATOM      1  C   UNL     1       7.777   7.006  17.951  0.00  0.00    +0.000 A 
ATOM      2  C   UNL     1       8.493   7.714  18.891  0.00  0.00    +0.000 A 
ATOM      3  C   UNL     1       8.464   9.066  18.458  0.00  0.00    +0.000 A 
ATOM      4  N   UNL     1       7.794   9.181  17.291  0.00  0.00    +0.000 NA
ATOM      5  N   UNL     1       7.400   7.925  17.014  0.00  0.00    +0.000 N 
ATOM      6  H   UNL     1       6.859   7.767  16.170  0.00  0.00    +0.000 HD
ENDROOT
BRANCH   3   7
ATOM      7  C   UNL     1       9.067  10.224  19.137  0.00  0.00    +0.000 C 
ATOM      8  O   UNL     1       9.314  10.236  20.340  0.00  0.00    +0.000 OA
ATOM      9  N   UNL     1       9.344  11.277  18.296  0.00  0.00    +0.000 N 
ATOM     10  H   UNL     1       9.088  11.149  17.320  0.00  0.00    +0.000 HD
BRANCH   9  11
ATOM     11  C   UNL     1      10.008  12.489  18.748  0.00  0.00    +0.000 C 
ATOM     12  C   UNL     1      11.526  12.383  18.565  0.00  0.00    +0.000 C 
ATOM     13  C   UNL     1      11.928  12.665  17.122  0.00  0.00    +0.000 C 
ATOM     14  C   UNL     1      11.498  14.076  16.762  0.00  0.00    +0.000 C 
ATOM     15  N   UNL     1      10.094  14.289  17.017  0.00  0.00    +0.000 N 
ATOM     16  C   UNL     1       9.386  13.706  18.035  0.00  0.00    +0.000 C 
ATOM     17  O   UNL     1       8.234  14.083  18.249  0.00  0.00    +0.000 OA
ATOM     18  H   UNL     1       9.636  15.099  16.616  0.00  0.00    +0.000 HD
ENDBRANCH   9  11
ENDBRANCH   3   7
BRANCH   1  19
ATOM     19  C   UNL     1       7.390   5.574  17.860  0.00  0.00    +0.000 C 
BRANCH  19  20
ATOM     20  O   UNL     1       6.348   5.377  18.802  0.00  0.00    +0.000 OA
BRANCH  20  24
ATOM     21  C   UNL     1       2.521   3.864  18.053  0.00  0.00    +0.000 A 
ATOM     22  C   UNL     1       2.864   4.540  19.213  0.00  0.00    +0.000 A 
ATOM     23  C   UNL     1       4.167   5.017  19.385  0.00  0.00    +0.000 A 
ATOM     24  C   UNL     1       5.157   4.823  18.407  0.00  0.00    +0.000 A 
ATOM     25  C   UNL     1       4.807   4.129  17.241  0.00  0.00    +0.000 A 
ATOM     26 CL   UNL     1       5.868   3.779  15.922  0.00  0.00    +0.000 Cl
ATOM     27  C   UNL     1       3.497   3.645  17.081  0.00  0.00    +0.000 A 
BRANCH  21  29
ATOM     28  C   UNL     1       0.729   2.525  18.796  0.00  0.00    +0.000 C 
ATOM     29  O   UNL     1       1.287   3.341  17.774  0.00  0.00    +0.000 OA
ENDBRANCH  21  29
ENDBRANCH  20  24
ENDBRANCH  19  20
ENDBRANCH   1  19
TORSDOF 6
ENDMDL
MODEL 8
REMARK VINA RESULT:      -7.5      6.487      9.381
REMARK  Name = 
REMARK  7 active torsions:
REMARK  status: ('A' for Active; 'I' for Inactive)
REMARK    1  A    between atoms: C_1  and  O_2
REMARK    2  A    between atoms: O_2  and  C_3
REMARK    3  A    between atoms: C_6  and  O_7
REMARK    4  A    between atoms: O_7  and  C_8
REMARK    5  A    between atoms: C_8  and  C_9
REMARK    6  A    between atoms: C_11  and  C_12
REMARK    7  A    between atoms: N_14  and  C_15
REMARK                            x       y       z     vdW  Elec       q    Type
REMARK                         _______ _______ _______ _____ _____    ______ ____
ROOT
ATOM      1  C   UNL     1       1.791   8.715  18.496  0.00  0.00    +0.000 A 
ATOM      2  C   UNL     1       2.753   7.904  17.936  0.00  0.00    +0.000 A 
ATOM      3  C   UNL     1       3.038   6.914  18.914  0.00  0.00    +0.000 A 
ATOM      4  N   UNL     1       2.314   7.126  20.034  0.00  0.00    +0.000 NA
ATOM      5  N   UNL     1       1.580   8.217  19.750  0.00  0.00    +0.000 N 
ATOM      6  H   UNL     1       0.939   8.562  20.456  0.00  0.00    +0.000 HD
ENDROOT
BRANCH   3   7
ATOM      7  C   UNL     1       3.985   5.795  18.788  0.00  0.00    +0.000 C 
ATOM      8  O   UNL     1       4.019   4.860  19.582  0.00  0.00    +0.000 OA
ATOM      9  N   UNL     1       4.808   5.888  17.689  0.00  0.00    +0.000 N 
ATOM     10  H   UNL     1       4.687   6.714  17.108  0.00  0.00    +0.000 HD
BRANCH   9  11
ATOM     11  C   UNL     1       5.766   4.851  17.337  0.00  0.00    +0.000 C 
ATOM     12  C   UNL     1       5.204   3.933  16.247  0.00  0.00    +0.000 C 
ATOM     13  C   UNL     1       5.339   4.569  14.868  0.00  0.00    +0.000 C 
ATOM     14  C   UNL     1       6.811   4.808  14.582  0.00  0.00    +0.000 C 
ATOM     15  N   UNL     1       7.441   5.575  15.630  0.00  0.00    +0.000 N 
ATOM     16  C   UNL     1       7.108   5.508  16.957  0.00  0.00    +0.000 C 
ATOM     17  O   UNL     1       7.818   6.090  17.777  0.00  0.00    +0.000 OA
ATOM     18  H   UNL     1       8.348   5.993  15.458  0.00  0.00    +0.000 HD
ENDBRANCH   9  11
ENDBRANCH   3   7
BRANCH   1  19
ATOM     19  C   UNL     1       1.036   9.881  17.967  0.00  0.00    +0.000 C 
BRANCH  19  20
ATOM     20  O   UNL     1      -0.220   9.385  17.533  0.00  0.00    +0.000 OA
BRANCH  20  24
ATOM     21  C   UNL     1      -3.846  11.468  17.640  0.00  0.00    +0.000 A 
ATOM     22  C   UNL     1      -3.457  10.661  16.583  0.00  0.00    +0.000 A 
ATOM     23  C   UNL     1      -2.228   9.996  16.627  0.00  0.00    +0.000 A 
ATOM     24  C   UNL     1      -1.357  10.128  17.721  0.00  0.00    +0.000 A 
ATOM     25  C   UNL     1      -1.751  10.955  18.783  0.00  0.00    +0.000 A 
ATOM     26 CL   UNL     1      -0.834  11.257  20.216  0.00  0.00    +0.000 Cl
ATOM     27  C   UNL     1      -2.985  11.626  18.726  0.00  0.00    +0.000 A 
BRANCH  21  29
ATOM     28  C   UNL     1      -6.182  11.401  17.951  0.00  0.00    +0.000 C 
ATOM     29  O   UNL     1      -5.014  12.177  17.710  0.00  0.00    +0.000 OA
ENDBRANCH  21  29
ENDBRANCH  20  24
ENDBRANCH  19  20
ENDBRANCH   1  19
TORSDOF 6
ENDMDL
MODEL 9
REMARK VINA RESULT:      -7.5      6.079      8.676
REMARK  Name = 
REMARK  7 active torsions:
REMARK  status: ('A' for Active; 'I' for Inactive)
REMARK    1  A    between atoms: C_1  and  O_2
REMARK    2  A    between atoms: O_2  and  C_3
REMARK    3  A    between atoms: C_6  and  O_7
REMARK    4  A    between atoms: O_7  and  C_8
REMARK    5  A    between atoms: C_8  and  C_9
REMARK    6  A    between atoms: C_11  and  C_12
REMARK    7  A    between atoms: N_14  and  C_15
REMARK                            x       y       z     vdW  Elec       q    Type
REMARK                         _______ _______ _______ _____ _____    ______ ____
ROOT
ATOM      1  C   UNL     1       2.602   6.502  19.640  0.00  0.00    +0.000 A 
ATOM      2  C   UNL     1       2.350   7.287  18.536  0.00  0.00    +0.000 A 
ATOM      3  C   UNL     1       1.661   8.428  19.026  0.00  0.00    +0.000 A 
ATOM      4  N   UNL     1       1.467   8.335  20.359  0.00  0.00    +0.000 NA
ATOM      5  N   UNL     1       2.040   7.165  20.693  0.00  0.00    +0.000 N 
ATOM      6  H   UNL     1       2.026   6.885  21.668  0.00  0.00    +0.000 HD
ENDROOT
BRANCH   3   7
ATOM      7  C   UNL     1       1.191   9.579  18.240  0.00  0.00    +0.000 C 
ATOM      8  O   UNL     1       1.919  10.203  17.472  0.00  0.00    +0.000 OA
ATOM      9  N   UNL     1      -0.140   9.875  18.432  0.00  0.00    +0.000 N 
ATOM     10  H   UNL     1      -0.636   9.288  19.098  0.00  0.00    +0.000 HD
BRANCH   9  11
ATOM     11  C   UNL     1      -0.823  10.928  17.698  0.00  0.00    +0.000 C 
ATOM     12  C   UNL     1      -1.956  10.352  16.842  0.00  0.00    +0.000 C 
ATOM     13  C   UNL     1      -3.201  10.088  17.682  0.00  0.00    +0.000 C 
ATOM     14  C   UNL     1      -3.673  11.399  18.283  0.00  0.00    +0.000 C 
ATOM     15  N   UNL     1      -2.619  12.062  19.014  0.00  0.00    +0.000 N 
ATOM     16  C   UNL     1      -1.290  12.015  18.686  0.00  0.00    +0.000 C 
ATOM     17  O   UNL     1      -0.504  12.745  19.289  0.00  0.00    +0.000 OA
ATOM     18  H   UNL     1      -2.856  12.819  19.645  0.00  0.00    +0.000 HD
ENDBRANCH   9  11
ENDBRANCH   3   7
BRANCH   1  19
ATOM     19  C   UNL     1       3.336   5.220  19.808  0.00  0.00    +0.000 C 
BRANCH  19  20
ATOM     20  O   UNL     1       4.694   5.489  19.497  0.00  0.00    +0.000 OA
BRANCH  20  24
ATOM     21  C   UNL     1       6.567   4.832  15.815  0.00  0.00    +0.000 A 
ATOM     22  C   UNL     1       6.878   5.890  16.655  0.00  0.00    +0.000 A 
ATOM     23  C   UNL     1       6.206   6.036  17.873  0.00  0.00    +0.000 A 
ATOM     24  C   UNL     1       5.204   5.137  18.273  0.00  0.00    +0.000 A 
ATOM     25  C   UNL     1       4.886   4.076  17.415  0.00  0.00    +0.000 A 
ATOM     26 CL   UNL     1       3.689   2.866  17.712  0.00  0.00    +0.000 Cl
ATOM     27  C   UNL     1       5.561   3.942  16.189  0.00  0.00    +0.000 A 
BRANCH  21  29
ATOM     28  C   UNL     1       6.290   3.988  13.632  0.00  0.00    +0.000 C 
ATOM     29  O   UNL     1       7.143   4.589  14.598  0.00  0.00    +0.000 OA
ENDBRANCH  21  29
ENDBRANCH  20  24
ENDBRANCH  19  20
ENDBRANCH   1  19
TORSDOF 6
ENDMDL
