MODEL 1
REMARK VINA RESULT:      -7.3      0.000      0.000
REMARK  Name = 
REMARK  9 active torsions:
REMARK  status: ('A' for Active; 'I' for Inactive)
REMARK    1  A    between atoms: C_1  and  C_2
REMARK    2  A    between atoms: C_2  and  C_3
REMARK    3  A    between atoms: C_6  and  C_7
REMARK    4  A    between atoms: C_7  and  C_8
REMARK    5  A    between atoms: C_8  and  O_10
REMARK    6  A    between atoms: O_10  and  C_11
REMARK    7  A    between atoms: C_12  and  C_13
REMARK    8  A    between atoms: C_13  and  C_14
REMARK    9  A    between atoms: N_22  and  C_23
REMARK                            x       y       z     vdW  Elec       q    Type
REMARK                         _______ _______ _______ _____ _____    ______ ____
ROOT
ATOM      1  C   UNL     1       3.023   4.060  17.653  0.00  0.00    +0.000 C 
ATOM      2  C   UNL     1       3.124   5.675  17.603  0.00  0.00    +0.000 C 
ATOM      3  C   UNL     1       4.686   6.060  17.525  0.00  0.00    +0.000 C 
ATOM      4  C   UNL     1       5.694   6.129  16.272  0.00  0.00    +0.000 C 
ATOM      5  C   UNL     1       5.455   5.000  15.200  0.00  0.00    +0.000 C 
ATOM      6  C   UNL     1       5.320   3.599  15.950  0.00  0.00    +0.000 C 
ATOM      7  C   UNL     1       4.456   3.805  17.226  0.00  0.00    +0.000 C 
ATOM      8  N   UNL     1       5.195   4.821  18.070  0.00  0.00    +0.000 NA
ATOM      9  C   UNL     1       5.117   4.904  19.534  0.00  0.00    +0.000 C 
ENDROOT
BRANCH   1  11
ATOM     10  C   UNL     1       1.573   2.235  18.662  0.00  0.00    +0.000 C 
ATOM     11  C   UNL     1       2.787   3.155  18.886  0.00  0.00    +0.000 C 
ENDBRANCH   1  11
BRANCH   4  12
ATOM     12  C   UNL     1       7.201   5.962  16.752  0.00  0.00    +0.000 C 
BRANCH  12  13
ATOM     13  C   UNL     1       7.735   6.970  17.722  0.00  0.00    +0.000 C 
ATOM     14  O   UNL     1       8.139   6.722  18.840  0.00  0.00    +0.000 OA
BRANCH  13  15
ATOM     15  O   UNL     1       7.620   8.223  17.195  0.00  0.00    +0.000 OA
ATOM     16  C   UNL     1       8.198   9.261  17.981  0.00  0.00    +0.000 C 
ENDBRANCH  13  15
ENDBRANCH  12  13
ENDBRANCH   4  12
BRANCH   5  17
ATOM     17  C   UNL     1       6.482   4.859  14.054  0.00  0.00    +0.000 C 
BRANCH  17  18
ATOM     18  C   UNL     1       6.138   3.892  12.946  0.00  0.00    +0.000 A 
ATOM     19  C   UNL     1       7.136   3.063  12.405  0.00  0.00    +0.000 A 
ATOM     20  C   UNL     1       6.833   2.133  11.408  0.00  0.00    +0.000 A 
ATOM     21  C   UNL     1       5.529   2.011  10.946  0.00  0.00    +0.000 A 
ATOM     22  C   UNL     1       4.524   2.818  11.481  0.00  0.00    +0.000 A 
ATOM     23  C   UNL     1       4.825   3.754  12.475  0.00  0.00    +0.000 A 
ENDBRANCH  17  18
ENDBRANCH   5  17
TORSDOF 6
ENDMDL
MODEL 2
REMARK VINA RESULT:      -7.3      1.409      2.163
REMARK  Name = 
REMARK  9 active torsions:
REMARK  status: ('A' for Active; 'I' for Inactive)
REMARK    1  A    between atoms: C_1  and  C_2
REMARK    2  A    between atoms: C_2  and  C_3
REMARK    3  A    between atoms: C_6  and  C_7
REMARK    4  A    between atoms: C_7  and  C_8
REMARK    5  A    between atoms: C_8  and  O_10
REMARK    6  A    between atoms: O_10  and  C_11
REMARK    7  A    between atoms: C_12  and  C_13
REMARK    8  A    between atoms: C_13  and  C_14
REMARK    9  A    between atoms: N_22  and  C_23
REMARK                            x       y       z     vdW  Elec       q    Type
REMARK                         _______ _______ _______ _____ _____    ______ ____
ROOT
ATOM      1  C   UNL     1       1.660   4.223  18.270  0.00  0.00    +0.000 C 
ATOM      2  C   UNL     1       1.955   5.653  17.571  0.00  0.00    +0.000 C 
ATOM      3  C   UNL     1       3.519   5.979  17.780  0.00  0.00    +0.000 C 
ATOM      4  C   UNL     1       4.816   5.501  16.954  0.00  0.00    +0.000 C 
ATOM      5  C   UNL     1       4.731   4.013  16.443  0.00  0.00    +0.000 C 
ATOM      6  C   UNL     1       4.247   3.083  17.645  0.00  0.00    +0.000 C 
ATOM      7  C   UNL     1       3.115   3.820  18.414  0.00  0.00    +0.000 C 
ATOM      8  N   UNL     1       3.725   5.110  18.917  0.00  0.00    +0.000 NA
ATOM      9  C   UNL     1       3.284   5.827  20.121  0.00  0.00    +0.000 C 
ENDROOT
BRANCH   1  11
ATOM     10  C   UNL     1       1.379   2.542  20.153  0.00  0.00    +0.000 C 
ATOM     11  C   UNL     1       1.013   3.950  19.650  0.00  0.00    +0.000 C 
ENDBRANCH   1  11
BRANCH   4  12
ATOM     12  C   UNL     1       6.120   5.575  17.861  0.00  0.00    +0.000 C 
BRANCH  12  13
ATOM     13  C   UNL     1       7.052   6.726  17.640  0.00  0.00    +0.000 C 
ATOM     14  O   UNL     1       6.978   7.521  16.726  0.00  0.00    +0.000 OA
BRANCH  13  15
ATOM     15  O   UNL     1       8.046   6.700  18.574  0.00  0.00    +0.000 OA
ATOM     16  C   UNL     1       7.914   5.684  19.565  0.00  0.00    +0.000 C 
ENDBRANCH  13  15
ENDBRANCH  12  13
ENDBRANCH   4  12
BRANCH   5  17
ATOM     17  C   UNL     1       5.993   3.392  15.804  0.00  0.00    +0.000 C 
BRANCH  17  18
ATOM     18  C   UNL     1       6.386   3.900  14.438  0.00  0.00    +0.000 A 
ATOM     19  C   UNL     1       7.349   4.916  14.318  0.00  0.00    +0.000 A 
ATOM     20  C   UNL     1       7.758   5.373  13.063  0.00  0.00    +0.000 A 
ATOM     21  C   UNL     1       7.219   4.814  11.912  0.00  0.00    +0.000 A 
ATOM     22  C   UNL     1       6.271   3.796  12.012  0.00  0.00    +0.000 A 
ATOM     23  C   UNL     1       5.855   3.340  13.267  0.00  0.00    +0.000 A 
ENDBRANCH  17  18
ENDBRANCH   5  17
TORSDOF 6
ENDMDL
MODEL 3
REMARK VINA RESULT:      -7.3      0.778      1.585
REMARK  Name = 
REMARK  9 active torsions:
REMARK  status: ('A' for Active; 'I' for Inactive)
REMARK    1  A    between atoms: C_1  and  C_2
REMARK    2  A    between atoms: C_2  and  C_3
REMARK    3  A    between atoms: C_6  and  C_7
REMARK    4  A    between atoms: C_7  and  C_8
REMARK    5  A    between atoms: C_8  and  O_10
REMARK    6  A    between atoms: O_10  and  C_11
REMARK    7  A    between atoms: C_12  and  C_13
REMARK    8  A    between atoms: C_13  and  C_14
REMARK    9  A    between atoms: N_22  and  C_23
REMARK                            x       y       z     vdW  Elec       q    Type
REMARK                         _______ _______ _______ _____ _____    ______ ____
ROOT
ATOM      1  C   UNL     1       2.473   3.899  17.749  0.00  0.00    +0.000 C 
ATOM      2  C   UNL     1       2.562   5.514  17.813  0.00  0.00    +0.000 C 
ATOM      3  C   UNL     1       4.122   5.908  17.895  0.00  0.00    +0.000 C 
ATOM      4  C   UNL     1       5.233   6.064  16.740  0.00  0.00    +0.000 C 
ATOM      5  C   UNL     1       5.097   5.006  15.581  0.00  0.00    +0.000 C 
ATOM      6  C   UNL     1       4.911   3.559  16.224  0.00  0.00    +0.000 C 
ATOM      7  C   UNL     1       3.940   3.677  17.432  0.00  0.00    +0.000 C 
ATOM      8  N   UNL     1       4.594   4.639  18.401  0.00  0.00    +0.000 NA
ATOM      9  C   UNL     1       4.390   4.625  19.855  0.00  0.00    +0.000 C 
ENDROOT
BRANCH   1  11
ATOM     10  C   UNL     1       0.906   3.392  19.683  0.00  0.00    +0.000 C 
ATOM     11  C   UNL     1       2.141   2.915  18.897  0.00  0.00    +0.000 C 
ENDBRANCH   1  11
BRANCH   4  12
ATOM     12  C   UNL     1       6.695   5.871  17.336  0.00  0.00    +0.000 C 
BRANCH  12  13
ATOM     13  C   UNL     1       7.476   7.106  17.667  0.00  0.00    +0.000 C 
ATOM     14  O   UNL     1       7.502   8.118  16.997  0.00  0.00    +0.000 OA
BRANCH  13  15
ATOM     15  O   UNL     1       8.221   6.893  18.790  0.00  0.00    +0.000 OA
ATOM     16  C   UNL     1       7.928   5.684  19.485  0.00  0.00    +0.000 C 
ENDBRANCH  13  15
ENDBRANCH  12  13
ENDBRANCH   4  12
BRANCH   5  17
ATOM     17  C   UNL     1       6.219   4.944  14.520  0.00  0.00    +0.000 C 
BRANCH  17  18
ATOM     18  C   UNL     1       5.993   4.029  13.341  0.00  0.00    +0.000 A 
ATOM     19  C   UNL     1       4.699   3.867  12.818  0.00  0.00    +0.000 A 
ATOM     20  C   UNL     1       4.472   3.058  11.702  0.00  0.00    +0.000 A 
ATOM     21  C   UNL     1       5.535   2.410  11.088  0.00  0.00    +0.000 A 
ATOM     22  C   UNL     1       6.828   2.570  11.586  0.00  0.00    +0.000 A 
ATOM     23  C   UNL     1       7.058   3.375  12.706  0.00  0.00    +0.000 A 
ENDBRANCH  17  18
ENDBRANCH   5  17
TORSDOF 6
ENDMDL
MODEL 4
REMARK VINA RESULT:      -7.3      0.258      1.037
REMARK  Name = 
REMARK  9 active torsions:
REMARK  status: ('A' for Active; 'I' for Inactive)
REMARK    1  A    between atoms: C_1  and  C_2
REMARK    2  A    between atoms: C_2  and  C_3
REMARK    3  A    between atoms: C_6  and  C_7
REMARK    4  A    between atoms: C_7  and  C_8
REMARK    5  A    between atoms: C_8  and  O_10
REMARK    6  A    between atoms: O_10  and  C_11
REMARK    7  A    between atoms: C_12  and  C_13
REMARK    8  A    between atoms: C_13  and  C_14
REMARK    9  A    between atoms: N_22  and  C_23
REMARK                            x       y       z     vdW  Elec       q    Type
REMARK                         _______ _______ _______ _____ _____    ______ ____
ROOT
ATOM      1  C   UNL     1       3.010   3.827  17.641  0.00  0.00    +0.000 C 
ATOM      2  C   UNL     1       3.066   5.445  17.660  0.00  0.00    +0.000 C 
ATOM      3  C   UNL     1       4.617   5.876  17.580  0.00  0.00    +0.000 C 
ATOM      4  C   UNL     1       5.606   6.028  16.319  0.00  0.00    +0.000 C 
ATOM      5  C   UNL     1       5.384   4.939  15.202  0.00  0.00    +0.000 C 
ATOM      6  C   UNL     1       5.296   3.504  15.892  0.00  0.00    +0.000 C 
ATOM      7  C   UNL     1       4.444   3.630  17.186  0.00  0.00    +0.000 C 
ATOM      8  N   UNL     1       5.166   4.629  18.065  0.00  0.00    +0.000 NA
ATOM      9  C   UNL     1       5.105   4.647  19.532  0.00  0.00    +0.000 C 
ENDROOT
BRANCH   1  11
ATOM     10  C   UNL     1       1.367   2.929  19.357  0.00  0.00    +0.000 C 
ATOM     11  C   UNL     1       2.815   2.864  18.837  0.00  0.00    +0.000 C 
ENDBRANCH   1  11
BRANCH   4  12
ATOM     12  C   UNL     1       7.123   5.881  16.773  0.00  0.00    +0.000 C 
BRANCH  12  13
ATOM     13  C   UNL     1       7.662   6.903  17.727  0.00  0.00    +0.000 C 
ATOM     14  O   UNL     1       8.077   6.669  18.844  0.00  0.00    +0.000 OA
BRANCH  13  15
ATOM     15  O   UNL     1       7.539   8.149  17.185  0.00  0.00    +0.000 OA
ATOM     16  C   UNL     1       8.167   9.191  17.928  0.00  0.00    +0.000 C 
ENDBRANCH  13  15
ENDBRANCH  12  13
ENDBRANCH   4  12
BRANCH   5  17
ATOM     17  C   UNL     1       6.398   4.876  14.039  0.00  0.00    +0.000 C 
BRANCH  17  18
ATOM     18  C   UNL     1       6.139   3.849  12.963  0.00  0.00    +0.000 A 
ATOM     19  C   UNL     1       4.842   3.687  12.447  0.00  0.00    +0.000 A 
ATOM     20  C   UNL     1       4.586   2.771  11.423  0.00  0.00    +0.000 A 
ATOM     21  C   UNL     1       5.624   2.015  10.894  0.00  0.00    +0.000 A 
ATOM     22  C   UNL     1       6.920   2.173  11.386  0.00  0.00    +0.000 A 
ATOM     23  C   UNL     1       7.178   3.084  12.415  0.00  0.00    +0.000 A 
ENDBRANCH  17  18
ENDBRANCH   5  17
TORSDOF 6
ENDMDL
MODEL 5
REMARK VINA RESULT:      -7.3      1.259      2.017
REMARK  Name = 
REMARK  9 active torsions:
REMARK  status: ('A' for Active; 'I' for Inactive)
REMARK    1  A    between atoms: C_1  and  C_2
REMARK    2  A    between atoms: C_2  and  C_3
REMARK    3  A    between atoms: C_6  and  C_7
REMARK    4  A    between atoms: C_7  and  C_8
REMARK    5  A    between atoms: C_8  and  O_10
REMARK    6  A    between atoms: O_10  and  C_11
REMARK    7  A    between atoms: C_12  and  C_13
REMARK    8  A    between atoms: C_13  and  C_14
REMARK    9  A    between atoms: N_22  and  C_23
REMARK                            x       y       z     vdW  Elec       q    Type
REMARK                         _______ _______ _______ _____ _____    ______ ____
ROOT
ATOM      1  C   UNL     1       1.845   4.016  17.822  0.00  0.00    +0.000 C 
ATOM      2  C   UNL     1       1.920   5.605  17.524  0.00  0.00    +0.000 C 
ATOM      3  C   UNL     1       3.380   6.114  17.980  0.00  0.00    +0.000 C 
ATOM      4  C   UNL     1       4.796   6.077  17.215  0.00  0.00    +0.000 C 
ATOM      5  C   UNL     1       5.020   4.777  16.355  0.00  0.00    +0.000 C 
ATOM      6  C   UNL     1       4.635   3.505  17.236  0.00  0.00    +0.000 C 
ATOM      7  C   UNL     1       3.336   3.828  18.027  0.00  0.00    +0.000 C 
ATOM      8  N   UNL     1       3.662   5.028  18.891  0.00  0.00    +0.000 NA
ATOM      9  C   UNL     1       3.016   5.332  20.174  0.00  0.00    +0.000 C 
ENDROOT
BRANCH   1  11
ATOM     10  C   UNL     1       1.803   1.917  19.252  0.00  0.00    +0.000 C 
ATOM     11  C   UNL     1       1.166   3.299  19.014  0.00  0.00    +0.000 C 
ENDBRANCH   1  11
BRANCH   4  12
ATOM     12  C   UNL     1       5.998   6.125  18.254  0.00  0.00    +0.000 C 
BRANCH  12  13
ATOM     13  C   UNL     1       7.172   6.991  17.914  0.00  0.00    +0.000 C 
ATOM     14  O   UNL     1       7.213   7.789  17.000  0.00  0.00    +0.000 OA
BRANCH  13  15
ATOM     15  O   UNL     1       8.220   6.689  18.734  0.00  0.00    +0.000 OA
ATOM     16  C   UNL     1       7.971   5.640  19.667  0.00  0.00    +0.000 C 
ENDBRANCH  13  15
ENDBRANCH  12  13
ENDBRANCH   4  12
BRANCH   5  17
ATOM     17  C   UNL     1       6.416   4.551  15.732  0.00  0.00    +0.000 C 
BRANCH  17  18
ATOM     18  C   UNL     1       6.467   4.304  14.244  0.00  0.00    +0.000 A 
ATOM     19  C   UNL     1       5.460   3.545  13.625  0.00  0.00    +0.000 A 
ATOM     20  C   UNL     1       5.464   3.337  12.244  0.00  0.00    +0.000 A 
ATOM     21  C   UNL     1       6.468   3.894  11.462  0.00  0.00    +0.000 A 
ATOM     22  C   UNL     1       7.469   4.660  12.059  0.00  0.00    +0.000 A 
ATOM     23  C   UNL     1       7.470   4.865  13.442  0.00  0.00    +0.000 A 
ENDBRANCH  17  18
ENDBRANCH   5  17
TORSDOF 6
ENDMDL
MODEL 6
REMARK VINA RESULT:      -7.2      0.724      1.194
REMARK  Name = 
REMARK  9 active torsions:
REMARK  status: ('A' for Active; 'I' for Inactive)
REMARK    1  A    between atoms: C_1  and  C_2
REMARK    2  A    between atoms: C_2  and  C_3
REMARK    3  A    between atoms: C_6  and  C_7
REMARK    4  A    between atoms: C_7  and  C_8
REMARK    5  A    between atoms: C_8  and  O_10
REMARK    6  A    between atoms: O_10  and  C_11
REMARK    7  A    between atoms: C_12  and  C_13
REMARK    8  A    between atoms: C_13  and  C_14
REMARK    9  A    between atoms: N_22  and  C_23
REMARK                            x       y       z     vdW  Elec       q    Type
REMARK                         _______ _______ _______ _____ _____    ______ ____
ROOT
ATOM      1  C   UNL     1       2.553   3.729  17.694  0.00  0.00    +0.000 C 
ATOM      2  C   UNL     1       2.596   5.343  17.804  0.00  0.00    +0.000 C 
ATOM      3  C   UNL     1       4.145   5.781  17.883  0.00  0.00    +0.000 C 
ATOM      4  C   UNL     1       5.239   6.003  16.722  0.00  0.00    +0.000 C 
ATOM      5  C   UNL     1       5.121   4.976  15.534  0.00  0.00    +0.000 C 
ATOM      6  C   UNL     1       4.984   3.506  16.136  0.00  0.00    +0.000 C 
ATOM      7  C   UNL     1       4.022   3.560  17.355  0.00  0.00    +0.000 C 
ATOM      8  N   UNL     1       4.658   4.512  18.346  0.00  0.00    +0.000 NA
ATOM      9  C   UNL     1       4.470   4.450  19.801  0.00  0.00    +0.000 C 
ENDROOT
BRANCH   1  11
ATOM     10  C   UNL     1       0.830   2.876  19.353  0.00  0.00    +0.000 C 
ATOM     11  C   UNL     1       2.262   2.702  18.815  0.00  0.00    +0.000 C 
ENDBRANCH   1  11
BRANCH   4  12
ATOM     12  C   UNL     1       6.711   5.835  17.298  0.00  0.00    +0.000 C 
BRANCH  12  13
ATOM     13  C   UNL     1       7.467   7.083  17.639  0.00  0.00    +0.000 C 
ATOM     14  O   UNL     1       7.490   8.094  16.967  0.00  0.00    +0.000 OA
BRANCH  13  15
ATOM     15  O   UNL     1       8.195   6.885  18.776  0.00  0.00    +0.000 OA
ATOM     16  C   UNL     1       7.909   5.673  19.469  0.00  0.00    +0.000 C 
ENDBRANCH  13  15
ENDBRANCH  12  13
ENDBRANCH   4  12
BRANCH   5  17
ATOM     17  C   UNL     1       6.234   4.977  14.461  0.00  0.00    +0.000 C 
BRANCH  17  18
ATOM     18  C   UNL     1       6.027   4.082  13.263  0.00  0.00    +0.000 A 
ATOM     19  C   UNL     1       7.124   3.422  12.685  0.00  0.00    +0.000 A 
ATOM     20  C   UNL     1       6.951   2.557  11.601  0.00  0.00    +0.000 A 
ATOM     21  C   UNL     1       5.680   2.333  11.089  0.00  0.00    +0.000 A 
ATOM     22  C   UNL     1       4.578   2.970  11.660  0.00  0.00    +0.000 A 
ATOM     23  C   UNL     1       4.749   3.841  12.740  0.00  0.00    +0.000 A 
ENDBRANCH  17  18
ENDBRANCH   5  17
TORSDOF 6
ENDMDL
MODEL 7
REMARK VINA RESULT:      -7.2      2.934      6.523
REMARK  Name = 
REMARK  9 active torsions:
REMARK  status: ('A' for Active; 'I' for Inactive)
REMARK    1  A    between atoms: C_1  and  C_2
REMARK    2  A    between atoms: C_2  and  C_3
REMARK    3  A    between atoms: C_6  and  C_7
REMARK    4  A    between atoms: C_7  and  C_8
REMARK    5  A    between atoms: C_8  and  O_10
REMARK    6  A    between atoms: O_10  and  C_11
REMARK    7  A    between atoms: C_12  and  C_13
REMARK    8  A    between atoms: C_13  and  C_14
REMARK    9  A    between atoms: N_22  and  C_23
REMARK                            x       y       z     vdW  Elec       q    Type
REMARK                         _______ _______ _______ _____ _____    ______ ____
ROOT
ATOM      1  C   UNL     1       2.501   3.348  19.824  0.00  0.00    +0.000 C 
ATOM      2  C   UNL     1       4.053   3.729  20.083  0.00  0.00    +0.000 C 
ATOM      3  C   UNL     1       4.600   4.457  18.754  0.00  0.00    +0.000 C 
ATOM      4  C   UNL     1       4.484   5.987  18.266  0.00  0.00    +0.000 C 
ATOM      5  C   UNL     1       3.104   6.662  18.614  0.00  0.00    +0.000 C 
ATOM      6  C   UNL     1       1.927   5.672  18.195  0.00  0.00    +0.000 C 
ATOM      7  C   UNL     1       2.330   4.227  18.600  0.00  0.00    +0.000 C 
ATOM      8  N   UNL     1       3.609   3.925  17.847  0.00  0.00    +0.000 NA
ATOM      9  C   UNL     1       4.040   2.581  17.441  0.00  0.00    +0.000 C 
ENDROOT
BRANCH   1  11
ATOM     10  C   UNL     1       0.555   2.145  18.721  0.00  0.00    +0.000 C 
ATOM     11  C   UNL     1       1.907   1.972  19.437  0.00  0.00    +0.000 C 
ENDBRANCH   1  11
BRANCH   4  12
ATOM     12  C   UNL     1       4.631   6.087  16.686  0.00  0.00    +0.000 C 
BRANCH  12  13
ATOM     13  C   UNL     1       6.016   6.179  16.125  0.00  0.00    +0.000 C 
ATOM     14  O   UNL     1       6.975   6.654  16.699  0.00  0.00    +0.000 OA
BRANCH  13  15
ATOM     15  O   UNL     1       6.024   5.725  14.838  0.00  0.00    +0.000 OA
ATOM     16  C   UNL     1       5.829   4.321  14.695  0.00  0.00    +0.000 C 
ENDBRANCH  13  15
ENDBRANCH  12  13
ENDBRANCH   4  12
BRANCH   5  17
ATOM     17  C   UNL     1       2.814   8.063  18.030  0.00  0.00    +0.000 C 
BRANCH  17  18
ATOM     18  C   UNL     1       1.675   8.838  18.649  0.00  0.00    +0.000 A 
ATOM     19  C   UNL     1       0.804   9.577  17.831  0.00  0.00    +0.000 A 
ATOM     20  C   UNL     1      -0.279  10.269  18.377  0.00  0.00    +0.000 A 
ATOM     21  C   UNL     1      -0.513  10.222  19.745  0.00  0.00    +0.000 A 
ATOM     22  C   UNL     1       0.335   9.483  20.570  0.00  0.00    +0.000 A 
ATOM     23  C   UNL     1       1.424   8.795  20.027  0.00  0.00    +0.000 A 
ENDBRANCH  17  18
ENDBRANCH   5  17
TORSDOF 6
ENDMDL
MODEL 8
REMARK VINA RESULT:      -7.2      2.964      6.524
REMARK  Name = 
REMARK  9 active torsions:
REMARK  status: ('A' for Active; 'I' for Inactive)
REMARK    1  A    between atoms: C_1  and  C_2
REMARK    2  A    between atoms: C_2  and  C_3
REMARK    3  A    between atoms: C_6  and  C_7
REMARK    4  A    between atoms: C_7  and  C_8
REMARK    5  A    between atoms: C_8  and  O_10
REMARK    6  A    between atoms: O_10  and  C_11
REMARK    7  A    between atoms: C_12  and  C_13
REMARK    8  A    between atoms: C_13  and  C_14
REMARK    9  A    between atoms: N_22  and  C_23
REMARK                            x       y       z     vdW  Elec       q    Type
REMARK                         _______ _______ _______ _____ _____    ______ ____
ROOT
ATOM      1  C   UNL     1       2.523   3.379  19.778  0.00  0.00    +0.000 C 
ATOM      2  C   UNL     1       4.067   3.784  20.049  0.00  0.00    +0.000 C 
ATOM      3  C   UNL     1       4.607   4.538  18.731  0.00  0.00    +0.000 C 
ATOM      4  C   UNL     1       4.467   6.071  18.260  0.00  0.00    +0.000 C 
ATOM      5  C   UNL     1       3.074   6.718  18.609  0.00  0.00    +0.000 C 
ATOM      6  C   UNL     1       1.916   5.712  18.172  0.00  0.00    +0.000 C 
ATOM      7  C   UNL     1       2.343   4.269  18.562  0.00  0.00    +0.000 C 
ATOM      8  N   UNL     1       3.630   3.998  17.813  0.00  0.00    +0.000 NA
ATOM      9  C   UNL     1       4.087   2.667  17.394  0.00  0.00    +0.000 C 
ENDROOT
BRANCH   1  11
ATOM     10  C   UNL     1       0.572   2.151  18.712  0.00  0.00    +0.000 C 
ATOM     11  C   UNL     1       1.955   1.998  19.372  0.00  0.00    +0.000 C 
ENDBRANCH   1  11
BRANCH   4  12
ATOM     12  C   UNL     1       4.620   6.191  16.682  0.00  0.00    +0.000 C 
BRANCH  12  13
ATOM     13  C   UNL     1       6.009   6.236  16.123  0.00  0.00    +0.000 C 
ATOM     14  O   UNL     1       6.955   6.796  16.639  0.00  0.00    +0.000 OA
BRANCH  13  15
ATOM     15  O   UNL     1       6.036   5.623  14.904  0.00  0.00    +0.000 OA
ATOM     16  C   UNL     1       6.457   4.262  14.925  0.00  0.00    +0.000 C 
ENDBRANCH  13  15
ENDBRANCH  12  13
ENDBRANCH   4  12
BRANCH   5  17
ATOM     17  C   UNL     1       2.762   8.120  18.039  0.00  0.00    +0.000 C 
BRANCH  17  18
ATOM     18  C   UNL     1       1.597   8.861  18.649  0.00  0.00    +0.000 A 
ATOM     19  C   UNL     1       1.384   8.811  20.036  0.00  0.00    +0.000 A 
ATOM     20  C   UNL     1       0.336   9.521  20.628  0.00  0.00    +0.000 A 
ATOM     21  C   UNL     1      -0.505  10.298  19.842  0.00  0.00    +0.000 A 
ATOM     22  C   UNL     1      -0.300  10.368  18.464  0.00  0.00    +0.000 A 
ATOM     23  C   UNL     1       0.744   9.654  17.869  0.00  0.00    +0.000 A 
ENDBRANCH  17  18
ENDBRANCH   5  17
TORSDOF 6
ENDMDL
MODEL 9
REMARK VINA RESULT:      -7.2      1.169      1.662
REMARK  Name = 
REMARK  9 active torsions:
REMARK  status: ('A' for Active; 'I' for Inactive)
REMARK    1  A    between atoms: C_1  and  C_2
REMARK    2  A    between atoms: C_2  and  C_3
REMARK    3  A    between atoms: C_6  and  C_7
REMARK    4  A    between atoms: C_7  and  C_8
REMARK    5  A    between atoms: C_8  and  O_10
REMARK    6  A    between atoms: O_10  and  C_11
REMARK    7  A    between atoms: C_12  and  C_13
REMARK    8  A    between atoms: C_13  and  C_14
REMARK    9  A    between atoms: N_22  and  C_23
REMARK                            x       y       z     vdW  Elec       q    Type
REMARK                         _______ _______ _______ _____ _____    ______ ____
ROOT
ATOM      1  C   UNL     1       1.938   4.316  17.723  0.00  0.00    +0.000 C 
ATOM      2  C   UNL     1       2.238   5.907  17.704  0.00  0.00    +0.000 C 
ATOM      3  C   UNL     1       3.749   6.120  18.222  0.00  0.00    +0.000 C 
ATOM      4  C   UNL     1       5.155   6.020  17.444  0.00  0.00    +0.000 C 
ATOM      5  C   UNL     1       5.206   4.869  16.370  0.00  0.00    +0.000 C 
ATOM      6  C   UNL     1       4.636   3.530  17.022  0.00  0.00    +0.000 C 
ATOM      7  C   UNL     1       3.386   3.890  17.873  0.00  0.00    +0.000 C 
ATOM      8  N   UNL     1       3.866   4.864  18.928  0.00  0.00    +0.000 NA
ATOM      9  C   UNL     1       3.254   5.029  20.252  0.00  0.00    +0.000 C 
ENDROOT
BRANCH   1  11
ATOM     10  C   UNL     1       1.539   2.016  18.722  0.00  0.00    +0.000 C 
ATOM     11  C   UNL     1       1.152   3.505  18.781  0.00  0.00    +0.000 C 
ENDBRANCH   1  11
BRANCH   4  12
ATOM     12  C   UNL     1       6.340   5.719  18.461  0.00  0.00    +0.000 C 
BRANCH  12  13
ATOM     13  C   UNL     1       7.528   6.630  18.428  0.00  0.00    +0.000 C 
ATOM     14  O   UNL     1       8.507   6.531  19.140  0.00  0.00    +0.000 OA
BRANCH  13  15
ATOM     15  O   UNL     1       7.311   7.639  17.536  0.00  0.00    +0.000 OA
ATOM     16  C   UNL     1       7.996   8.855  17.826  0.00  0.00    +0.000 C 
ENDBRANCH  13  15
ENDBRANCH  12  13
ENDBRANCH   4  12
BRANCH   5  17
ATOM     17  C   UNL     1       6.564   4.562  15.699  0.00  0.00    +0.000 C 
BRANCH  17  18
ATOM     18  C   UNL     1       6.547   4.297  14.213  0.00  0.00    +0.000 A 
ATOM     19  C   UNL     1       5.507   3.540  13.649  0.00  0.00    +0.000 A 
ATOM     20  C   UNL     1       5.449   3.316  12.271  0.00  0.00    +0.000 A 
ATOM     21  C   UNL     1       6.422   3.855  11.439  0.00  0.00    +0.000 A 
ATOM     22  C   UNL     1       7.454   4.620  11.982  0.00  0.00    +0.000 A 
ATOM     23  C   UNL     1       7.518   4.841  13.361  0.00  0.00    +0.000 A 
ENDBRANCH  17  18
ENDBRANCH   5  17
TORSDOF 6
ENDMDL
