MODEL 1
REMARK VINA RESULT:      -8.5      0.000      0.000
REMARK  Name = 
REMARK  4 active torsions:
REMARK  status: ('A' for Active; 'I' for Inactive)
REMARK    1  A    between atoms: C_1  and  C_2
REMARK    2  A    between atoms: C_4  and  C_5
REMARK    3  A    between atoms: C_12  and  C_13
REMARK    4  A    between atoms: C_18  and  C_19
REMARK                            x       y       z     vdW  Elec       q    Type
REMARK                         _______ _______ _______ _____ _____    ______ ____
ROOT
ATOM      1  C   UNL     1       1.425   8.656  19.379  0.00  0.00    +0.000 A 
ATOM      2  C   UNL     1       0.904   9.547  18.277  0.00  0.00    +0.000 A 
ATOM      3  C   UNL     1       0.096  10.546  18.653  0.00  0.00    +0.000 A 
ATOM      4  N   UNL     1      -0.218  10.726  19.991  0.00  0.00    +0.000 N 
ATOM      5  N   UNL     1      -0.992  11.689  20.530  0.00  0.00    +0.000 NA
ATOM      6  C   UNL     1      -0.948  11.487  21.856  0.00  0.00    +0.000 A 
ATOM      7  C   UNL     1      -0.166  10.340  22.159  0.00  0.00    +0.000 A 
ATOM      8  C   UNL     1       0.294   9.863  20.954  0.00  0.00    +0.000 A 
ATOM      9  N   UNL     1       1.106   8.807  20.637  0.00  0.00    +0.000 NA
ENDROOT
BRANCH   1  15
ATOM     10  C   UNL     1       1.674   5.736  20.720  0.00  0.00    +0.000 C 
ATOM     11  C   UNL     1       2.457   6.311  19.592  0.00  0.00    +0.000 A 
ATOM     12  N   UNL     1       3.425   5.506  19.006  0.00  0.00    +0.000 NA
ATOM     13  C   UNL     1       4.071   6.161  18.063  0.00  0.00    +0.000 A 
ATOM     14  S   UNL     1       3.484   7.747  17.773  0.00  0.00    +0.000 S 
ATOM     15  C   UNL     1       2.321   7.568  19.024  0.00  0.00    +0.000 A 
BRANCH  13  16
ATOM     16  C   UNL     1       5.183   5.602  17.280  0.00  0.00    +0.000 A 
ATOM     17  C   UNL     1       5.032   5.446  15.893  0.00  0.00    +0.000 A 
ATOM     18  C   UNL     1       6.047   4.876  15.119  0.00  0.00    +0.000 A 
ATOM     19  C   UNL     1       7.226   4.447  15.725  0.00  0.00    +0.000 A 
ATOM     20  C   UNL     1       7.395   4.596  17.099  0.00  0.00    +0.000 A 
ATOM     21  C   UNL     1       6.382   5.170  17.871  0.00  0.00    +0.000 A 
ENDBRANCH  13  16
ENDBRANCH   1  15
BRANCH   6  22
ATOM     22  C   UNL     1      -1.630  12.397  22.786  0.00  0.00    +0.000 A 
ATOM     23  C   UNL     1      -2.905  12.081  23.284  0.00  0.00    +0.000 A 
ATOM     24  C   UNL     1      -3.580  12.954  24.141  0.00  0.00    +0.000 A 
ATOM     25  C   UNL     1      -2.987  14.156  24.515  0.00  0.00    +0.000 A 
ATOM     26  C   UNL     1      -1.720  14.483  24.039  0.00  0.00    +0.000 A 
ATOM     27  C   UNL     1      -1.044  13.610  23.181  0.00  0.00    +0.000 A 
ENDBRANCH   6  22
TORSDOF 3
ENDMDL
MODEL 2
REMARK VINA RESULT:      -8.4      2.599     10.059
REMARK  Name = 
REMARK  4 active torsions:
REMARK  status: ('A' for Active; 'I' for Inactive)
REMARK    1  A    between atoms: C_1  and  C_2
REMARK    2  A    between atoms: C_4  and  C_5
REMARK    3  A    between atoms: C_12  and  C_13
REMARK    4  A    between atoms: C_18  and  C_19
REMARK                            x       y       z     vdW  Elec       q    Type
REMARK                         _______ _______ _______ _____ _____    ______ ____
ROOT
ATOM      1  C   UNL     1       1.156   9.929  19.959  0.00  0.00    +0.000 A 
ATOM      2  C   UNL     1       1.431  10.107  18.485  0.00  0.00    +0.000 A 
ATOM      3  C   UNL     1       1.898   9.034  17.834  0.00  0.00    +0.000 A 
ATOM      4  N   UNL     1       2.097   7.839  18.508  0.00  0.00    +0.000 N 
ATOM      5  N   UNL     1       2.535   6.671  17.996  0.00  0.00    +0.000 NA
ATOM      6  C   UNL     1       2.505   5.797  19.015  0.00  0.00    +0.000 A 
ATOM      7  C   UNL     1       2.084   6.440  20.209  0.00  0.00    +0.000 A 
ATOM      8  C   UNL     1       1.827   7.748  19.869  0.00  0.00    +0.000 A 
ATOM      9  N   UNL     1       1.372   8.811  20.601  0.00  0.00    +0.000 NA
ENDROOT
BRANCH   1  15
ATOM     10  C   UNL     1       2.283  12.946  20.098  0.00  0.00    +0.000 C 
ATOM     11  C   UNL     1       1.104  12.360  20.793  0.00  0.00    +0.000 A 
ATOM     12  N   UNL     1       0.358  13.199  21.611  0.00  0.00    +0.000 NA
ATOM     13  C   UNL     1      -0.616  12.536  22.199  0.00  0.00    +0.000 A 
ATOM     14  S   UNL     1      -0.739  10.891  21.728  0.00  0.00    +0.000 S 
ATOM     15  C   UNL     1       0.632  11.059  20.706  0.00  0.00    +0.000 A 
BRANCH  13  16
ATOM     16  C   UNL     1      -1.560  13.129  23.158  0.00  0.00    +0.000 A 
ATOM     17  C   UNL     1      -2.794  12.498  23.382  0.00  0.00    +0.000 A 
ATOM     18  C   UNL     1      -3.738  13.053  24.251  0.00  0.00    +0.000 A 
ATOM     19  C   UNL     1      -3.463  14.253  24.903  0.00  0.00    +0.000 A 
ATOM     20  C   UNL     1      -2.243  14.892  24.695  0.00  0.00    +0.000 A 
ATOM     21  C   UNL     1      -1.298  14.334  23.830  0.00  0.00    +0.000 A 
ENDBRANCH  13  16
ENDBRANCH   1  15
BRANCH   6  22
ATOM     22  C   UNL     1       2.857   4.385  18.813  0.00  0.00    +0.000 A 
ATOM     23  C   UNL     1       2.213   3.626  17.822  0.00  0.00    +0.000 A 
ATOM     24  C   UNL     1       2.513   2.273  17.643  0.00  0.00    +0.000 A 
ATOM     25  C   UNL     1       3.465   1.660  18.452  0.00  0.00    +0.000 A 
ATOM     26  C   UNL     1       4.120   2.398  19.435  0.00  0.00    +0.000 A 
ATOM     27  C   UNL     1       3.820   3.752  19.615  0.00  0.00    +0.000 A 
ENDBRANCH   6  22
TORSDOF 3
ENDMDL
MODEL 3
REMARK VINA RESULT:      -8.4      0.104      1.314
REMARK  Name = 
REMARK  4 active torsions:
REMARK  status: ('A' for Active; 'I' for Inactive)
REMARK    1  A    between atoms: C_1  and  C_2
REMARK    2  A    between atoms: C_4  and  C_5
REMARK    3  A    between atoms: C_12  and  C_13
REMARK    4  A    between atoms: C_18  and  C_19
REMARK                            x       y       z     vdW  Elec       q    Type
REMARK                         _______ _______ _______ _____ _____    ______ ____
ROOT
ATOM      1  C   UNL     1       1.395   8.714  19.375  0.00  0.00    +0.000 A 
ATOM      2  C   UNL     1       0.886   9.610  18.271  0.00  0.00    +0.000 A 
ATOM      3  C   UNL     1       0.081  10.612  18.644  0.00  0.00    +0.000 A 
ATOM      4  N   UNL     1      -0.240  10.792  19.981  0.00  0.00    +0.000 N 
ATOM      5  N   UNL     1      -1.012  11.759  20.517  0.00  0.00    +0.000 NA
ATOM      6  C   UNL     1      -0.977  11.553  21.843  0.00  0.00    +0.000 A 
ATOM      7  C   UNL     1      -0.204  10.402  22.148  0.00  0.00    +0.000 A 
ATOM      8  C   UNL     1       0.261   9.924  20.945  0.00  0.00    +0.000 A 
ATOM      9  N   UNL     1       1.069   8.864  20.632  0.00  0.00    +0.000 NA
ENDROOT
BRANCH   1  15
ATOM     10  C   UNL     1       1.688   5.826  20.776  0.00  0.00    +0.000 C 
ATOM     11  C   UNL     1       2.441   6.378  19.617  0.00  0.00    +0.000 A 
ATOM     12  N   UNL     1       3.399   5.563  19.026  0.00  0.00    +0.000 NA
ATOM     13  C   UNL     1       4.019   6.199  18.053  0.00  0.00    +0.000 A 
ATOM     14  S   UNL     1       3.419   7.776  17.741  0.00  0.00    +0.000 S 
ATOM     15  C   UNL     1       2.287   7.621  19.023  0.00  0.00    +0.000 A 
BRANCH  13  16
ATOM     16  C   UNL     1       5.114   5.626  17.257  0.00  0.00    +0.000 A 
ATOM     17  C   UNL     1       6.250   5.129  17.915  0.00  0.00    +0.000 A 
ATOM     18  C   UNL     1       7.333   4.618  17.193  0.00  0.00    +0.000 A 
ATOM     19  C   UNL     1       7.297   4.605  15.801  0.00  0.00    +0.000 A 
ATOM     20  C   UNL     1       6.178   5.092  15.131  0.00  0.00    +0.000 A 
ATOM     21  C   UNL     1       5.094   5.598  15.853  0.00  0.00    +0.000 A 
ENDBRANCH  13  16
ENDBRANCH   1  15
BRANCH   6  22
ATOM     22  C   UNL     1      -1.660  12.466  22.770  0.00  0.00    +0.000 A 
ATOM     23  C   UNL     1      -1.044  13.663  23.173  0.00  0.00    +0.000 A 
ATOM     24  C   UNL     1      -1.667  14.523  24.081  0.00  0.00    +0.000 A 
ATOM     25  C   UNL     1      -2.918  14.199  24.598  0.00  0.00    +0.000 A 
ATOM     26  C   UNL     1      -3.548  13.021  24.204  0.00  0.00    +0.000 A 
ATOM     27  C   UNL     1      -2.925  12.160  23.296  0.00  0.00    +0.000 A 
ENDBRANCH   6  22
TORSDOF 3
ENDMDL
MODEL 4
REMARK VINA RESULT:      -8.3      1.511     10.295
REMARK  Name = 
REMARK  4 active torsions:
REMARK  status: ('A' for Active; 'I' for Inactive)
REMARK    1  A    between atoms: C_1  and  C_2
REMARK    2  A    between atoms: C_4  and  C_5
REMARK    3  A    between atoms: C_12  and  C_13
REMARK    4  A    between atoms: C_18  and  C_19
REMARK                            x       y       z     vdW  Elec       q    Type
REMARK                         _______ _______ _______ _____ _____    ______ ____
ROOT
ATOM      1  C   UNL     1       0.864   8.866  20.264  0.00  0.00    +0.000 A 
ATOM      2  C   UNL     1       0.974   7.676  21.188  0.00  0.00    +0.000 A 
ATOM      3  C   UNL     1       1.807   6.702  20.804  0.00  0.00    +0.000 A 
ATOM      4  N   UNL     1       2.520   6.817  19.620  0.00  0.00    +0.000 N 
ATOM      5  N   UNL     1       3.410   5.941  19.110  0.00  0.00    +0.000 NA
ATOM      6  C   UNL     1       3.877   6.515  17.990  0.00  0.00    +0.000 A 
ATOM      7  C   UNL     1       3.233   7.760  17.763  0.00  0.00    +0.000 A 
ATOM      8  C   UNL     1       2.366   7.939  18.814  0.00  0.00    +0.000 A 
ATOM      9  N   UNL     1       1.513   8.962  19.134  0.00  0.00    +0.000 NA
ENDROOT
BRANCH   1  15
ATOM     10  C   UNL     1      -0.892  10.791  18.366  0.00  0.00    +0.000 C 
ATOM     11  C   UNL     1      -0.768  10.808  19.850  0.00  0.00    +0.000 A 
ATOM     12  N   UNL     1      -1.504  11.761  20.544  0.00  0.00    +0.000 NA
ATOM     13  C   UNL     1      -1.256  11.693  21.836  0.00  0.00    +0.000 A 
ATOM     14  S   UNL     1      -0.196  10.422  22.289  0.00  0.00    +0.000 S 
ATOM     15  C   UNL     1      -0.015   9.959  20.645  0.00  0.00    +0.000 A 
BRANCH  13  16
ATOM     16  C   UNL     1      -1.845  12.592  22.840  0.00  0.00    +0.000 A 
ATOM     17  C   UNL     1      -3.101  12.279  23.384  0.00  0.00    +0.000 A 
ATOM     18  C   UNL     1      -3.716  13.130  24.306  0.00  0.00    +0.000 A 
ATOM     19  C   UNL     1      -3.086  14.311  24.692  0.00  0.00    +0.000 A 
ATOM     20  C   UNL     1      -1.839  14.637  24.165  0.00  0.00    +0.000 A 
ATOM     21  C   UNL     1      -1.222  13.783  23.247  0.00  0.00    +0.000 A 
ENDBRANCH  13  16
ENDBRANCH   1  15
BRANCH   6  22
ATOM     22  C   UNL     1       4.929   5.872  17.190  0.00  0.00    +0.000 A 
ATOM     23  C   UNL     1       5.951   5.140  17.816  0.00  0.00    +0.000 A 
ATOM     24  C   UNL     1       6.976   4.551  17.071  0.00  0.00    +0.000 A 
ATOM     25  C   UNL     1       6.992   4.686  15.686  0.00  0.00    +0.000 A 
ATOM     26  C   UNL     1       5.982   5.401  15.046  0.00  0.00    +0.000 A 
ATOM     27  C   UNL     1       4.956   5.989  15.792  0.00  0.00    +0.000 A 
ENDBRANCH   6  22
TORSDOF 3
ENDMDL
MODEL 5
REMARK VINA RESULT:      -8.2      2.098     10.286
REMARK  Name = 
REMARK  4 active torsions:
REMARK  status: ('A' for Active; 'I' for Inactive)
REMARK    1  A    between atoms: C_1  and  C_2
REMARK    2  A    between atoms: C_4  and  C_5
REMARK    3  A    between atoms: C_12  and  C_13
REMARK    4  A    between atoms: C_18  and  C_19
REMARK                            x       y       z     vdW  Elec       q    Type
REMARK                         _______ _______ _______ _____ _____    ______ ____
ROOT
ATOM      1  C   UNL     1       0.407  10.222  20.253  0.00  0.00    +0.000 A 
ATOM      2  C   UNL     1       0.670  11.017  18.996  0.00  0.00    +0.000 A 
ATOM      3  C   UNL     1       1.455  10.437  18.080  0.00  0.00    +0.000 A 
ATOM      4  N   UNL     1       1.975   9.172  18.305  0.00  0.00    +0.000 N 
ATOM      5  N   UNL     1       2.756   8.447  17.478  0.00  0.00    +0.000 NA
ATOM      6  C   UNL     1       2.950   7.274  18.103  0.00  0.00    +0.000 A 
ATOM      7  C   UNL     1       2.315   7.276  19.373  0.00  0.00    +0.000 A 
ATOM      8  C   UNL     1       1.696   8.498  19.489  0.00  0.00    +0.000 A 
ATOM      9  N   UNL     1       0.920   9.041  20.478  0.00  0.00    +0.000 NA
ENDROOT
BRANCH   1  15
ATOM     10  C   UNL     1       0.113   9.388  23.353  0.00  0.00    +0.000 C 
ATOM     11  C   UNL     1      -0.609  10.453  22.603  0.00  0.00    +0.000 A 
ATOM     12  N   UNL     1      -1.532  11.218  23.304  0.00  0.00    +0.000 NA
ATOM     13  C   UNL     1      -2.129  12.079  22.506  0.00  0.00    +0.000 A 
ATOM     14  S   UNL     1      -1.544  12.074  20.893  0.00  0.00    +0.000 S 
ATOM     15  C   UNL     1      -0.455  10.801  21.270  0.00  0.00    +0.000 A 
BRANCH  13  16
ATOM     16  C   UNL     1      -3.187  13.007  22.933  0.00  0.00    +0.000 A 
ATOM     17  C   UNL     1      -4.469  12.886  22.372  0.00  0.00    +0.000 A 
ATOM     18  C   UNL     1      -5.490  13.776  22.716  0.00  0.00    +0.000 A 
ATOM     19  C   UNL     1      -5.241  14.805  23.621  0.00  0.00    +0.000 A 
ATOM     20  C   UNL     1      -3.977  14.939  24.190  0.00  0.00    +0.000 A 
ATOM     21  C   UNL     1      -2.958  14.046  23.849  0.00  0.00    +0.000 A 
ENDBRANCH  13  16
ENDBRANCH   1  15
BRANCH   6  22
ATOM     22  C   UNL     1       3.710   6.191  17.464  0.00  0.00    +0.000 A 
ATOM     23  C   UNL     1       4.808   6.485  16.637  0.00  0.00    +0.000 A 
ATOM     24  C   UNL     1       5.519   5.467  15.996  0.00  0.00    +0.000 A 
ATOM     25  C   UNL     1       5.143   4.139  16.174  0.00  0.00    +0.000 A 
ATOM     26  C   UNL     1       4.063   3.827  16.997  0.00  0.00    +0.000 A 
ATOM     27  C   UNL     1       3.351   4.846  17.639  0.00  0.00    +0.000 A 
ENDBRANCH   6  22
TORSDOF 3
ENDMDL
MODEL 6
REMARK VINA RESULT:      -8.2      2.619     10.078
REMARK  Name = 
REMARK  4 active torsions:
REMARK  status: ('A' for Active; 'I' for Inactive)
REMARK    1  A    between atoms: C_1  and  C_2
REMARK    2  A    between atoms: C_4  and  C_5
REMARK    3  A    between atoms: C_12  and  C_13
REMARK    4  A    between atoms: C_18  and  C_19
REMARK                            x       y       z     vdW  Elec       q    Type
REMARK                         _______ _______ _______ _____ _____    ______ ____
ROOT
ATOM      1  C   UNL     1       1.240   9.860  19.847  0.00  0.00    +0.000 A 
ATOM      2  C   UNL     1       1.677  10.029  18.412  0.00  0.00    +0.000 A 
ATOM      3  C   UNL     1       2.174   8.941  17.811  0.00  0.00    +0.000 A 
ATOM      4  N   UNL     1       2.259   7.739  18.497  0.00  0.00    +0.000 N 
ATOM      5  N   UNL     1       2.709   6.557  18.030  0.00  0.00    +0.000 NA
ATOM      6  C   UNL     1       2.540   5.685  19.036  0.00  0.00    +0.000 A 
ATOM      7  C   UNL     1       2.015   6.341  20.181  0.00  0.00    +0.000 A 
ATOM      8  C   UNL     1       1.841   7.657  19.821  0.00  0.00    +0.000 A 
ATOM      9  N   UNL     1       1.347   8.735  20.504  0.00  0.00    +0.000 NA
ENDROOT
BRANCH   1  15
ATOM     10  C   UNL     1       2.164  12.945  19.708  0.00  0.00    +0.000 C 
ATOM     11  C   UNL     1       1.064  12.338  20.506  0.00  0.00    +0.000 A 
ATOM     12  N   UNL     1       0.303  13.188  21.301  0.00  0.00    +0.000 NA
ATOM     13  C   UNL     1      -0.594  12.509  21.987  0.00  0.00    +0.000 A 
ATOM     14  S   UNL     1      -0.627  10.829  21.642  0.00  0.00    +0.000 S 
ATOM     15  C   UNL     1       0.677  11.008  20.539  0.00  0.00    +0.000 A 
BRANCH  13  16
ATOM     16  C   UNL     1      -1.527  13.111  22.950  0.00  0.00    +0.000 A 
ATOM     17  C   UNL     1      -1.134  14.259  23.657  0.00  0.00    +0.000 A 
ATOM     18  C   UNL     1      -1.974  14.836  24.614  0.00  0.00    +0.000 A 
ATOM     19  C   UNL     1      -3.216  14.266  24.884  0.00  0.00    +0.000 A 
ATOM     20  C   UNL     1      -3.624  13.129  24.191  0.00  0.00    +0.000 A 
ATOM     21  C   UNL     1      -2.786  12.556  23.231  0.00  0.00    +0.000 A 
ENDBRANCH  13  16
ENDBRANCH   1  15
BRANCH   6  22
ATOM     22  C   UNL     1       2.863   4.261  18.868  0.00  0.00    +0.000 A 
ATOM     23  C   UNL     1       3.749   3.624  19.752  0.00  0.00    +0.000 A 
ATOM     24  C   UNL     1       4.091   2.279  19.583  0.00  0.00    +0.000 A 
ATOM     25  C   UNL     1       3.550   1.552  18.527  0.00  0.00    +0.000 A 
ATOM     26  C   UNL     1       2.663   2.165  17.645  0.00  0.00    +0.000 A 
ATOM     27  C   UNL     1       2.320   3.510  17.814  0.00  0.00    +0.000 A 
ENDBRANCH   6  22
TORSDOF 3
ENDMDL
MODEL 7
REMARK VINA RESULT:      -8.1      2.060     10.247
REMARK  Name = 
REMARK  4 active torsions:
REMARK  status: ('A' for Active; 'I' for Inactive)
REMARK    1  A    between atoms: C_1  and  C_2
REMARK    2  A    between atoms: C_4  and  C_5
REMARK    3  A    between atoms: C_12  and  C_13
REMARK    4  A    between atoms: C_18  and  C_19
REMARK                            x       y       z     vdW  Elec       q    Type
REMARK                         _______ _______ _______ _____ _____    ______ ____
ROOT
ATOM      1  C   UNL     1       0.556  10.119  20.242  0.00  0.00    +0.000 A 
ATOM      2  C   UNL     1       0.815  10.899  18.975  0.00  0.00    +0.000 A 
ATOM      3  C   UNL     1       1.578  10.298  18.054  0.00  0.00    +0.000 A 
ATOM      4  N   UNL     1       2.080   9.026  18.282  0.00  0.00    +0.000 N 
ATOM      5  N   UNL     1       2.838   8.282  17.452  0.00  0.00    +0.000 NA
ATOM      6  C   UNL     1       3.020   7.111  18.083  0.00  0.00    +0.000 A 
ATOM      7  C   UNL     1       2.402   7.134  19.361  0.00  0.00    +0.000 A 
ATOM      8  C   UNL     1       1.805   8.367  19.475  0.00  0.00    +0.000 A 
ATOM      9  N   UNL     1       1.052   8.931  20.470  0.00  0.00    +0.000 NA
ENDROOT
BRANCH   1  15
ATOM     10  C   UNL     1       0.286   9.312  23.351  0.00  0.00    +0.000 C 
ATOM     11  C   UNL     1      -0.426  10.384  22.603  0.00  0.00    +0.000 A 
ATOM     12  N   UNL     1      -1.327  11.170  23.310  0.00  0.00    +0.000 NA
ATOM     13  C   UNL     1      -1.919  12.036  22.513  0.00  0.00    +0.000 A 
ATOM     14  S   UNL     1      -1.355  12.009  20.893  0.00  0.00    +0.000 S 
ATOM     15  C   UNL     1      -0.283  10.720  21.266  0.00  0.00    +0.000 A 
BRANCH  13  16
ATOM     16  C   UNL     1      -2.955  12.986  22.946  0.00  0.00    +0.000 A 
ATOM     17  C   UNL     1      -4.044  12.513  23.696  0.00  0.00    +0.000 A 
ATOM     18  C   UNL     1      -5.073  13.374  24.088  0.00  0.00    +0.000 A 
ATOM     19  C   UNL     1      -5.030  14.719  23.729  0.00  0.00    +0.000 A 
ATOM     20  C   UNL     1      -3.957  15.206  22.988  0.00  0.00    +0.000 A 
ATOM     21  C   UNL     1      -2.926  14.347  22.600  0.00  0.00    +0.000 A 
ENDBRANCH  13  16
ENDBRANCH   1  15
BRANCH   6  22
ATOM     22  C   UNL     1       3.754   6.011  17.443  0.00  0.00    +0.000 A 
ATOM     23  C   UNL     1       3.406   4.676  17.707  0.00  0.00    +0.000 A 
ATOM     24  C   UNL     1       4.117   3.619  17.132  0.00  0.00    +0.000 A 
ATOM     25  C   UNL     1       5.187   3.883  16.282  0.00  0.00    +0.000 A 
ATOM     26  C   UNL     1       5.542   5.201  16.001  0.00  0.00    +0.000 A 
ATOM     27  C   UNL     1       4.830   6.259  16.577  0.00  0.00    +0.000 A 
ENDBRANCH   6  22
TORSDOF 3
ENDMDL
MODEL 8
REMARK VINA RESULT:      -8.1      2.057      3.887
REMARK  Name = 
REMARK  4 active torsions:
REMARK  status: ('A' for Active; 'I' for Inactive)
REMARK    1  A    between atoms: C_1  and  C_2
REMARK    2  A    between atoms: C_4  and  C_5
REMARK    3  A    between atoms: C_12  and  C_13
REMARK    4  A    between atoms: C_18  and  C_19
REMARK                            x       y       z     vdW  Elec       q    Type
REMARK                         _______ _______ _______ _____ _____    ______ ____
ROOT
ATOM      1  C   UNL     1       3.115   5.644  18.692  0.00  0.00    +0.000 A 
ATOM      2  C   UNL     1       2.667   4.852  19.898  0.00  0.00    +0.000 A 
ATOM      3  C   UNL     1       1.986   5.528  20.831  0.00  0.00    +0.000 A 
ATOM      4  N   UNL     1       1.717   6.877  20.663  0.00  0.00    +0.000 N 
ATOM      5  N   UNL     1       1.029   7.687  21.493  0.00  0.00    +0.000 NA
ATOM      6  C   UNL     1       0.983   8.879  20.876  0.00  0.00    +0.000 A 
ATOM      7  C   UNL     1       1.699   8.833  19.651  0.00  0.00    +0.000 A 
ATOM      8  C   UNL     1       2.165   7.545  19.528  0.00  0.00    +0.000 A 
ATOM      9  N   UNL     1       2.887   6.923  18.546  0.00  0.00    +0.000 NA
ENDROOT
BRANCH   1  15
ATOM     10  C   UNL     1       3.715   2.490  18.402  0.00  0.00    +0.000 C 
ATOM     11  C   UNL     1       4.125   3.602  17.500  0.00  0.00    +0.000 A 
ATOM     12  N   UNL     1       4.855   3.273  16.365  0.00  0.00    +0.000 NA
ATOM     13  C   UNL     1       5.192   4.356  15.695  0.00  0.00    +0.000 A 
ATOM     14  S   UNL     1       4.570   5.816  16.347  0.00  0.00    +0.000 S 
ATOM     15  C   UNL     1       3.842   4.952  17.641  0.00  0.00    +0.000 A 
BRANCH  13  16
ATOM     16  C   UNL     1       6.003   4.351  14.468  0.00  0.00    +0.000 A 
ATOM     17  C   UNL     1       7.125   5.191  14.387  0.00  0.00    +0.000 A 
ATOM     18  C   UNL     1       7.895   5.250  13.222  0.00  0.00    +0.000 A 
ATOM     19  C   UNL     1       7.549   4.474  12.119  0.00  0.00    +0.000 A 
ATOM     20  C   UNL     1       6.442   3.632  12.182  0.00  0.00    +0.000 A 
ATOM     21  C   UNL     1       5.675   3.570  13.348  0.00  0.00    +0.000 A 
ENDBRANCH  13  16
ENDBRANCH   1  15
BRANCH   6  22
ATOM     22  C   UNL     1       0.246  10.007  21.461  0.00  0.00    +0.000 A 
ATOM     23  C   UNL     1       0.350  11.291  20.902  0.00  0.00    +0.000 A 
ATOM     24  C   UNL     1      -0.318  12.380  21.469  0.00  0.00    +0.000 A 
ATOM     25  C   UNL     1      -1.103  12.199  22.604  0.00  0.00    +0.000 A 
ATOM     26  C   UNL     1      -1.226  10.931  23.168  0.00  0.00    +0.000 A 
ATOM     27  C   UNL     1      -0.557   9.841  22.601  0.00  0.00    +0.000 A 
ENDBRANCH   6  22
TORSDOF 3
ENDMDL
MODEL 9
REMARK VINA RESULT:      -8.1      1.883     10.389
REMARK  Name = 
REMARK  4 active torsions:
REMARK  status: ('A' for Active; 'I' for Inactive)
REMARK    1  A    between atoms: C_1  and  C_2
REMARK    2  A    between atoms: C_4  and  C_5
REMARK    3  A    between atoms: C_12  and  C_13
REMARK    4  A    between atoms: C_18  and  C_19
REMARK                            x       y       z     vdW  Elec       q    Type
REMARK                         _______ _______ _______ _____ _____    ______ ____
ROOT
ATOM      1  C   UNL     1       0.800   9.528  20.498  0.00  0.00    +0.000 A 
ATOM      2  C   UNL     1       0.880   8.370  21.464  0.00  0.00    +0.000 A 
ATOM      3  C   UNL     1       1.547   7.289  21.040  0.00  0.00    +0.000 A 
ATOM      4  N   UNL     1       2.126   7.273  19.781  0.00  0.00    +0.000 N 
ATOM      5  N   UNL     1       2.845   6.279  19.221  0.00  0.00    +0.000 NA
ATOM      6  C   UNL     1       3.241   6.750  18.028  0.00  0.00    +0.000 A 
ATOM      7  C   UNL     1       2.721   8.053  17.809  0.00  0.00    +0.000 A 
ATOM      8  C   UNL     1       2.008   8.375  18.940  0.00  0.00    +0.000 A 
ATOM      9  N   UNL     1       1.321   9.503  19.299  0.00  0.00    +0.000 NA
ENDROOT
BRANCH   1  15
ATOM     10  C   UNL     1       0.391  12.284  18.877  0.00  0.00    +0.000 C 
ATOM     11  C   UNL     1      -0.076  11.932  20.246  0.00  0.00    +0.000 A 
ATOM     12  N   UNL     1      -0.799  12.891  20.945  0.00  0.00    +0.000 NA
ATOM     13  C   UNL     1      -1.098  12.463  22.155  0.00  0.00    +0.000 A 
ATOM     14  S   UNL     1      -0.603  10.852  22.479  0.00  0.00    +0.000 S 
ATOM     15  C   UNL     1       0.102  10.732  20.918  0.00  0.00    +0.000 A 
BRANCH  13  16
ATOM     16  C   UNL     1      -1.822  13.257  23.158  0.00  0.00    +0.000 A 
ATOM     17  C   UNL     1      -1.186  14.363  23.743  0.00  0.00    +0.000 A 
ATOM     18  C   UNL     1      -1.823  15.117  24.733  0.00  0.00    +0.000 A 
ATOM     19  C   UNL     1      -3.103  14.769  25.157  0.00  0.00    +0.000 A 
ATOM     20  C   UNL     1      -3.751  13.677  24.586  0.00  0.00    +0.000 A 
ATOM     21  C   UNL     1      -3.116  12.927  23.593  0.00  0.00    +0.000 A 
ENDBRANCH  13  16
ENDBRANCH   1  15
BRANCH   6  22
ATOM     22  C   UNL     1       4.112   5.956  17.150  0.00  0.00    +0.000 A 
ATOM     23  C   UNL     1       4.915   6.587  16.186  0.00  0.00    +0.000 A 
ATOM     24  C   UNL     1       5.723   5.841  15.322  0.00  0.00    +0.000 A 
ATOM     25  C   UNL     1       5.739   4.453  15.412  0.00  0.00    +0.000 A 
ATOM     26  C   UNL     1       4.956   3.810  16.368  0.00  0.00    +0.000 A 
ATOM     27  C   UNL     1       4.148   4.555  17.232  0.00  0.00    +0.000 A 
ENDBRANCH   6  22
TORSDOF 3
ENDMDL
