MODEL 1
REMARK VINA RESULT:      -9.6      0.000      0.000
REMARK  Name = 
REMARK  7 active torsions:
REMARK  status: ('A' for Active; 'I' for Inactive)
REMARK    1  A    between atoms: N_16  and  C_17
REMARK    2  A    between atoms: C_17  and  C_18
REMARK    3  A    between atoms: C_18  and  C_19
REMARK    4  A    between atoms: C_19  and  C_20
REMARK    5  A    between atoms: C_20  and  N_21
REMARK    6  A    between atoms: N_24  and  C_25
REMARK    7  A    between atoms: C_29  and  C_30
REMARK                            x       y       z     vdW  Elec       q    Type
REMARK                         _______ _______ _______ _____ _____    ______ ____
ROOT
ATOM      1  C   UNL     1       1.523   4.832  20.292  0.00  0.00    +0.000 C 
ENDROOT
BRANCH   1   2
ATOM      2  C   UNL     1       2.349   6.110  20.512  0.00  0.00    +0.000 C 
BRANCH   2  18
ATOM      3  O   UNL     1       2.926   7.104  17.917  0.00  0.00    +0.000 OA
ATOM      4  C   UNL     1       2.233   7.776  18.701  0.00  0.00    +0.000 A 
ATOM      5  C   UNL     1       1.777   9.120  18.282  0.00  0.00    +0.000 A 
ATOM      6  C   UNL     1       1.132   9.946  19.116  0.00  0.00    +0.000 A 
ATOM      7  C   UNL     1       0.883   9.412  20.460  0.00  0.00    +0.000 A 
ATOM      8  N   UNL     1       0.171  10.233  21.368  0.00  0.00    +0.000 N 
ATOM      9  C   UNL     1      -0.567   9.639  22.394  0.00  0.00    +0.000 A 
ATOM     10  C   UNL     1      -0.952  10.631  23.262  0.00  0.00    +0.000 A 
ATOM     11  C   UNL     1      -1.207  11.681  22.346  0.00  0.00    +0.000 A 
ATOM     12  C   UNL     1      -2.121  12.741  22.327  0.00  0.00    +0.000 A 
ATOM     13  C   UNL     1      -1.886  13.798  21.458  0.00  0.00    +0.000 A 
ATOM     14  C   UNL     1      -0.701  13.847  20.725  0.00  0.00    +0.000 A 
ATOM     15  C   UNL     1       0.176  12.746  20.662  0.00  0.00    +0.000 A 
ATOM     16  C   UNL     1      -0.189  11.594  21.382  0.00  0.00    +0.000 A 
ATOM     17  N   UNL     1       1.193   8.210  20.852  0.00  0.00    +0.000 NA
ATOM     18  N   UNL     1       1.817   7.361  19.961  0.00  0.00    +0.000 N 
ENDBRANCH   2  18
ENDBRANCH   1   2
BRANCH   1  19
ATOM     19  C   UNL     1       2.271   3.564  20.766  0.00  0.00    +0.000 C 
BRANCH  19  20
ATOM     20  C   UNL     1       2.023   2.294  19.920  0.00  0.00    +0.000 C 
BRANCH  20  21
ATOM     21  N   UNL     1       3.175   1.938  19.088  0.00  0.00    +0.000 NA
ATOM     22  C   UNL     1       2.936   2.124  17.639  0.00  0.00    +0.000 C 
ATOM     23  C   UNL     1       2.991   3.592  17.163  0.00  0.00    +0.000 C 
ATOM     24  N   UNL     1       4.286   4.201  17.496  0.00  0.00    +0.000 N 
ATOM     25  C   UNL     1       4.650   4.081  18.922  0.00  0.00    +0.000 C 
ATOM     26  C   UNL     1       4.420   2.645  19.470  0.00  0.00    +0.000 C 
BRANCH  24  27
ATOM     27  C   UNL     1       5.273   4.397  16.541  0.00  0.00    +0.000 A 
ATOM     28  C   UNL     1       6.517   4.974  16.838  0.00  0.00    +0.000 A 
ATOM     29  C   UNL     1       7.516   5.125  15.868  0.00  0.00    +0.000 A 
ATOM     30  C   UNL     1       7.296   4.692  14.565  0.00  0.00    +0.000 A 
ATOM     31  C   UNL     1       6.070   4.109  14.220  0.00  0.00    +0.000 A 
ATOM     32  C   UNL     1       5.082   3.966  15.217  0.00  0.00    +0.000 A 
BRANCH  31  33
ATOM     33  C   UNL     1       5.801   3.622  12.820  0.00  0.00    +0.000 C 
ATOM     34  F   UNL     1       6.515   4.285  11.867  0.00  0.00    +0.000 F 
ATOM     35  F   UNL     1       6.092   2.304  12.656  0.00  0.00    +0.000 F 
ATOM     36  F   UNL     1       4.493   3.764  12.468  0.00  0.00    +0.000 F 
ENDBRANCH  31  33
ENDBRANCH  24  27
ENDBRANCH  20  21
ENDBRANCH  19  20
ENDBRANCH   1  19
TORSDOF 7
ENDMDL
MODEL 2
REMARK VINA RESULT:      -8.8      8.233     10.999
REMARK  Name = 
REMARK  7 active torsions:
REMARK  status: ('A' for Active; 'I' for Inactive)
REMARK    1  A    between atoms: N_16  and  C_17
REMARK    2  A    between atoms: C_17  and  C_18
REMARK    3  A    between atoms: C_18  and  C_19
REMARK    4  A    between atoms: C_19  and  C_20
REMARK    5  A    between atoms: C_20  and  N_21
REMARK    6  A    between atoms: N_24  and  C_25
REMARK    7  A    between atoms: C_29  and  C_30
REMARK                            x       y       z     vdW  Elec       q    Type
REMARK                         _______ _______ _______ _____ _____    ______ ____
ROOT
ATOM      1  C   UNL     1       7.909   8.115  18.171  0.00  0.00    +0.000 C 
ENDROOT
BRANCH   1   2
ATOM      2  C   UNL     1       7.335   7.581  16.848  0.00  0.00    +0.000 C 
BRANCH   2  18
ATOM      3  O   UNL     1       7.753   5.397  15.084  0.00  0.00    +0.000 OA
ATOM      4  C   UNL     1       6.842   5.349  15.928  0.00  0.00    +0.000 A 
ATOM      5  C   UNL     1       5.945   4.171  15.949  0.00  0.00    +0.000 A 
ATOM      6  C   UNL     1       4.872   4.107  16.747  0.00  0.00    +0.000 A 
ATOM      7  C   UNL     1       4.668   5.269  17.619  0.00  0.00    +0.000 A 
ATOM      8  N   UNL     1       3.567   5.233  18.509  0.00  0.00    +0.000 N 
ATOM      9  C   UNL     1       3.619   5.971  19.694  0.00  0.00    +0.000 A 
ATOM     10  C   UNL     1       2.363   5.964  20.249  0.00  0.00    +0.000 A 
ATOM     11  C   UNL     1       1.954   4.646  19.926  0.00  0.00    +0.000 A 
ATOM     12  C   UNL     1       1.138   3.707  20.569  0.00  0.00    +0.000 A 
ATOM     13  C   UNL     1       0.654   2.638  19.828  0.00  0.00    +0.000 A 
ATOM     14  C   UNL     1       0.879   2.586  18.453  0.00  0.00    +0.000 A 
ATOM     15  C   UNL     1       1.774   3.467  17.815  0.00  0.00    +0.000 A 
ATOM     16  C   UNL     1       2.427   4.414  18.624  0.00  0.00    +0.000 A 
ATOM     17  N   UNL     1       5.469   6.292  17.695  0.00  0.00    +0.000 NA
ATOM     18  N   UNL     1       6.593   6.317  16.896  0.00  0.00    +0.000 N 
ENDBRANCH   2  18
ENDBRANCH   1   2
BRANCH   1  19
ATOM     19  C   UNL     1       8.103   9.649  18.146  0.00  0.00    +0.000 C 
BRANCH  19  20
ATOM     20  C   UNL     1       9.548  10.129  17.882  0.00  0.00    +0.000 C 
BRANCH  20  21
ATOM     21  N   UNL     1       9.967  11.190  18.802  0.00  0.00    +0.000 NA
ATOM     22  C   UNL     1      11.277  11.786  18.458  0.00  0.00    +0.000 C 
ATOM     23  C   UNL     1      11.242  12.770  17.269  0.00  0.00    +0.000 C 
ATOM     24  N   UNL     1      10.294  13.863  17.523  0.00  0.00    +0.000 N 
ATOM     25  C   UNL     1       8.938  13.402  17.883  0.00  0.00    +0.000 C 
ATOM     26  C   UNL     1       8.965  12.271  18.949  0.00  0.00    +0.000 C 
BRANCH  24  27
ATOM     27  C   UNL     1      10.718  15.132  17.891  0.00  0.00    +0.000 A 
ATOM     28  C   UNL     1      11.240  16.057  16.973  0.00  0.00    +0.000 A 
ATOM     29  C   UNL     1      11.623  17.348  17.357  0.00  0.00    +0.000 A 
ATOM     30  C   UNL     1      11.487  17.753  18.680  0.00  0.00    +0.000 A 
ATOM     31  C   UNL     1      10.971  16.865  19.633  0.00  0.00    +0.000 A 
ATOM     32  C   UNL     1      10.590  15.572  19.219  0.00  0.00    +0.000 A 
BRANCH  31  33
ATOM     33  C   UNL     1      10.803  17.274  21.073  0.00  0.00    +0.000 C 
ATOM     34  F   UNL     1       9.624  16.864  21.621  0.00  0.00    +0.000 F 
ATOM     35  F   UNL     1      11.781  16.781  21.879  0.00  0.00    +0.000 F 
ATOM     36  F   UNL     1      10.834  18.627  21.231  0.00  0.00    +0.000 F 
ENDBRANCH  31  33
ENDBRANCH  24  27
ENDBRANCH  20  21
ENDBRANCH  19  20
ENDBRANCH   1  19
TORSDOF 7
ENDMDL
MODEL 3
REMARK VINA RESULT:      -8.7      7.154      8.446
REMARK  Name = 
REMARK  7 active torsions:
REMARK  status: ('A' for Active; 'I' for Inactive)
REMARK    1  A    between atoms: N_16  and  C_17
REMARK    2  A    between atoms: C_17  and  C_18
REMARK    3  A    between atoms: C_18  and  C_19
REMARK    4  A    between atoms: C_19  and  C_20
REMARK    5  A    between atoms: C_20  and  N_21
REMARK    6  A    between atoms: N_24  and  C_25
REMARK    7  A    between atoms: C_29  and  C_30
REMARK                            x       y       z     vdW  Elec       q    Type
REMARK                         _______ _______ _______ _____ _____    ______ ____
ROOT
ATOM      1  C   UNL     1       8.536   9.602  18.266  0.00  0.00    +0.000 C 
ENDROOT
BRANCH   1   2
ATOM      2  C   UNL     1       9.585  10.082  19.282  0.00  0.00    +0.000 C 
BRANCH   2  18
ATOM      3  O   UNL     1      10.915  11.918  17.573  0.00  0.00    +0.000 OA
ATOM      4  C   UNL     1      10.423  12.310  18.646  0.00  0.00    +0.000 A 
ATOM      5  C   UNL     1      10.604  13.725  19.042  0.00  0.00    +0.000 A 
ATOM      6  C   UNL     1      10.209  14.187  20.235  0.00  0.00    +0.000 A 
ATOM      7  C   UNL     1       9.559  13.201  21.106  0.00  0.00    +0.000 A 
ATOM      8  N   UNL     1       9.089  13.650  22.364  0.00  0.00    +0.000 N 
ATOM      9  C   UNL     1       8.022  12.985  22.974  0.00  0.00    +0.000 A 
ATOM     10  C   UNL     1       7.922  13.447  24.263  0.00  0.00    +0.000 A 
ATOM     11  C   UNL     1       8.249  14.811  24.067  0.00  0.00    +0.000 A 
ATOM     12  C   UNL     1       7.839  15.998  24.686  0.00  0.00    +0.000 A 
ATOM     13  C   UNL     1       8.605  17.140  24.495  0.00  0.00    +0.000 A 
ATOM     14  C   UNL     1       9.817  17.058  23.808  0.00  0.00    +0.000 A 
ATOM     15  C   UNL     1      10.190  15.899  23.102  0.00  0.00    +0.000 A 
ATOM     16  C   UNL     1       9.293  14.815  23.127  0.00  0.00    +0.000 A 
ATOM     17  N   UNL     1       9.306  11.968  20.774  0.00  0.00    +0.000 NA
ATOM     18  N   UNL     1       9.681  11.526  19.523  0.00  0.00    +0.000 N 
ENDBRANCH   2  18
ENDBRANCH   1   2
BRANCH   1  19
ATOM     19  C   UNL     1       8.210   8.099  18.427  0.00  0.00    +0.000 C 
BRANCH  19  20
ATOM     20  C   UNL     1       7.718   7.388  17.147  0.00  0.00    +0.000 C 
BRANCH  20  21
ATOM     21  N   UNL     1       7.409   5.973  17.371  0.00  0.00    +0.000 NA
ATOM     22  C   UNL     1       6.865   5.694  18.719  0.00  0.00    +0.000 C 
ATOM     23  C   UNL     1       5.386   6.092  18.911  0.00  0.00    +0.000 C 
ATOM     24  N   UNL     1       4.532   5.418  17.924  0.00  0.00    +0.000 N 
ATOM     25  C   UNL     1       4.968   5.615  16.527  0.00  0.00    +0.000 C 
ATOM     26  C   UNL     1       6.498   5.400  16.352  0.00  0.00    +0.000 C 
BRANCH  24  27
ATOM     27  C   UNL     1       3.743   4.328  18.259  0.00  0.00    +0.000 A 
ATOM     28  C   UNL     1       3.394   3.328  17.338  0.00  0.00    +0.000 A 
ATOM     29  C   UNL     1       2.631   2.213  17.707  0.00  0.00    +0.000 A 
ATOM     30  C   UNL     1       2.199   2.064  19.021  0.00  0.00    +0.000 A 
ATOM     31  C   UNL     1       2.522   3.036  19.976  0.00  0.00    +0.000 A 
ATOM     32  C   UNL     1       3.295   4.148  19.579  0.00  0.00    +0.000 A 
BRANCH  31  33
ATOM     33  C   UNL     1       2.078   2.903  21.409  0.00  0.00    +0.000 C 
ATOM     34  F   UNL     1       2.265   4.036  22.144  0.00  0.00    +0.000 F 
ATOM     35  F   UNL     1       0.758   2.596  21.526  0.00  0.00    +0.000 F 
ATOM     36  F   UNL     1       2.751   1.919  22.068  0.00  0.00    +0.000 F 
ENDBRANCH  31  33
ENDBRANCH  24  27
ENDBRANCH  20  21
ENDBRANCH  19  20
ENDBRANCH   1  19
TORSDOF 7
ENDMDL
MODEL 4
REMARK VINA RESULT:      -8.7      8.141     10.976
REMARK  Name = 
REMARK  7 active torsions:
REMARK  status: ('A' for Active; 'I' for Inactive)
REMARK    1  A    between atoms: N_16  and  C_17
REMARK    2  A    between atoms: C_17  and  C_18
REMARK    3  A    between atoms: C_18  and  C_19
REMARK    4  A    between atoms: C_19  and  C_20
REMARK    5  A    between atoms: C_20  and  N_21
REMARK    6  A    between atoms: N_24  and  C_25
REMARK    7  A    between atoms: C_29  and  C_30
REMARK                            x       y       z     vdW  Elec       q    Type
REMARK                         _______ _______ _______ _____ _____    ______ ____
ROOT
ATOM      1  C   UNL     1       7.205   8.399  17.667  0.00  0.00    +0.000 C 
ENDROOT
BRANCH   1   2
ATOM      2  C   UNL     1       7.552   7.259  16.696  0.00  0.00    +0.000 C 
BRANCH   2  18
ATOM      3  O   UNL     1       7.796   5.051  14.928  0.00  0.00    +0.000 OA
ATOM      4  C   UNL     1       6.904   5.059  15.795  0.00  0.00    +0.000 A 
ATOM      5  C   UNL     1       5.941   3.936  15.841  0.00  0.00    +0.000 A 
ATOM      6  C   UNL     1       4.886   3.937  16.666  0.00  0.00    +0.000 A 
ATOM      7  C   UNL     1       4.772   5.110  17.539  0.00  0.00    +0.000 A 
ATOM      8  N   UNL     1       3.693   5.140  18.456  0.00  0.00    +0.000 N 
ATOM      9  C   UNL     1       3.819   5.876  19.638  0.00  0.00    +0.000 A 
ATOM     10  C   UNL     1       2.578   5.944  20.223  0.00  0.00    +0.000 A 
ATOM     11  C   UNL     1       2.084   4.653  19.915  0.00  0.00    +0.000 A 
ATOM     12  C   UNL     1       1.231   3.765  20.580  0.00  0.00    +0.000 A 
ATOM     13  C   UNL     1       0.666   2.725  19.855  0.00  0.00    +0.000 A 
ATOM     14  C   UNL     1       0.853   2.657  18.474  0.00  0.00    +0.000 A 
ATOM     15  C   UNL     1       1.783   3.483  17.812  0.00  0.00    +0.000 A 
ATOM     16  C   UNL     1       2.510   4.391  18.602  0.00  0.00    +0.000 A 
ATOM     17  N   UNL     1       5.634   6.084  17.592  0.00  0.00    +0.000 NA
ATOM     18  N   UNL     1       6.737   6.041  16.765  0.00  0.00    +0.000 N 
ENDBRANCH   2  18
ENDBRANCH   1   2
BRANCH   1  19
ATOM     19  C   UNL     1       8.433   8.867  18.482  0.00  0.00    +0.000 C 
BRANCH  19  20
ATOM     20  C   UNL     1       9.111  10.159  17.972  0.00  0.00    +0.000 C 
BRANCH  20  21
ATOM     21  N   UNL     1       8.744  11.337  18.762  0.00  0.00    +0.000 NA
ATOM     22  C   UNL     1       9.454  11.425  20.057  0.00  0.00    +0.000 C 
ATOM     23  C   UNL     1      10.920  11.897  19.955  0.00  0.00    +0.000 C 
ATOM     24  N   UNL     1      11.003  13.208  19.298  0.00  0.00    +0.000 N 
ATOM     25  C   UNL     1      10.325  13.260  17.986  0.00  0.00    +0.000 C 
ATOM     26  C   UNL     1       8.912  12.614  18.028  0.00  0.00    +0.000 C 
BRANCH  24  27
ATOM     27  C   UNL     1      11.220  14.376  20.014  0.00  0.00    +0.000 A 
ATOM     28  C   UNL     1      12.061  15.404  19.559  0.00  0.00    +0.000 A 
ATOM     29  C   UNL     1      12.235  16.593  20.277  0.00  0.00    +0.000 A 
ATOM     30  C   UNL     1      11.561  16.790  21.477  0.00  0.00    +0.000 A 
ATOM     31  C   UNL     1      10.711  15.793  21.972  0.00  0.00    +0.000 A 
ATOM     32  C   UNL     1      10.551  14.606  21.228  0.00  0.00    +0.000 A 
BRANCH  31  33
ATOM     33  C   UNL     1       9.959  15.976  23.265  0.00  0.00    +0.000 C 
ATOM     34  F   UNL     1      10.768  16.044  24.360  0.00  0.00    +0.000 F 
ATOM     35  F   UNL     1       9.209  17.111  23.283  0.00  0.00    +0.000 F 
ATOM     36  F   UNL     1       9.095  14.952  23.507  0.00  0.00    +0.000 F 
ENDBRANCH  31  33
ENDBRANCH  24  27
ENDBRANCH  20  21
ENDBRANCH  19  20
ENDBRANCH   1  19
TORSDOF 7
ENDMDL
MODEL 5
REMARK VINA RESULT:      -8.7      1.207      1.858
REMARK  Name = 
REMARK  7 active torsions:
REMARK  status: ('A' for Active; 'I' for Inactive)
REMARK    1  A    between atoms: N_16  and  C_17
REMARK    2  A    between atoms: C_17  and  C_18
REMARK    3  A    between atoms: C_18  and  C_19
REMARK    4  A    between atoms: C_19  and  C_20
REMARK    5  A    between atoms: C_20  and  N_21
REMARK    6  A    between atoms: N_24  and  C_25
REMARK    7  A    between atoms: C_29  and  C_30
REMARK                            x       y       z     vdW  Elec       q    Type
REMARK                         _______ _______ _______ _____ _____    ______ ____
ROOT
ATOM      1  C   UNL     1       2.204   4.746  20.001  0.00  0.00    +0.000 C 
ENDROOT
BRANCH   1   2
ATOM      2  C   UNL     1       2.701   6.134  20.439  0.00  0.00    +0.000 C 
BRANCH   2  18
ATOM      3  O   UNL     1       3.043   7.090  17.788  0.00  0.00    +0.000 OA
ATOM      4  C   UNL     1       2.324   7.715  18.587  0.00  0.00    +0.000 A 
ATOM      5  C   UNL     1       1.711   8.990  18.153  0.00  0.00    +0.000 A 
ATOM      6  C   UNL     1       1.027   9.775  18.995  0.00  0.00    +0.000 A 
ATOM      7  C   UNL     1       0.901   9.266  20.365  0.00  0.00    +0.000 A 
ATOM      8  N   UNL     1       0.154  10.041  21.285  0.00  0.00    +0.000 N 
ATOM      9  C   UNL     1      -0.467   9.412  22.366  0.00  0.00    +0.000 A 
ATOM     10  C   UNL     1      -0.910  10.389  23.223  0.00  0.00    +0.000 A 
ATOM     11  C   UNL     1      -1.317  11.375  22.291  0.00  0.00    +0.000 A 
ATOM     12  C   UNL     1      -2.336  12.335  22.288  0.00  0.00    +0.000 A 
ATOM     13  C   UNL     1      -2.254  13.380  21.378  0.00  0.00    +0.000 A 
ATOM     14  C   UNL     1      -1.118  13.523  20.582  0.00  0.00    +0.000 A 
ATOM     15  C   UNL     1      -0.137  12.516  20.506  0.00  0.00    +0.000 A 
ATOM     16  C   UNL     1      -0.344  11.358  21.277  0.00  0.00    +0.000 A 
ATOM     17  N   UNL     1       1.353   8.116  20.776  0.00  0.00    +0.000 NA
ATOM     18  N   UNL     1       2.016   7.304  19.879  0.00  0.00    +0.000 N 
ENDBRANCH   2  18
ENDBRANCH   1   2
BRANCH   1  19
ATOM     19  C   UNL     1       3.354   3.849  19.485  0.00  0.00    +0.000 C 
BRANCH  19  20
ATOM     20  C   UNL     1       4.741   4.527  19.417  0.00  0.00    +0.000 C 
BRANCH  20  21
ATOM     21  N   UNL     1       5.643   3.870  18.467  0.00  0.00    +0.000 NA
ATOM     22  C   UNL     1       4.946   3.283  17.301  0.00  0.00    +0.000 C 
ATOM     23  C   UNL     1       4.499   4.308  16.237  0.00  0.00    +0.000 C 
ATOM     24  N   UNL     1       5.646   5.082  15.742  0.00  0.00    +0.000 N 
ATOM     25  C   UNL     1       6.436   5.723  16.813  0.00  0.00    +0.000 C 
ATOM     26  C   UNL     1       6.735   4.750  17.987  0.00  0.00    +0.000 C 
BRANCH  24  27
ATOM     27  C   UNL     1       6.224   4.829  14.507  0.00  0.00    +0.000 A 
ATOM     28  C   UNL     1       7.362   5.509  14.045  0.00  0.00    +0.000 A 
ATOM     29  C   UNL     1       7.956   5.210  12.813  0.00  0.00    +0.000 A 
ATOM     30  C   UNL     1       7.426   4.207  12.006  0.00  0.00    +0.000 A 
ATOM     31  C   UNL     1       6.292   3.501  12.425  0.00  0.00    +0.000 A 
ATOM     32  C   UNL     1       5.715   3.820  13.672  0.00  0.00    +0.000 A 
BRANCH  31  33
ATOM     33  C   UNL     1       5.697   2.404  11.580  0.00  0.00    +0.000 C 
ATOM     34  F   UNL     1       4.491   2.730  11.036  0.00  0.00    +0.000 F 
ATOM     35  F   UNL     1       6.495   2.051  10.537  0.00  0.00    +0.000 F 
ATOM     36  F   UNL     1       5.485   1.263  12.293  0.00  0.00    +0.000 F 
ENDBRANCH  31  33
ENDBRANCH  24  27
ENDBRANCH  20  21
ENDBRANCH  19  20
ENDBRANCH   1  19
TORSDOF 7
ENDMDL
MODEL 6
REMARK VINA RESULT:      -8.7      6.795      8.042
REMARK  Name = 
REMARK  7 active torsions:
REMARK  status: ('A' for Active; 'I' for Inactive)
REMARK    1  A    between atoms: N_16  and  C_17
REMARK    2  A    between atoms: C_17  and  C_18
REMARK    3  A    between atoms: C_18  and  C_19
REMARK    4  A    between atoms: C_19  and  C_20
REMARK    5  A    between atoms: C_20  and  N_21
REMARK    6  A    between atoms: N_24  and  C_25
REMARK    7  A    between atoms: C_29  and  C_30
REMARK                            x       y       z     vdW  Elec       q    Type
REMARK                         _______ _______ _______ _____ _____    ______ ____
ROOT
ATOM      1  C   UNL     1       8.656   9.769  17.945  0.00  0.00    +0.000 C 
ENDROOT
BRANCH   1   2
ATOM      2  C   UNL     1       9.597  10.287  19.045  0.00  0.00    +0.000 C 
BRANCH   2  18
ATOM      3  O   UNL     1      10.063  12.745  17.703  0.00  0.00    +0.000 OA
ATOM      4  C   UNL     1       9.654  12.745  18.877  0.00  0.00    +0.000 A 
ATOM      5  C   UNL     1       9.482  14.038  19.576  0.00  0.00    +0.000 A 
ATOM      6  C   UNL     1       9.162  14.110  20.874  0.00  0.00    +0.000 A 
ATOM      7  C   UNL     1       8.964  12.819  21.544  0.00  0.00    +0.000 A 
ATOM      8  N   UNL     1       8.587  12.842  22.909  0.00  0.00    +0.000 N 
ATOM      9  C   UNL     1       7.863  11.771  23.438  0.00  0.00    +0.000 A 
ATOM     10  C   UNL     1       7.837  11.916  24.803  0.00  0.00    +0.000 A 
ATOM     11  C   UNL     1       7.726  13.324  24.904  0.00  0.00    +0.000 A 
ATOM     12  C   UNL     1       7.095  14.177  25.817  0.00  0.00    +0.000 A 
ATOM     13  C   UNL     1       7.464  15.516  25.832  0.00  0.00    +0.000 A 
ATOM     14  C   UNL     1       8.526  15.954  25.041  0.00  0.00    +0.000 A 
ATOM     15  C   UNL     1       9.100  15.132  24.052  0.00  0.00    +0.000 A 
ATOM     16  C   UNL     1       8.565  13.840  23.902  0.00  0.00    +0.000 A 
ATOM     17  N   UNL     1       9.025  11.659  20.956  0.00  0.00    +0.000 NA
ATOM     18  N   UNL     1       9.312  11.612  19.608  0.00  0.00    +0.000 N 
ENDBRANCH   2  18
ENDBRANCH   1   2
BRANCH   1  19
ATOM     19  C   UNL     1       8.135   8.344  18.244  0.00  0.00    +0.000 C 
BRANCH  19  20
ATOM     20  C   UNL     1       7.814   7.483  17.001  0.00  0.00    +0.000 C 
BRANCH  20  21
ATOM     21  N   UNL     1       7.568   6.078  17.337  0.00  0.00    +0.000 NA
ATOM     22  C   UNL     1       6.890   5.892  18.640  0.00  0.00    +0.000 C 
ATOM     23  C   UNL     1       5.377   6.200  18.626  0.00  0.00    +0.000 C 
ATOM     24  N   UNL     1       4.686   5.373  17.628  0.00  0.00    +0.000 N 
ATOM     25  C   UNL     1       5.268   5.463  16.274  0.00  0.00    +0.000 C 
ATOM     26  C   UNL     1       6.818   5.344  16.291  0.00  0.00    +0.000 C 
BRANCH  24  27
ATOM     27  C   UNL     1       3.931   4.266  17.987  0.00  0.00    +0.000 A 
ATOM     28  C   UNL     1       4.165   2.983  17.468  0.00  0.00    +0.000 A 
ATOM     29  C   UNL     1       3.419   1.870  17.876  0.00  0.00    +0.000 A 
ATOM     30  C   UNL     1       2.414   2.012  18.827  0.00  0.00    +0.000 A 
ATOM     31  C   UNL     1       2.143   3.273  19.373  0.00  0.00    +0.000 A 
ATOM     32  C   UNL     1       2.912   4.377  18.948  0.00  0.00    +0.000 A 
BRANCH  31  33
ATOM     33  C   UNL     1       1.067   3.461  20.411  0.00  0.00    +0.000 C 
ATOM     34  F   UNL     1       1.374   2.910  21.619  0.00  0.00    +0.000 F 
ATOM     35  F   UNL     1       0.794   4.771  20.656  0.00  0.00    +0.000 F 
ATOM     36  F   UNL     1      -0.114   2.896  20.036  0.00  0.00    +0.000 F 
ENDBRANCH  31  33
ENDBRANCH  24  27
ENDBRANCH  20  21
ENDBRANCH  19  20
ENDBRANCH   1  19
TORSDOF 7
ENDMDL
MODEL 7
REMARK VINA RESULT:      -8.7      6.890      8.095
REMARK  Name = 
REMARK  7 active torsions:
REMARK  status: ('A' for Active; 'I' for Inactive)
REMARK    1  A    between atoms: N_16  and  C_17
REMARK    2  A    between atoms: C_17  and  C_18
REMARK    3  A    between atoms: C_18  and  C_19
REMARK    4  A    between atoms: C_19  and  C_20
REMARK    5  A    between atoms: C_20  and  N_21
REMARK    6  A    between atoms: N_24  and  C_25
REMARK    7  A    between atoms: C_29  and  C_30
REMARK                            x       y       z     vdW  Elec       q    Type
REMARK                         _______ _______ _______ _____ _____    ______ ____
ROOT
ATOM      1  C   UNL     1       9.118  10.048  18.915  0.00  0.00    +0.000 C 
ENDROOT
BRANCH   1   2
ATOM      2  C   UNL     1       9.241  11.435  18.263  0.00  0.00    +0.000 C 
BRANCH   2  18
ATOM      3  O   UNL     1       9.789  14.112  17.496  0.00  0.00    +0.000 OA
ATOM      4  C   UNL     1       9.417  13.861  18.655  0.00  0.00    +0.000 A 
ATOM      5  C   UNL     1       9.333  14.966  19.636  0.00  0.00    +0.000 A 
ATOM      6  C   UNL     1       9.057  14.752  20.929  0.00  0.00    +0.000 A 
ATOM      7  C   UNL     1       8.815  13.352  21.295  0.00  0.00    +0.000 A 
ATOM      8  N   UNL     1       8.483  13.078  22.644  0.00  0.00    +0.000 N 
ATOM      9  C   UNL     1       7.723  11.945  22.946  0.00  0.00    +0.000 A 
ATOM     10  C   UNL     1       7.747  11.775  24.309  0.00  0.00    +0.000 A 
ATOM     11  C   UNL     1       7.710  13.126  24.731  0.00  0.00    +0.000 A 
ATOM     12  C   UNL     1       7.152  13.774  25.840  0.00  0.00    +0.000 A 
ATOM     13  C   UNL     1       7.589  15.056  26.143  0.00  0.00    +0.000 A 
ATOM     14  C   UNL     1       8.646  15.619  25.429  0.00  0.00    +0.000 A 
ATOM     15  C   UNL     1       9.147  15.021  24.256  0.00  0.00    +0.000 A 
ATOM     16  C   UNL     1       8.543  13.821  23.838  0.00  0.00    +0.000 A 
ATOM     17  N   UNL     1       8.800  12.356  20.458  0.00  0.00    +0.000 NA
ATOM     18  N   UNL     1       9.042  12.606  19.123  0.00  0.00    +0.000 N 
ENDBRANCH   2  18
ENDBRANCH   1   2
BRANCH   1  19
ATOM     19  C   UNL     1       8.328   9.054  18.031  0.00  0.00    +0.000 C 
BRANCH  19  20
ATOM     20  C   UNL     1       8.324   7.590  18.526  0.00  0.00    +0.000 C 
BRANCH  20  21
ATOM     21  N   UNL     1       7.616   6.689  17.612  0.00  0.00    +0.000 NA
ATOM     22  C   UNL     1       7.504   5.303  18.120  0.00  0.00    +0.000 C 
ATOM     23  C   UNL     1       6.433   5.105  19.214  0.00  0.00    +0.000 C 
ATOM     24  N   UNL     1       5.110   5.525  18.734  0.00  0.00    +0.000 N 
ATOM     25  C   UNL     1       5.083   6.900  18.194  0.00  0.00    +0.000 C 
ATOM     26  C   UNL     1       6.270   7.176  17.229  0.00  0.00    +0.000 C 
BRANCH  24  27
ATOM     27  C   UNL     1       4.143   4.608  18.350  0.00  0.00    +0.000 A 
ATOM     28  C   UNL     1       4.209   3.890  17.145  0.00  0.00    +0.000 A 
ATOM     29  C   UNL     1       3.244   2.938  16.795  0.00  0.00    +0.000 A 
ATOM     30  C   UNL     1       2.181   2.671  17.652  0.00  0.00    +0.000 A 
ATOM     31  C   UNL     1       2.073   3.362  18.865  0.00  0.00    +0.000 A 
ATOM     32  C   UNL     1       3.060   4.314  19.195  0.00  0.00    +0.000 A 
BRANCH  31  33
ATOM     33  C   UNL     1       0.939   3.093  19.821  0.00  0.00    +0.000 C 
ATOM     34  F   UNL     1       0.425   4.221  20.386  0.00  0.00    +0.000 F 
ATOM     35  F   UNL     1      -0.109   2.459  19.230  0.00  0.00    +0.000 F 
ATOM     36  F   UNL     1       1.320   2.298  20.860  0.00  0.00    +0.000 F 
ENDBRANCH  31  33
ENDBRANCH  24  27
ENDBRANCH  20  21
ENDBRANCH  19  20
ENDBRANCH   1  19
TORSDOF 7
ENDMDL
MODEL 8
REMARK VINA RESULT:      -8.5      7.330      8.617
REMARK  Name = 
REMARK  7 active torsions:
REMARK  status: ('A' for Active; 'I' for Inactive)
REMARK    1  A    between atoms: N_16  and  C_17
REMARK    2  A    between atoms: C_17  and  C_18
REMARK    3  A    between atoms: C_18  and  C_19
REMARK    4  A    between atoms: C_19  and  C_20
REMARK    5  A    between atoms: C_20  and  N_21
REMARK    6  A    between atoms: N_24  and  C_25
REMARK    7  A    between atoms: C_29  and  C_30
REMARK                            x       y       z     vdW  Elec       q    Type
REMARK                         _______ _______ _______ _____ _____    ______ ____
ROOT
ATOM      1  C   UNL     1       8.874   9.963  18.698  0.00  0.00    +0.000 C 
ENDROOT
BRANCH   1   2
ATOM      2  C   UNL     1       9.743  10.935  17.884  0.00  0.00    +0.000 C 
BRANCH   2  18
ATOM      3  O   UNL     1      11.045  13.045  16.500  0.00  0.00    +0.000 OA
ATOM      4  C   UNL     1      10.602  13.233  17.646  0.00  0.00    +0.000 A 
ATOM      5  C   UNL     1      10.825  14.544  18.294  0.00  0.00    +0.000 A 
ATOM      6  C   UNL     1      10.484  14.777  19.568  0.00  0.00    +0.000 A 
ATOM      7  C   UNL     1       9.846  13.653  20.263  0.00  0.00    +0.000 A 
ATOM      8  N   UNL     1       9.432  13.861  21.601  0.00  0.00    +0.000 N 
ATOM      9  C   UNL     1       8.376  13.106  22.117  0.00  0.00    +0.000 A 
ATOM     10  C   UNL     1       8.333  13.317  23.473  0.00  0.00    +0.000 A 
ATOM     11  C   UNL     1       8.680  14.689  23.525  0.00  0.00    +0.000 A 
ATOM     12  C   UNL     1       8.316  15.743  24.372  0.00  0.00    +0.000 A 
ATOM     13  C   UNL     1       9.098  16.890  24.370  0.00  0.00    +0.000 A 
ATOM     14  C   UNL     1      10.281  16.925  23.632  0.00  0.00    +0.000 A 
ATOM     15  C   UNL     1      10.605  15.915  22.705  0.00  0.00    +0.000 A 
ATOM     16  C   UNL     1       9.688  14.858  22.561  0.00  0.00    +0.000 A 
ATOM     17  N   UNL     1       9.557  12.508  19.715  0.00  0.00    +0.000 NA
ATOM     18  N   UNL     1       9.877  12.306  18.388  0.00  0.00    +0.000 N 
ENDBRANCH   2  18
ENDBRANCH   1   2
BRANCH   1  19
ATOM     19  C   UNL     1       8.011   9.053  17.793  0.00  0.00    +0.000 C 
BRANCH  19  20
ATOM     20  C   UNL     1       8.206   7.534  18.004  0.00  0.00    +0.000 C 
BRANCH  20  21
ATOM     21  N   UNL     1       7.316   6.730  17.163  0.00  0.00    +0.000 NA
ATOM     22  C   UNL     1       7.375   5.280  17.459  0.00  0.00    +0.000 C 
ATOM     23  C   UNL     1       6.623   4.855  18.738  0.00  0.00    +0.000 C 
ATOM     24  N   UNL     1       5.210   5.251  18.670  0.00  0.00    +0.000 N 
ATOM     25  C   UNL     1       5.008   6.684  18.376  0.00  0.00    +0.000 C 
ATOM     26  C   UNL     1       5.903   7.176  17.204  0.00  0.00    +0.000 C 
BRANCH  24  27
ATOM     27  C   UNL     1       4.204   4.336  18.397  0.00  0.00    +0.000 A 
ATOM     28  C   UNL     1       4.235   3.477  17.287  0.00  0.00    +0.000 A 
ATOM     29  C   UNL     1       3.230   2.532  17.052  0.00  0.00    +0.000 A 
ATOM     30  C   UNL     1       2.159   2.415  17.933  0.00  0.00    +0.000 A 
ATOM     31  C   UNL     1       2.084   3.250  19.054  0.00  0.00    +0.000 A 
ATOM     32  C   UNL     1       3.112   4.192  19.269  0.00  0.00    +0.000 A 
BRANCH  31  33
ATOM     33  C   UNL     1       0.943   3.146  20.032  0.00  0.00    +0.000 C 
ATOM     34  F   UNL     1       1.238   2.402  21.135  0.00  0.00    +0.000 F 
ATOM     35  F   UNL     1       0.534   4.357  20.497  0.00  0.00    +0.000 F 
ATOM     36  F   UNL     1      -0.158   2.565  19.479  0.00  0.00    +0.000 F 
ENDBRANCH  31  33
ENDBRANCH  24  27
ENDBRANCH  20  21
ENDBRANCH  19  20
ENDBRANCH   1  19
TORSDOF 7
ENDMDL
MODEL 9
REMARK VINA RESULT:      -8.5      8.440     11.253
REMARK  Name = 
REMARK  7 active torsions:
REMARK  status: ('A' for Active; 'I' for Inactive)
REMARK    1  A    between atoms: N_16  and  C_17
REMARK    2  A    between atoms: C_17  and  C_18
REMARK    3  A    between atoms: C_18  and  C_19
REMARK    4  A    between atoms: C_19  and  C_20
REMARK    5  A    between atoms: C_20  and  N_21
REMARK    6  A    between atoms: N_24  and  C_25
REMARK    7  A    between atoms: C_29  and  C_30
REMARK                            x       y       z     vdW  Elec       q    Type
REMARK                         _______ _______ _______ _____ _____    ______ ____
ROOT
ATOM      1  C   UNL     1       7.304   8.402  17.916  0.00  0.00    +0.000 C 
ENDROOT
BRANCH   1   2
ATOM      2  C   UNL     1       7.582   7.328  16.851  0.00  0.00    +0.000 C 
BRANCH   2  18
ATOM      3  O   UNL     1       7.778   5.192  14.992  0.00  0.00    +0.000 OA
ATOM      4  C   UNL     1       6.886   5.183  15.858  0.00  0.00    +0.000 A 
ATOM      5  C   UNL     1       5.897   4.082  15.855  0.00  0.00    +0.000 A 
ATOM      6  C   UNL     1       4.840   4.072  16.678  0.00  0.00    +0.000 A 
ATOM      7  C   UNL     1       4.752   5.210  17.600  0.00  0.00    +0.000 A 
ATOM      8  N   UNL     1       3.673   5.226  18.517  0.00  0.00    +0.000 N 
ATOM      9  C   UNL     1       3.813   5.907  19.728  0.00  0.00    +0.000 A 
ATOM     10  C   UNL     1       2.573   5.979  20.315  0.00  0.00    +0.000 A 
ATOM     11  C   UNL     1       2.050   4.714  19.952  0.00  0.00    +0.000 A 
ATOM     12  C   UNL     1       1.175   3.818  20.578  0.00  0.00    +0.000 A 
ATOM     13  C   UNL     1       0.588   2.823  19.809  0.00  0.00    +0.000 A 
ATOM     14  C   UNL     1       0.776   2.810  18.426  0.00  0.00    +0.000 A 
ATOM     15  C   UNL     1       1.726   3.641  17.801  0.00  0.00    +0.000 A 
ATOM     16  C   UNL     1       2.473   4.498  18.629  0.00  0.00    +0.000 A 
ATOM     17  N   UNL     1       5.636   6.160  17.696  0.00  0.00    +0.000 NA
ATOM     18  N   UNL     1       6.740   6.127  16.868  0.00  0.00    +0.000 N 
ENDBRANCH   2  18
ENDBRANCH   1   2
BRANCH   1  19
ATOM     19  C   UNL     1       8.146   9.680  17.690  0.00  0.00    +0.000 C 
BRANCH  19  20
ATOM     20  C   UNL     1       9.097  10.058  18.848  0.00  0.00    +0.000 C 
BRANCH  20  21
ATOM     21  N   UNL     1       9.991  11.167  18.504  0.00  0.00    +0.000 NA
ATOM     22  C   UNL     1       9.281  12.442  18.254  0.00  0.00    +0.000 C 
ATOM     23  C   UNL     1       8.798  13.168  19.528  0.00  0.00    +0.000 C 
ATOM     24  N   UNL     1       9.924  13.440  20.432  0.00  0.00    +0.000 N 
ATOM     25  C   UNL     1      10.724  12.244  20.763  0.00  0.00    +0.000 C 
ATOM     26  C   UNL     1      11.060  11.395  19.504  0.00  0.00    +0.000 C 
BRANCH  24  27
ATOM     27  C   UNL     1      10.483  14.704  20.549  0.00  0.00    +0.000 A 
ATOM     28  C   UNL     1      11.000  15.412  19.453  0.00  0.00    +0.000 A 
ATOM     29  C   UNL     1      11.522  16.705  19.584  0.00  0.00    +0.000 A 
ATOM     30  C   UNL     1      11.534  17.332  20.826  0.00  0.00    +0.000 A 
ATOM     31  C   UNL     1      11.030  16.665  21.949  0.00  0.00    +0.000 A 
ATOM     32  C   UNL     1      10.506  15.365  21.789  0.00  0.00    +0.000 A 
BRANCH  31  33
ATOM     33  C   UNL     1      11.020  17.317  23.308  0.00  0.00    +0.000 C 
ATOM     34  F   UNL     1       9.768  17.543  23.794  0.00  0.00    +0.000 F 
ATOM     35  F   UNL     1      11.660  16.576  24.252  0.00  0.00    +0.000 F 
ATOM     36  F   UNL     1      11.639  18.530  23.300  0.00  0.00    +0.000 F 
ENDBRANCH  31  33
ENDBRANCH  24  27
ENDBRANCH  20  21
ENDBRANCH  19  20
ENDBRANCH   1  19
TORSDOF 7
ENDMDL
