MODEL 1
REMARK VINA RESULT:      -9.1      0.000      0.000
REMARK  Name = 
REMARK  7 active torsions:
REMARK  status: ('A' for Active; 'I' for Inactive)
REMARK    1  A    between atoms: C_1  and  C_2
REMARK    2  A    between atoms: C_2  and  N_3
REMARK    3  A    between atoms: C_7  and  O_8
REMARK    4  A    between atoms: O_8  and  C_9
REMARK    5  A    between atoms: N_17  and  C_18
REMARK    6  A    between atoms: C_23  and  C_24
REMARK    7  A    between atoms: N_29  and  C_30
REMARK                            x       y       z     vdW  Elec       q    Type
REMARK                         _______ _______ _______ _____ _____    ______ ____
ROOT
ATOM      1  C   UNL     1       1.944   7.713  19.453  0.00  0.00    +0.000 A 
ATOM      2  C   UNL     1       1.643   6.606  20.254  0.00  0.00    +0.000 A 
ATOM      3  C   UNL     1       2.312   5.388  20.098  0.00  0.00    +0.000 A 
ATOM      4  C   UNL     1       3.261   5.311  19.074  0.00  0.00    +0.000 A 
ATOM      5  C   UNL     1       3.529   6.373  18.222  0.00  0.00    +0.000 A 
ATOM      6  C   UNL     1       2.874   7.598  18.410  0.00  0.00    +0.000 A 
ATOM      7  N   UNL     1       4.436   6.003  17.266  0.00  0.00    +0.000 NA
ATOM      8  C   UNL     1       4.740   4.742  17.494  0.00  0.00    +0.000 A 
ATOM      9  N   UNL     1       5.556   3.936  16.762  0.00  0.00    +0.000 N 
ATOM     10  N   UNL     1       4.107   4.310  18.644  0.00  0.00    +0.000 N 
ATOM     11  C   UNL     1       4.235   3.037  19.311  0.00  0.00    +0.000 C 
ATOM     12  H   UNL     1       5.867   3.046  17.125  0.00  0.00    +0.000 HD
ENDROOT
BRANCH   9  13
ATOM     13  C   UNL     1       5.986   4.180  15.436  0.00  0.00    +0.000 A 
ATOM     14  C   UNL     1       7.181   4.838  15.133  0.00  0.00    +0.000 A 
ATOM     15  C   UNL     1       7.613   4.998  13.815  0.00  0.00    +0.000 A 
ATOM     16  C   UNL     1       6.866   4.487  12.754  0.00  0.00    +0.000 A 
ATOM     17 CL   UNL     1       7.512   4.735  11.174  0.00  0.00    +0.000 Cl
ATOM     18  C   UNL     1       5.668   3.813  13.007  0.00  0.00    +0.000 A 
ATOM     19  C   UNL     1       5.238   3.680  14.355  0.00  0.00    +0.000 A 
BRANCH  18  20
ATOM     20  C   UNL     1       4.801   3.203  11.936  0.00  0.00    +0.000 C 
ATOM     21  F   UNL     1       5.227   2.031  11.397  0.00  0.00    +0.000 F 
ATOM     22  F   UNL     1       3.541   2.946  12.395  0.00  0.00    +0.000 F 
ATOM     23  F   UNL     1       4.631   4.050  10.880  0.00  0.00    +0.000 F 
ENDBRANCH  18  20
ENDBRANCH   9  13
BRANCH   1  24
ATOM     24  O   UNL     1       1.304   8.928  19.549  0.00  0.00    +0.000 OA
BRANCH  24  29
ATOM     25  N   UNL     1      -1.224  11.903  21.973  0.00  0.00    +0.000 N 
ATOM     26  N   UNL     1      -1.427  12.221  20.671  0.00  0.00    +0.000 NA
ATOM     27  C   UNL     1      -0.681  11.324  20.014  0.00  0.00    +0.000 A 
ATOM     28  C   UNL     1      -0.015  10.437  20.878  0.00  0.00    +0.000 A 
ATOM     29  C   UNL     1       0.852   9.354  20.790  0.00  0.00    +0.000 A 
ATOM     30  N   UNL     1       1.297   8.766  21.930  0.00  0.00    +0.000 NA
ATOM     31  C   UNL     1       0.833   9.238  23.103  0.00  0.00    +0.000 A 
ATOM     32  N   UNL     1      -0.017  10.260  23.309  0.00  0.00    +0.000 NA
ATOM     33  C   UNL     1      -0.396  10.827  22.148  0.00  0.00    +0.000 A 
BRANCH  25  35
ATOM     34  C   UNL     1      -3.162  12.177  23.474  0.00  0.00    +0.000 C 
ATOM     35  C   UNL     1      -1.820  12.715  23.015  0.00  0.00    +0.000 C 
ENDBRANCH  25  35
ENDBRANCH  24  29
ENDBRANCH   1  24
TORSDOF 5
ENDMDL
MODEL 2
REMARK VINA RESULT:      -9.1      1.475      2.069
REMARK  Name = 
REMARK  7 active torsions:
REMARK  status: ('A' for Active; 'I' for Inactive)
REMARK    1  A    between atoms: C_1  and  C_2
REMARK    2  A    between atoms: C_2  and  N_3
REMARK    3  A    between atoms: C_7  and  O_8
REMARK    4  A    between atoms: O_8  and  C_9
REMARK    5  A    between atoms: N_17  and  C_18
REMARK    6  A    between atoms: C_23  and  C_24
REMARK    7  A    between atoms: N_29  and  C_30
REMARK                            x       y       z     vdW  Elec       q    Type
REMARK                         _______ _______ _______ _____ _____    ______ ____
ROOT
ATOM      1  C   UNL     1       1.830   6.648  20.608  0.00  0.00    +0.000 A 
ATOM      2  C   UNL     1       1.107   5.469  20.819  0.00  0.00    +0.000 A 
ATOM      3  C   UNL     1       1.485   4.263  20.219  0.00  0.00    +0.000 A 
ATOM      4  C   UNL     1       2.588   4.300  19.359  0.00  0.00    +0.000 A 
ATOM      5  C   UNL     1       3.279   5.470  19.081  0.00  0.00    +0.000 A 
ATOM      6  C   UNL     1       2.910   6.665  19.714  0.00  0.00    +0.000 A 
ATOM      7  N   UNL     1       4.257   5.238  18.152  0.00  0.00    +0.000 NA
ATOM      8  C   UNL     1       4.196   3.959  17.841  0.00  0.00    +0.000 A 
ATOM      9  N   UNL     1       4.935   3.290  16.917  0.00  0.00    +0.000 N 
ATOM     10  N   UNL     1       3.244   3.335  18.625  0.00  0.00    +0.000 N 
ATOM     11  C   UNL     1       2.917   1.931  18.685  0.00  0.00    +0.000 C 
ATOM     12  H   UNL     1       4.940   2.281  16.888  0.00  0.00    +0.000 HD
ENDROOT
BRANCH   9  13
ATOM     13  C   UNL     1       5.689   3.882  15.875  0.00  0.00    +0.000 A 
ATOM     14  C   UNL     1       6.647   4.875  16.098  0.00  0.00    +0.000 A 
ATOM     15  C   UNL     1       7.425   5.385  15.057  0.00  0.00    +0.000 A 
ATOM     16  C   UNL     1       7.280   4.904  13.756  0.00  0.00    +0.000 A 
ATOM     17 CL   UNL     1       8.309   5.603  12.562  0.00  0.00    +0.000 Cl
ATOM     18  C   UNL     1       6.342   3.904  13.485  0.00  0.00    +0.000 A 
ATOM     19  C   UNL     1       5.546   3.414  14.556  0.00  0.00    +0.000 A 
BRANCH  18  20
ATOM     20  C   UNL     1       6.125   3.299  12.122  0.00  0.00    +0.000 C 
ATOM     21  F   UNL     1       5.603   2.045  12.085  0.00  0.00    +0.000 F 
ATOM     22  F   UNL     1       5.282   4.058  11.364  0.00  0.00    +0.000 F 
ATOM     23  F   UNL     1       7.286   3.232  11.408  0.00  0.00    +0.000 F 
ENDBRANCH  18  20
ENDBRANCH   9  13
BRANCH   1  24
ATOM     24  O   UNL     1       1.492   7.865  21.156  0.00  0.00    +0.000 OA
BRANCH  24  29
ATOM     25  N   UNL     1      -1.062  11.653  20.662  0.00  0.00    +0.000 N 
ATOM     26  N   UNL     1      -1.138  11.325  21.975  0.00  0.00    +0.000 NA
ATOM     27  C   UNL     1      -0.374  10.230  22.064  0.00  0.00    +0.000 A 
ATOM     28  C   UNL     1       0.192   9.862  20.831  0.00  0.00    +0.000 A 
ATOM     29  C   UNL     1       1.026   8.873  20.323  0.00  0.00    +0.000 A 
ATOM     30  N   UNL     1       1.323   8.870  18.999  0.00  0.00    +0.000 NA
ATOM     31  C   UNL     1       0.827   9.867  18.242  0.00  0.00    +0.000 A 
ATOM     32  N   UNL     1       0.030  10.882  18.624  0.00  0.00    +0.000 NA
ATOM     33  C   UNL     1      -0.260  10.814  19.936  0.00  0.00    +0.000 A 
BRANCH  25  35
ATOM     34  C   UNL     1      -1.113  14.093  20.306  0.00  0.00    +0.000 C 
ATOM     35  C   UNL     1      -1.834  12.768  20.151  0.00  0.00    +0.000 C 
ENDBRANCH  25  35
ENDBRANCH  24  29
ENDBRANCH   1  24
TORSDOF 5
ENDMDL
MODEL 3
REMARK VINA RESULT:      -9.0      4.821      7.486
REMARK  Name = 
REMARK  7 active torsions:
REMARK  status: ('A' for Active; 'I' for Inactive)
REMARK    1  A    between atoms: C_1  and  C_2
REMARK    2  A    between atoms: C_2  and  N_3
REMARK    3  A    between atoms: C_7  and  O_8
REMARK    4  A    between atoms: O_8  and  C_9
REMARK    5  A    between atoms: N_17  and  C_18
REMARK    6  A    between atoms: C_23  and  C_24
REMARK    7  A    between atoms: N_29  and  C_30
REMARK                            x       y       z     vdW  Elec       q    Type
REMARK                         _______ _______ _______ _____ _____    ______ ____
ROOT
ATOM      1  C   UNL     1       0.113  13.142  19.579  0.00  0.00    +0.000 A 
ATOM      2  C   UNL     1      -0.518  13.187  20.827  0.00  0.00    +0.000 A 
ATOM      3  C   UNL     1      -0.448  12.112  21.719  0.00  0.00    +0.000 A 
ATOM      4  C   UNL     1       0.238  10.972  21.288  0.00  0.00    +0.000 A 
ATOM      5  C   UNL     1       0.814  10.879  20.029  0.00  0.00    +0.000 A 
ATOM      6  C   UNL     1       0.765  11.975  19.157  0.00  0.00    +0.000 A 
ATOM      7  N   UNL     1       1.349   9.633  19.839  0.00  0.00    +0.000 NA
ATOM      8  C   UNL     1       1.122   8.946  20.940  0.00  0.00    +0.000 A 
ATOM      9  N   UNL     1       1.421   7.642  21.186  0.00  0.00    +0.000 N 
ATOM     10  N   UNL     1       0.522   9.761  21.882  0.00  0.00    +0.000 N 
ATOM     11  C   UNL     1       0.189   9.449  23.251  0.00  0.00    +0.000 C 
ATOM     12  H   UNL     1       1.374   7.266  22.122  0.00  0.00    +0.000 HD
ENDROOT
BRANCH   9  13
ATOM     13  C   UNL     1       1.738   6.668  20.209  0.00  0.00    +0.000 A 
ATOM     14  C   UNL     1       2.495   6.952  19.069  0.00  0.00    +0.000 A 
ATOM     15  C   UNL     1       2.852   5.952  18.162  0.00  0.00    +0.000 A 
ATOM     16  C   UNL     1       2.473   4.627  18.377  0.00  0.00    +0.000 A 
ATOM     17 CL   UNL     1       2.988   3.483  17.193  0.00  0.00    +0.000 Cl
ATOM     18  C   UNL     1       1.723   4.293  19.507  0.00  0.00    +0.000 A 
ATOM     19  C   UNL     1       1.354   5.330  20.406  0.00  0.00    +0.000 A 
BRANCH  18  20
ATOM     20  C   UNL     1       1.285   2.890  19.843  0.00  0.00    +0.000 C 
ATOM     21  F   UNL     1       0.337   2.336  19.044  0.00  0.00    +0.000 F 
ATOM     22  F   UNL     1       2.333   2.016  19.810  0.00  0.00    +0.000 F 
ATOM     23  F   UNL     1       0.789   2.806  21.111  0.00  0.00    +0.000 F 
ENDBRANCH  18  20
ENDBRANCH   9  13
BRANCH   1  24
ATOM     24  O   UNL     1       0.061  14.162  18.654  0.00  0.00    +0.000 OA
BRANCH  24  29
ATOM     25  N   UNL     1       4.227  16.100  18.587  0.00  0.00    +0.000 N 
ATOM     26  N   UNL     1       4.401  14.835  18.133  0.00  0.00    +0.000 NA
ATOM     27  C   UNL     1       3.164  14.323  18.164  0.00  0.00    +0.000 A 
ATOM     28  C   UNL     1       2.207  15.246  18.622  0.00  0.00    +0.000 A 
ATOM     29  C   UNL     1       0.838  15.294  18.857  0.00  0.00    +0.000 A 
ATOM     30  N   UNL     1       0.288  16.435  19.346  0.00  0.00    +0.000 NA
ATOM     31  C   UNL     1       1.100  17.492  19.536  0.00  0.00    +0.000 A 
ATOM     32  N   UNL     1       2.427  17.569  19.326  0.00  0.00    +0.000 NA
ATOM     33  C   UNL     1       2.923  16.401  18.877  0.00  0.00    +0.000 A 
BRANCH  25  35
ATOM     34  C   UNL     1       6.644  16.190  19.070  0.00  0.00    +0.000 C 
ATOM     35  C   UNL     1       5.375  16.965  18.770  0.00  0.00    +0.000 C 
ENDBRANCH  25  35
ENDBRANCH  24  29
ENDBRANCH   1  24
TORSDOF 5
ENDMDL
MODEL 4
REMARK VINA RESULT:      -9.0      6.273     11.660
REMARK  Name = 
REMARK  7 active torsions:
REMARK  status: ('A' for Active; 'I' for Inactive)
REMARK    1  A    between atoms: C_1  and  C_2
REMARK    2  A    between atoms: C_2  and  N_3
REMARK    3  A    between atoms: C_7  and  O_8
REMARK    4  A    between atoms: O_8  and  C_9
REMARK    5  A    between atoms: N_17  and  C_18
REMARK    6  A    between atoms: C_23  and  C_24
REMARK    7  A    between atoms: N_29  and  C_30
REMARK                            x       y       z     vdW  Elec       q    Type
REMARK                         _______ _______ _______ _____ _____    ______ ____
ROOT
ATOM      1  C   UNL     1       2.076   7.643  19.653  0.00  0.00    +0.000 A 
ATOM      2  C   UNL     1       2.400   8.266  18.442  0.00  0.00    +0.000 A 
ATOM      3  C   UNL     1       1.946   9.553  18.139  0.00  0.00    +0.000 A 
ATOM      4  C   UNL     1       1.114  10.171  19.078  0.00  0.00    +0.000 A 
ATOM      5  C   UNL     1       0.723   9.548  20.254  0.00  0.00    +0.000 A 
ATOM      6  C   UNL     1       1.211   8.271  20.561  0.00  0.00    +0.000 A 
ATOM      7  N   UNL     1      -0.151  10.341  20.948  0.00  0.00    +0.000 NA
ATOM      8  C   UNL     1      -0.319  11.439  20.239  0.00  0.00    +0.000 A 
ATOM      9  N   UNL     1      -1.145  12.485  20.506  0.00  0.00    +0.000 N 
ATOM     10  N   UNL     1       0.507  11.408  19.131  0.00  0.00    +0.000 N 
ATOM     11  C   UNL     1       0.714  12.439  18.143  0.00  0.00    +0.000 C 
ATOM     12  H   UNL     1      -1.062  13.355  20.000  0.00  0.00    +0.000 HD
ENDROOT
BRANCH   9  13
ATOM     13  C   UNL     1      -2.228  12.471  21.417  0.00  0.00    +0.000 A 
ATOM     14  C   UNL     1      -2.056  12.401  22.803  0.00  0.00    +0.000 A 
ATOM     15  C   UNL     1      -3.143  12.464  23.678  0.00  0.00    +0.000 A 
ATOM     16  C   UNL     1      -4.441  12.616  23.191  0.00  0.00    +0.000 A 
ATOM     17 CL   UNL     1      -5.696  12.696  24.372  0.00  0.00    +0.000 Cl
ATOM     18  C   UNL     1      -4.663  12.700  21.814  0.00  0.00    +0.000 A 
ATOM     19  C   UNL     1      -3.544  12.613  20.942  0.00  0.00    +0.000 A 
BRANCH  18  20
ATOM     20  C   UNL     1      -6.021  12.890  21.189  0.00  0.00    +0.000 C 
ATOM     21  F   UNL     1      -6.066  12.965  19.834  0.00  0.00    +0.000 F 
ATOM     22  F   UNL     1      -6.872  11.873  21.518  0.00  0.00    +0.000 F 
ATOM     23  F   UNL     1      -6.630  14.025  21.638  0.00  0.00    +0.000 F 
ENDBRANCH  18  20
ENDBRANCH   9  13
BRANCH   1  24
ATOM     24  O   UNL     1       2.478   6.371  19.995  0.00  0.00    +0.000 OA
BRANCH  24  29
ATOM     25  N   UNL     1       5.283   4.474  16.889  0.00  0.00    +0.000 N 
ATOM     26  N   UNL     1       6.033   5.384  17.557  0.00  0.00    +0.000 NA
ATOM     27  C   UNL     1       5.176   5.896  18.449  0.00  0.00    +0.000 A 
ATOM     28  C   UNL     1       3.896   5.319  18.364  0.00  0.00    +0.000 A 
ATOM     29  C   UNL     1       2.661   5.431  18.990  0.00  0.00    +0.000 A 
ATOM     30  N   UNL     1       1.628   4.660  18.564  0.00  0.00    +0.000 NA
ATOM     31  C   UNL     1       1.868   3.779  17.574  0.00  0.00    +0.000 A 
ATOM     32  N   UNL     1       3.019   3.570  16.910  0.00  0.00    +0.000 NA
ATOM     33  C   UNL     1       3.996   4.385  17.349  0.00  0.00    +0.000 A 
BRANCH  25  35
ATOM     34  C   UNL     1       5.679   4.481  14.454  0.00  0.00    +0.000 C 
ATOM     35  C   UNL     1       5.854   3.749  15.772  0.00  0.00    +0.000 C 
ENDBRANCH  25  35
ENDBRANCH  24  29
ENDBRANCH   1  24
TORSDOF 5
ENDMDL
MODEL 5
REMARK VINA RESULT:      -8.7      3.693      6.269
REMARK  Name = 
REMARK  7 active torsions:
REMARK  status: ('A' for Active; 'I' for Inactive)
REMARK    1  A    between atoms: C_1  and  C_2
REMARK    2  A    between atoms: C_2  and  N_3
REMARK    3  A    between atoms: C_7  and  O_8
REMARK    4  A    between atoms: O_8  and  C_9
REMARK    5  A    between atoms: N_17  and  C_18
REMARK    6  A    between atoms: C_23  and  C_24
REMARK    7  A    between atoms: N_29  and  C_30
REMARK                            x       y       z     vdW  Elec       q    Type
REMARK                         _______ _______ _______ _____ _____    ______ ____
ROOT
ATOM      1  C   UNL     1      -1.006  11.680  19.394  0.00  0.00    +0.000 A 
ATOM      2  C   UNL     1      -0.975  12.015  20.752  0.00  0.00    +0.000 A 
ATOM      3  C   UNL     1      -0.246  11.257  21.675  0.00  0.00    +0.000 A 
ATOM      4  C   UNL     1       0.411  10.123  21.187  0.00  0.00    +0.000 A 
ATOM      5  C   UNL     1       0.339   9.732  19.858  0.00  0.00    +0.000 A 
ATOM      6  C   UNL     1      -0.368  10.518  18.938  0.00  0.00    +0.000 A 
ATOM      7  N   UNL     1       1.003   8.550  19.670  0.00  0.00    +0.000 NA
ATOM      8  C   UNL     1       1.484   8.190  20.843  0.00  0.00    +0.000 A 
ATOM      9  N   UNL     1       2.163   7.053  21.151  0.00  0.00    +0.000 N 
ATOM     10  N   UNL     1       1.217   9.172  21.777  0.00  0.00    +0.000 N 
ATOM     11  C   UNL     1       1.642   9.235  23.154  0.00  0.00    +0.000 C 
ATOM     12  H   UNL     1       2.647   6.960  22.033  0.00  0.00    +0.000 HD
ENDROOT
BRANCH   9  13
ATOM     13  C   UNL     1       2.210   5.878  20.363  0.00  0.00    +0.000 A 
ATOM     14  C   UNL     1       1.256   4.861  20.456  0.00  0.00    +0.000 A 
ATOM     15  C   UNL     1       1.290   3.749  19.612  0.00  0.00    +0.000 A 
ATOM     16  C   UNL     1       2.276   3.627  18.633  0.00  0.00    +0.000 A 
ATOM     17 CL   UNL     1       2.202   2.216  17.644  0.00  0.00    +0.000 Cl
ATOM     18  C   UNL     1       3.247   4.623  18.495  0.00  0.00    +0.000 A 
ATOM     19  C   UNL     1       3.205   5.736  19.379  0.00  0.00    +0.000 A 
BRANCH  18  20
ATOM     20  C   UNL     1       4.337   4.600  17.456  0.00  0.00    +0.000 C 
ATOM     21  F   UNL     1       5.303   3.655  17.602  0.00  0.00    +0.000 F 
ATOM     22  F   UNL     1       3.833   4.401  16.203  0.00  0.00    +0.000 F 
ATOM     23  F   UNL     1       4.999   5.791  17.390  0.00  0.00    +0.000 F 
ENDBRANCH  18  20
ENDBRANCH   9  13
BRANCH   1  24
ATOM     24  O   UNL     1      -1.722  12.378  18.447  0.00  0.00    +0.000 OA
BRANCH  24  29
ATOM     25  N   UNL     1      -6.093  11.943  19.797  0.00  0.00    +0.000 N 
ATOM     26  N   UNL     1      -5.453  12.570  20.814  0.00  0.00    +0.000 NA
ATOM     27  C   UNL     1      -4.196  12.679  20.367  0.00  0.00    +0.000 A 
ATOM     28  C   UNL     1      -4.029  12.139  19.079  0.00  0.00    +0.000 A 
ATOM     29  C   UNL     1      -3.014  11.970  18.145  0.00  0.00    +0.000 A 
ATOM     30  N   UNL     1      -3.289  11.346  16.972  0.00  0.00    +0.000 NA
ATOM     31  C   UNL     1      -4.559  10.960  16.748  0.00  0.00    +0.000 A 
ATOM     32  N   UNL     1      -5.622  11.087  17.564  0.00  0.00    +0.000 NA
ATOM     33  C   UNL     1      -5.284  11.679  18.724  0.00  0.00    +0.000 A 
BRANCH  25  35
ATOM     34  C   UNL     1      -7.666  10.224  20.606  0.00  0.00    +0.000 C 
ATOM     35  C   UNL     1      -7.487  11.575  19.940  0.00  0.00    +0.000 C 
ENDBRANCH  25  35
ENDBRANCH  24  29
ENDBRANCH   1  24
TORSDOF 5
ENDMDL
MODEL 6
REMARK VINA RESULT:      -8.6      4.616      7.222
REMARK  Name = 
REMARK  7 active torsions:
REMARK  status: ('A' for Active; 'I' for Inactive)
REMARK    1  A    between atoms: C_1  and  C_2
REMARK    2  A    between atoms: C_2  and  N_3
REMARK    3  A    between atoms: C_7  and  O_8
REMARK    4  A    between atoms: O_8  and  C_9
REMARK    5  A    between atoms: N_17  and  C_18
REMARK    6  A    between atoms: C_23  and  C_24
REMARK    7  A    between atoms: N_29  and  C_30
REMARK                            x       y       z     vdW  Elec       q    Type
REMARK                         _______ _______ _______ _____ _____    ______ ____
ROOT
ATOM      1  C   UNL     1      -1.930  12.107  20.741  0.00  0.00    +0.000 A 
ATOM      2  C   UNL     1      -1.864  12.142  22.138  0.00  0.00    +0.000 A 
ATOM      3  C   UNL     1      -1.010  11.293  22.850  0.00  0.00    +0.000 A 
ATOM      4  C   UNL     1      -0.262  10.375  22.106  0.00  0.00    +0.000 A 
ATOM      5  C   UNL     1      -0.362  10.275  20.726  0.00  0.00    +0.000 A 
ATOM      6  C   UNL     1      -1.197  11.153  20.022  0.00  0.00    +0.000 A 
ATOM      7  N   UNL     1       0.415   9.246  20.264  0.00  0.00    +0.000 NA
ATOM      8  C   UNL     1       0.993   8.700  21.315  0.00  0.00    +0.000 A 
ATOM      9  N   UNL     1       1.806   7.610  21.346  0.00  0.00    +0.000 N 
ATOM     10  N   UNL     1       0.671   9.420  22.450  0.00  0.00    +0.000 N 
ATOM     11  C   UNL     1       1.159   9.233  23.795  0.00  0.00    +0.000 C 
ATOM     12  H   UNL     1       2.343   7.387  22.172  0.00  0.00    +0.000 HD
ENDROOT
BRANCH   9  13
ATOM     13  C   UNL     1       1.937   6.647  20.318  0.00  0.00    +0.000 A 
ATOM     14  C   UNL     1       2.537   6.926  19.087  0.00  0.00    +0.000 A 
ATOM     15  C   UNL     1       2.718   5.934  18.121  0.00  0.00    +0.000 A 
ATOM     16  C   UNL     1       2.316   4.621  18.365  0.00  0.00    +0.000 A 
ATOM     17 CL   UNL     1       2.607   3.484  17.100  0.00  0.00    +0.000 Cl
ATOM     18  C   UNL     1       1.719   4.291  19.585  0.00  0.00    +0.000 A 
ATOM     19  C   UNL     1       1.527   5.321  20.545  0.00  0.00    +0.000 A 
BRANCH  18  20
ATOM     20  C   UNL     1       1.274   2.900  19.956  0.00  0.00    +0.000 C 
ATOM     21  F   UNL     1       0.795   2.726  21.215  0.00  0.00    +0.000 F 
ATOM     22  F   UNL     1       0.280   2.454  19.133  0.00  0.00    +0.000 F 
ATOM     23  F   UNL     1       2.284   1.993  19.821  0.00  0.00    +0.000 F 
ENDBRANCH  18  20
ENDBRANCH   9  13
BRANCH   1  24
ATOM     24  O   UNL     1      -2.766  12.904  19.991  0.00  0.00    +0.000 OA
BRANCH  24  29
ATOM     25  N   UNL     1      -3.624  10.632  16.090  0.00  0.00    +0.000 N 
ATOM     26  N   UNL     1      -2.278  10.784  16.141  0.00  0.00    +0.000 NA
ATOM     27  C   UNL     1      -2.084  11.438  17.292  0.00  0.00    +0.000 A 
ATOM     28  C   UNL     1      -3.285  11.696  17.978  0.00  0.00    +0.000 A 
ATOM     29  C   UNL     1      -3.699  12.304  19.157  0.00  0.00    +0.000 A 
ATOM     30  N   UNL     1      -5.024  12.357  19.446  0.00  0.00    +0.000 NA
ATOM     31  C   UNL     1      -5.879  11.769  18.588  0.00  0.00    +0.000 A 
ATOM     32  N   UNL     1      -5.594  11.139  17.433  0.00  0.00    +0.000 NA
ATOM     33  C   UNL     1      -4.272  11.148  17.181  0.00  0.00    +0.000 A 
BRANCH  25  35
ATOM     34  C   UNL     1      -3.353  10.092  13.698  0.00  0.00    +0.000 C 
ATOM     35  C   UNL     1      -4.237  10.020  14.929  0.00  0.00    +0.000 C 
ENDBRANCH  25  35
ENDBRANCH  24  29
ENDBRANCH   1  24
TORSDOF 5
ENDMDL
MODEL 7
REMARK VINA RESULT:      -8.5      7.192     12.054
REMARK  Name = 
REMARK  7 active torsions:
REMARK  status: ('A' for Active; 'I' for Inactive)
REMARK    1  A    between atoms: C_1  and  C_2
REMARK    2  A    between atoms: C_2  and  N_3
REMARK    3  A    between atoms: C_7  and  O_8
REMARK    4  A    between atoms: O_8  and  C_9
REMARK    5  A    between atoms: N_17  and  C_18
REMARK    6  A    between atoms: C_23  and  C_24
REMARK    7  A    between atoms: N_29  and  C_30
REMARK                            x       y       z     vdW  Elec       q    Type
REMARK                         _______ _______ _______ _____ _____    ______ ____
ROOT
ATOM      1  C   UNL     1       1.410   8.820  19.960  0.00  0.00    +0.000 A 
ATOM      2  C   UNL     1       1.952   9.523  18.879  0.00  0.00    +0.000 A 
ATOM      3  C   UNL     1       1.409  10.740  18.453  0.00  0.00    +0.000 A 
ATOM      4  C   UNL     1       0.270  11.197  19.123  0.00  0.00    +0.000 A 
ATOM      5  C   UNL     1      -0.326  10.484  20.153  0.00  0.00    +0.000 A 
ATOM      6  C   UNL     1       0.246   9.282  20.592  0.00  0.00    +0.000 A 
ATOM      7  N   UNL     1      -1.465  11.116  20.575  0.00  0.00    +0.000 NA
ATOM      8  C   UNL     1      -1.598  12.200  19.838  0.00  0.00    +0.000 A 
ATOM      9  N   UNL     1      -2.614  13.103  19.861  0.00  0.00    +0.000 N 
ATOM     10  N   UNL     1      -0.508  12.328  18.999  0.00  0.00    +0.000 N 
ATOM     11  C   UNL     1      -0.197  13.411  18.097  0.00  0.00    +0.000 C 
ATOM     12  H   UNL     1      -2.528  13.992  19.389  0.00  0.00    +0.000 HD
ENDROOT
BRANCH   9  13
ATOM     13  C   UNL     1      -3.889  12.900  20.441  0.00  0.00    +0.000 A 
ATOM     14  C   UNL     1      -4.953  12.314  19.752  0.00  0.00    +0.000 A 
ATOM     15  C   UNL     1      -6.177  12.060  20.376  0.00  0.00    +0.000 A 
ATOM     16  C   UNL     1      -6.367  12.372  21.722  0.00  0.00    +0.000 A 
ATOM     17 CL   UNL     1      -7.916  11.996  22.382  0.00  0.00    +0.000 Cl
ATOM     18  C   UNL     1      -5.329  12.951  22.456  0.00  0.00    +0.000 A 
ATOM     19  C   UNL     1      -4.100  13.219  21.794  0.00  0.00    +0.000 A 
BRANCH  18  20
ATOM     20  C   UNL     1      -5.425  13.303  23.919  0.00  0.00    +0.000 C 
ATOM     21  F   UNL     1      -6.549  13.950  24.321  0.00  0.00    +0.000 F 
ATOM     22  F   UNL     1      -5.352  12.191  24.708  0.00  0.00    +0.000 F 
ATOM     23  F   UNL     1      -4.386  14.092  24.318  0.00  0.00    +0.000 F 
ENDBRANCH  18  20
ENDBRANCH   9  13
BRANCH   1  24
ATOM     24  O   UNL     1       1.891   7.610  20.409  0.00  0.00    +0.000 OA
BRANCH  24  29
ATOM     25  N   UNL     1       1.895   3.262  18.922  0.00  0.00    +0.000 N 
ATOM     26  N   UNL     1       1.034   3.294  19.968  0.00  0.00    +0.000 NA
ATOM     27  C   UNL     1       1.063   4.575  20.353  0.00  0.00    +0.000 A 
ATOM     28  C   UNL     1       1.923   5.360  19.563  0.00  0.00    +0.000 A 
ATOM     29  C   UNL     1       2.345   6.682  19.483  0.00  0.00    +0.000 A 
ATOM     30  N   UNL     1       3.249   7.033  18.534  0.00  0.00    +0.000 NA
ATOM     31  C   UNL     1       3.661   6.081  17.676  0.00  0.00    +0.000 A 
ATOM     32  N   UNL     1       3.310   4.782  17.645  0.00  0.00    +0.000 NA
ATOM     33  C   UNL     1       2.441   4.483  18.628  0.00  0.00    +0.000 A 
BRANCH  25  35
ATOM     34  C   UNL     1       3.586   1.497  18.593  0.00  0.00    +0.000 C 
ATOM     35  C   UNL     1       2.192   2.003  18.270  0.00  0.00    +0.000 C 
ENDBRANCH  25  35
ENDBRANCH  24  29
ENDBRANCH   1  24
TORSDOF 5
ENDMDL
MODEL 8
REMARK VINA RESULT:      -8.5      3.866      6.555
REMARK  Name = 
REMARK  7 active torsions:
REMARK  status: ('A' for Active; 'I' for Inactive)
REMARK    1  A    between atoms: C_1  and  C_2
REMARK    2  A    between atoms: C_2  and  N_3
REMARK    3  A    between atoms: C_7  and  O_8
REMARK    4  A    between atoms: O_8  and  C_9
REMARK    5  A    between atoms: N_17  and  C_18
REMARK    6  A    between atoms: C_23  and  C_24
REMARK    7  A    between atoms: N_29  and  C_30
REMARK                            x       y       z     vdW  Elec       q    Type
REMARK                         _______ _______ _______ _____ _____    ______ ____
ROOT
ATOM      1  C   UNL     1      -0.806  11.788  22.466  0.00  0.00    +0.000 A 
ATOM      2  C   UNL     1      -0.255  12.774  21.640  0.00  0.00    +0.000 A 
ATOM      3  C   UNL     1       0.494  12.442  20.506  0.00  0.00    +0.000 A 
ATOM      4  C   UNL     1       0.708  11.082  20.262  0.00  0.00    +0.000 A 
ATOM      5  C   UNL     1       0.230  10.088  21.104  0.00  0.00    +0.000 A 
ATOM      6  C   UNL     1      -0.546  10.432  22.219  0.00  0.00    +0.000 A 
ATOM      7  N   UNL     1       0.650   8.857  20.676  0.00  0.00    +0.000 NA
ATOM      8  C   UNL     1       1.377   9.053  19.595  0.00  0.00    +0.000 A 
ATOM      9  N   UNL     1       2.049   8.125  18.863  0.00  0.00    +0.000 N 
ATOM     10  N   UNL     1       1.362  10.394  19.261  0.00  0.00    +0.000 N 
ATOM     11  C   UNL     1       1.942  11.034  18.105  0.00  0.00    +0.000 C 
ATOM     12  H   UNL     1       2.421   8.353  17.952  0.00  0.00    +0.000 HD
ENDROOT
BRANCH   9  13
ATOM     13  C   UNL     1       2.377   6.815  19.289  0.00  0.00    +0.000 A 
ATOM     14  C   UNL     1       1.848   6.237  20.446  0.00  0.00    +0.000 A 
ATOM     15  C   UNL     1       2.134   4.916  20.798  0.00  0.00    +0.000 A 
ATOM     16  C   UNL     1       2.949   4.124  19.990  0.00  0.00    +0.000 A 
ATOM     17 CL   UNL     1       3.215   2.506  20.525  0.00  0.00    +0.000 Cl
ATOM     18  C   UNL     1       3.494   4.655  18.818  0.00  0.00    +0.000 A 
ATOM     19  C   UNL     1       3.206   6.008  18.490  0.00  0.00    +0.000 A 
BRANCH  18  20
ATOM     20  C   UNL     1       4.365   3.877  17.865  0.00  0.00    +0.000 C 
ATOM     21  F   UNL     1       3.934   2.638  17.514  0.00  0.00    +0.000 F 
ATOM     22  F   UNL     1       4.537   4.542  16.685  0.00  0.00    +0.000 F 
ATOM     23  F   UNL     1       5.623   3.699  18.361  0.00  0.00    +0.000 F 
ENDBRANCH  18  20
ENDBRANCH   9  13
BRANCH   1  24
ATOM     24  O   UNL     1      -1.533  12.057  23.604  0.00  0.00    +0.000 OA
BRANCH  24  29
ATOM     25  N   UNL     1      -3.890  15.847  24.696  0.00  0.00    +0.000 N 
ATOM     26  N   UNL     1      -2.660  16.007  25.244  0.00  0.00    +0.000 NA
ATOM     27  C   UNL     1      -2.017  14.887  24.889  0.00  0.00    +0.000 A 
ATOM     28  C   UNL     1      -2.816  14.024  24.118  0.00  0.00    +0.000 A 
ATOM     29  C   UNL     1      -2.708  12.787  23.494  0.00  0.00    +0.000 A 
ATOM     30  N   UNL     1      -3.781  12.279  22.837  0.00  0.00    +0.000 NA
ATOM     31  C   UNL     1      -4.897  13.031  22.781  0.00  0.00    +0.000 A 
ATOM     32  N   UNL     1      -5.111  14.243  23.326  0.00  0.00    +0.000 NA
ATOM     33  C   UNL     1      -4.027  14.680  23.994  0.00  0.00    +0.000 A 
BRANCH  25  35
ATOM     34  C   UNL     1      -4.343  18.189  25.325  0.00  0.00    +0.000 C 
ATOM     35  C   UNL     1      -4.917  16.842  24.929  0.00  0.00    +0.000 C 
ENDBRANCH  25  35
ENDBRANCH  24  29
ENDBRANCH   1  24
TORSDOF 5
ENDMDL
MODEL 9
REMARK VINA RESULT:      -8.5      6.720     11.960
REMARK  Name = 
REMARK  7 active torsions:
REMARK  status: ('A' for Active; 'I' for Inactive)
REMARK    1  A    between atoms: C_1  and  C_2
REMARK    2  A    between atoms: C_2  and  N_3
REMARK    3  A    between atoms: C_7  and  O_8
REMARK    4  A    between atoms: O_8  and  C_9
REMARK    5  A    between atoms: N_17  and  C_18
REMARK    6  A    between atoms: C_23  and  C_24
REMARK    7  A    between atoms: N_29  and  C_30
REMARK                            x       y       z     vdW  Elec       q    Type
REMARK                         _______ _______ _______ _____ _____    ______ ____
ROOT
ATOM      1  C   UNL     1       1.388   8.518  19.998  0.00  0.00    +0.000 A 
ATOM      2  C   UNL     1       1.694   9.150  18.787  0.00  0.00    +0.000 A 
ATOM      3  C   UNL     1       1.147  10.393  18.454  0.00  0.00    +0.000 A 
ATOM      4  C   UNL     1       0.242  10.953  19.362  0.00  0.00    +0.000 A 
ATOM      5  C   UNL     1      -0.129  10.315  20.536  0.00  0.00    +0.000 A 
ATOM      6  C   UNL     1       0.451   9.085  20.874  0.00  0.00    +0.000 A 
ATOM      7  N   UNL     1      -1.082  11.043  21.195  0.00  0.00    +0.000 NA
ATOM      8  C   UNL     1      -1.319  12.115  20.467  0.00  0.00    +0.000 A 
ATOM      9  N   UNL     1      -2.234  13.094  20.697  0.00  0.00    +0.000 N 
ATOM     10  N   UNL     1      -0.464  12.138  19.381  0.00  0.00    +0.000 N 
ATOM     11  C   UNL     1      -0.312  13.170  18.385  0.00  0.00    +0.000 C 
ATOM     12  H   UNL     1      -2.207  13.961  20.181  0.00  0.00    +0.000 HD
ENDROOT
BRANCH   9  13
ATOM     13  C   UNL     1      -3.337  13.004  21.580  0.00  0.00    +0.000 A 
ATOM     14  C   UNL     1      -3.255  13.334  22.935  0.00  0.00    +0.000 A 
ATOM     15  C   UNL     1      -4.380  13.305  23.763  0.00  0.00    +0.000 A 
ATOM     16  C   UNL     1      -5.631  12.958  23.253  0.00  0.00    +0.000 A 
ATOM     17 CL   UNL     1      -6.944  12.973  24.371  0.00  0.00    +0.000 Cl
ATOM     18  C   UNL     1      -5.764  12.628  21.901  0.00  0.00    +0.000 A 
ATOM     19  C   UNL     1      -4.602  12.645  21.083  0.00  0.00    +0.000 A 
BRANCH  18  20
ATOM     20  C   UNL     1      -7.072  12.264  21.248  0.00  0.00    +0.000 C 
ATOM     21  F   UNL     1      -7.800  11.281  21.839  0.00  0.00    +0.000 F 
ATOM     22  F   UNL     1      -7.914  13.336  21.177  0.00  0.00    +0.000 F 
ATOM     23  F   UNL     1      -6.897  11.862  19.956  0.00  0.00    +0.000 F 
ENDBRANCH  18  20
ENDBRANCH   9  13
BRANCH   1  24
ATOM     24  O   UNL     1       1.882   7.287  20.368  0.00  0.00    +0.000 OA
BRANCH  24  29
ATOM     25  N   UNL     1       2.381   3.114  18.511  0.00  0.00    +0.000 N 
ATOM     26  N   UNL     1       1.439   2.978  19.475  0.00  0.00    +0.000 NA
ATOM     27  C   UNL     1       1.326   4.216  19.973  0.00  0.00    +0.000 A 
ATOM     28  C   UNL     1       2.176   5.136  19.334  0.00  0.00    +0.000 A 
ATOM     29  C   UNL     1       2.487   6.489  19.407  0.00  0.00    +0.000 A 
ATOM     30  N   UNL     1       3.431   6.999  18.577  0.00  0.00    +0.000 NA
ATOM     31  C   UNL     1       3.993   6.167  17.678  0.00  0.00    +0.000 A 
ATOM     32  N   UNL     1       3.759   4.854  17.503  0.00  0.00    +0.000 NA
ATOM     33  C   UNL     1       2.842   4.396  18.375  0.00  0.00    +0.000 A 
BRANCH  25  35
ATOM     34  C   UNL     1       3.776   1.081  18.597  0.00  0.00    +0.000 C 
ATOM     35  C   UNL     1       2.838   1.949  17.780  0.00  0.00    +0.000 C 
ENDBRANCH  25  35
ENDBRANCH  24  29
ENDBRANCH   1  24
TORSDOF 5
ENDMDL
