MODEL 1
REMARK VINA RESULT:      -7.2      0.000      0.000
REMARK  Name = 
REMARK  4 active torsions:
REMARK  status: ('A' for Active; 'I' for Inactive)
REMARK    1  A    between atoms: C_1  and  S_2
REMARK    2  A    between atoms: S_2  and  C_3
REMARK    3  A    between atoms: N_6  and  C_7
REMARK    4  A    between atoms: N_14  and  C_15
REMARK                            x       y       z     vdW  Elec       q    Type
REMARK                         _______ _______ _______ _____ _____    ______ ____
ROOT
ATOM      1  C   UNL     1       2.406   6.422  19.684  0.00  0.00    +0.000 A 
ATOM      2  N   UNL     1       1.621   7.315  20.235  0.00  0.00    +0.000 NA
ATOM      3  C   UNL     1       1.619   8.439  19.446  0.00  0.00    +0.000 A 
ATOM      4  N   UNL     1       1.060   9.577  19.679  0.00  0.00    +0.000 NA
ATOM      5  S   UNL     1       2.572   8.272  17.987  0.00  0.00    +0.000 S 
ATOM      6  N   UNL     1       3.079   6.744  18.502  0.00  0.00    +0.000 N 
ENDROOT
BRANCH   4   7
ATOM      7  C   UNL     1       0.399   9.902  20.864  0.00  0.00    +0.000 A 
ATOM      8  C   UNL     1      -0.461  11.003  20.804  0.00  0.00    +0.000 A 
ATOM      9  C   UNL     1      -1.166  11.438  21.927  0.00  0.00    +0.000 A 
ATOM     10  C   UNL     1      -1.011  10.764  23.133  0.00  0.00    +0.000 A 
ATOM     11  C   UNL     1      -0.190   9.642  23.202  0.00  0.00    +0.000 A 
ATOM     12  C   UNL     1       0.504   9.203  22.070  0.00  0.00    +0.000 A 
ENDBRANCH   4   7
BRANCH   6  13
ATOM     13  C   UNL     1       3.878   5.972  17.615  0.00  0.00    +0.000 A 
ATOM     14  C   UNL     1       4.810   6.615  16.767  0.00  0.00    +0.000 A 
ATOM     15  C   UNL     1       5.522   5.924  15.785  0.00  0.00    +0.000 A 
ATOM     16  C   UNL     1       5.342   4.556  15.642  0.00  0.00    +0.000 A 
ATOM     17  C   UNL     1       4.465   3.884  16.489  0.00  0.00    +0.000 A 
ATOM     18  C   UNL     1       3.739   4.587  17.464  0.00  0.00    +0.000 A 
ENDBRANCH   6  13
BRANCH   1  20
ATOM     19  C   UNL     1       1.059   4.053  20.233  0.00  0.00    +0.000 C 
ATOM     20  S   UNL     1       2.632   4.896  20.526  0.00  0.00    +0.000 S 
ENDBRANCH   1  20
TORSDOF 3
ENDMDL
MODEL 2
REMARK VINA RESULT:      -7.1      0.172      1.086
REMARK  Name = 
REMARK  4 active torsions:
REMARK  status: ('A' for Active; 'I' for Inactive)
REMARK    1  A    between atoms: C_1  and  S_2
REMARK    2  A    between atoms: S_2  and  C_3
REMARK    3  A    between atoms: N_6  and  C_7
REMARK    4  A    between atoms: N_14  and  C_15
REMARK                            x       y       z     vdW  Elec       q    Type
REMARK                         _______ _______ _______ _____ _____    ______ ____
ROOT
ATOM      1  C   UNL     1       2.473   6.378  19.556  0.00  0.00    +0.000 A 
ATOM      2  N   UNL     1       1.697   7.257  20.143  0.00  0.00    +0.000 NA
ATOM      3  C   UNL     1       1.678   8.398  19.381  0.00  0.00    +0.000 A 
ATOM      4  N   UNL     1       1.121   9.530  19.651  0.00  0.00    +0.000 NA
ATOM      5  S   UNL     1       2.604   8.267  17.900  0.00  0.00    +0.000 S 
ATOM      6  N   UNL     1       3.123   6.730  18.370  0.00  0.00    +0.000 N 
ENDROOT
BRANCH   4   7
ATOM      7  C   UNL     1       0.482   9.826  20.855  0.00  0.00    +0.000 A 
ATOM      8  C   UNL     1      -0.419  10.894  20.825  0.00  0.00    +0.000 A 
ATOM      9  C   UNL     1      -1.107  11.298  21.969  0.00  0.00    +0.000 A 
ATOM     10  C   UNL     1      -0.895  10.626  23.167  0.00  0.00    +0.000 A 
ATOM     11  C   UNL     1      -0.031   9.535  23.208  0.00  0.00    +0.000 A 
ATOM     12  C   UNL     1       0.647   9.126  22.055  0.00  0.00    +0.000 A 
ENDBRANCH   4   7
BRANCH   6  13
ATOM     13  C   UNL     1       3.906   5.980  17.451  0.00  0.00    +0.000 A 
ATOM     14  C   UNL     1       3.752   4.575  17.376  0.00  0.00    +0.000 A 
ATOM     15  C   UNL     1       4.585   3.776  16.592  0.00  0.00    +0.000 A 
ATOM     16  C   UNL     1       5.585   4.366  15.832  0.00  0.00    +0.000 A 
ATOM     17  C   UNL     1       5.736   5.750  15.848  0.00  0.00    +0.000 A 
ATOM     18  C   UNL     1       4.906   6.547  16.651  0.00  0.00    +0.000 A 
ENDBRANCH   6  13
BRANCH   1  20
ATOM     19  C   UNL     1       1.067   4.098  20.298  0.00  0.00    +0.000 C 
ATOM     20  S   UNL     1       2.718   4.834  20.358  0.00  0.00    +0.000 S 
ENDBRANCH   1  20
TORSDOF 3
ENDMDL
MODEL 3
REMARK VINA RESULT:      -7.0      0.177      1.083
REMARK  Name = 
REMARK  4 active torsions:
REMARK  status: ('A' for Active; 'I' for Inactive)
REMARK    1  A    between atoms: C_1  and  S_2
REMARK    2  A    between atoms: S_2  and  C_3
REMARK    3  A    between atoms: N_6  and  C_7
REMARK    4  A    between atoms: N_14  and  C_15
REMARK                            x       y       z     vdW  Elec       q    Type
REMARK                         _______ _______ _______ _____ _____    ______ ____
ROOT
ATOM      1  C   UNL     1       2.392   6.409  19.640  0.00  0.00    +0.000 A 
ATOM      2  N   UNL     1       1.614   7.321  20.171  0.00  0.00    +0.000 NA
ATOM      3  C   UNL     1       1.647   8.439  19.374  0.00  0.00    +0.000 A 
ATOM      4  N   UNL     1       1.105   9.589  19.590  0.00  0.00    +0.000 NA
ATOM      5  S   UNL     1       2.620   8.243  17.933  0.00  0.00    +0.000 S 
ATOM      6  N   UNL     1       3.090   6.710  18.467  0.00  0.00    +0.000 N 
ENDROOT
BRANCH   4   7
ATOM      7  C   UNL     1       0.430   9.935  20.761  0.00  0.00    +0.000 A 
ATOM      8  C   UNL     1       0.772   9.206  21.904  0.00  0.00    +0.000 A 
ATOM      9  C   UNL     1       0.155   9.446  23.132  0.00  0.00    +0.000 A 
ATOM     10  C   UNL     1      -0.822  10.430  23.224  0.00  0.00    +0.000 A 
ATOM     11  C   UNL     1      -1.148  11.193  22.107  0.00  0.00    +0.000 A 
ATOM     12  C   UNL     1      -0.517  10.957  20.881  0.00  0.00    +0.000 A 
ENDBRANCH   4   7
BRANCH   6  13
ATOM     13  C   UNL     1       3.889   5.917  17.600  0.00  0.00    +0.000 A 
ATOM     14  C   UNL     1       4.805   6.540  16.720  0.00  0.00    +0.000 A 
ATOM     15  C   UNL     1       5.516   5.824  15.756  0.00  0.00    +0.000 A 
ATOM     16  C   UNL     1       5.350   4.450  15.662  0.00  0.00    +0.000 A 
ATOM     17  C   UNL     1       4.489   3.798  16.541  0.00  0.00    +0.000 A 
ATOM     18  C   UNL     1       3.765   4.526  17.498  0.00  0.00    +0.000 A 
ENDBRANCH   6  13
BRANCH   1  20
ATOM     19  C   UNL     1       0.972   4.092  20.226  0.00  0.00    +0.000 C 
ATOM     20  S   UNL     1       2.575   4.885  20.496  0.00  0.00    +0.000 S 
ENDBRANCH   1  20
TORSDOF 3
ENDMDL
MODEL 4
REMARK VINA RESULT:      -6.9      2.254      6.882
REMARK  Name = 
REMARK  4 active torsions:
REMARK  status: ('A' for Active; 'I' for Inactive)
REMARK    1  A    between atoms: C_1  and  S_2
REMARK    2  A    between atoms: S_2  and  C_3
REMARK    3  A    between atoms: N_6  and  C_7
REMARK    4  A    between atoms: N_14  and  C_15
REMARK                            x       y       z     vdW  Elec       q    Type
REMARK                         _______ _______ _______ _____ _____    ______ ____
ROOT
ATOM      1  C   UNL     1       1.597   8.580  20.172  0.00  0.00    +0.000 A 
ATOM      2  N   UNL     1       2.162   7.418  19.949  0.00  0.00    +0.000 NA
ATOM      3  C   UNL     1       2.386   7.295  18.600  0.00  0.00    +0.000 A 
ATOM      4  N   UNL     1       2.828   6.270  17.954  0.00  0.00    +0.000 NA
ATOM      5  S   UNL     1       1.927   8.713  17.682  0.00  0.00    +0.000 S 
ATOM      6  N   UNL     1       1.312   9.417  19.090  0.00  0.00    +0.000 N 
ENDROOT
BRANCH   4   7
ATOM      7  C   UNL     1       3.090   5.028  18.533  0.00  0.00    +0.000 A 
ATOM      8  C   UNL     1       2.017   4.133  18.576  0.00  0.00    +0.000 A 
ATOM      9  C   UNL     1       2.148   2.866  19.145  0.00  0.00    +0.000 A 
ATOM     10  C   UNL     1       3.372   2.482  19.682  0.00  0.00    +0.000 A 
ATOM     11  C   UNL     1       4.462   3.344  19.613  0.00  0.00    +0.000 A 
ATOM     12  C   UNL     1       4.328   4.608  19.029  0.00  0.00    +0.000 A 
ENDBRANCH   4   7
BRANCH   6  13
ATOM     13  C   UNL     1       0.835  10.753  19.015  0.00  0.00    +0.000 A 
ATOM     14  C   UNL     1      -0.557  11.003  18.972  0.00  0.00    +0.000 A 
ATOM     15  C   UNL     1      -1.077  12.281  18.764  0.00  0.00    +0.000 A 
ATOM     16  C   UNL     1      -0.215  13.358  18.619  0.00  0.00    +0.000 A 
ATOM     17  C   UNL     1       1.160  13.155  18.699  0.00  0.00    +0.000 A 
ATOM     18  C   UNL     1       1.678  11.865  18.893  0.00  0.00    +0.000 A 
ENDBRANCH   6  13
BRANCH   1  20
ATOM     19  C   UNL     1      -0.614   8.569  21.858  0.00  0.00    +0.000 C 
ATOM     20  S   UNL     1       1.149   8.972  21.826  0.00  0.00    +0.000 S 
ENDBRANCH   1  20
TORSDOF 3
ENDMDL
MODEL 5
REMARK VINA RESULT:      -6.8      0.247      1.530
REMARK  Name = 
REMARK  4 active torsions:
REMARK  status: ('A' for Active; 'I' for Inactive)
REMARK    1  A    between atoms: C_1  and  S_2
REMARK    2  A    between atoms: S_2  and  C_3
REMARK    3  A    between atoms: N_6  and  C_7
REMARK    4  A    between atoms: N_14  and  C_15
REMARK                            x       y       z     vdW  Elec       q    Type
REMARK                         _______ _______ _______ _____ _____    ______ ____
ROOT
ATOM      1  C   UNL     1       2.415   6.473  19.608  0.00  0.00    +0.000 A 
ATOM      2  N   UNL     1       1.631   7.373  20.151  0.00  0.00    +0.000 NA
ATOM      3  C   UNL     1       1.636   8.491  19.355  0.00  0.00    +0.000 A 
ATOM      4  N   UNL     1       1.080   9.634  19.579  0.00  0.00    +0.000 NA
ATOM      5  S   UNL     1       2.593   8.312  17.900  0.00  0.00    +0.000 S 
ATOM      6  N   UNL     1       3.093   6.786  18.427  0.00  0.00    +0.000 N 
ENDROOT
BRANCH   4   7
ATOM      7  C   UNL     1       0.416   9.968  20.759  0.00  0.00    +0.000 A 
ATOM      8  C   UNL     1       0.767   9.228  21.892  0.00  0.00    +0.000 A 
ATOM      9  C   UNL     1       0.161   9.456  23.127  0.00  0.00    +0.000 A 
ATOM     10  C   UNL     1      -0.814  10.441  23.238  0.00  0.00    +0.000 A 
ATOM     11  C   UNL     1      -1.149  11.215  22.131  0.00  0.00    +0.000 A 
ATOM     12  C   UNL     1      -0.529  10.990  20.898  0.00  0.00    +0.000 A 
ENDBRANCH   4   7
BRANCH   6  13
ATOM     13  C   UNL     1       3.892   6.005  17.548  0.00  0.00    +0.000 A 
ATOM     14  C   UNL     1       3.646   4.618  17.418  0.00  0.00    +0.000 A 
ATOM     15  C   UNL     1       4.481   3.780  16.676  0.00  0.00    +0.000 A 
ATOM     16  C   UNL     1       5.576   4.315  16.014  0.00  0.00    +0.000 A 
ATOM     17  C   UNL     1       5.822   5.684  16.085  0.00  0.00    +0.000 A 
ATOM     18  C   UNL     1       4.989   6.518  16.846  0.00  0.00    +0.000 A 
ENDBRANCH   6  13
BRANCH   1  20
ATOM     19  C   UNL     1       1.025   4.151  20.244  0.00  0.00    +0.000 C 
ATOM     20  S   UNL     1       2.632   4.952  20.461  0.00  0.00    +0.000 S 
ENDBRANCH   1  20
TORSDOF 3
ENDMDL
MODEL 6
REMARK VINA RESULT:      -6.8      2.205      6.890
REMARK  Name = 
REMARK  4 active torsions:
REMARK  status: ('A' for Active; 'I' for Inactive)
REMARK    1  A    between atoms: C_1  and  S_2
REMARK    2  A    between atoms: S_2  and  C_3
REMARK    3  A    between atoms: N_6  and  C_7
REMARK    4  A    between atoms: N_14  and  C_15
REMARK                            x       y       z     vdW  Elec       q    Type
REMARK                         _______ _______ _______ _____ _____    ______ ____
ROOT
ATOM      1  C   UNL     1       1.537   8.717  20.221  0.00  0.00    +0.000 A 
ATOM      2  N   UNL     1       2.075   7.536  20.039  0.00  0.00    +0.000 NA
ATOM      3  C   UNL     1       2.294   7.360  18.696  0.00  0.00    +0.000 A 
ATOM      4  N   UNL     1       2.713   6.303  18.087  0.00  0.00    +0.000 NA
ATOM      5  S   UNL     1       1.866   8.754  17.727  0.00  0.00    +0.000 S 
ATOM      6  N   UNL     1       1.269   9.521  19.109  0.00  0.00    +0.000 N 
ENDROOT
BRANCH   4   7
ATOM      7  C   UNL     1       2.948   5.076  18.709  0.00  0.00    +0.000 A 
ATOM      8  C   UNL     1       4.289   4.700  18.836  0.00  0.00    +0.000 A 
ATOM      9  C   UNL     1       4.652   3.488  19.424  0.00  0.00    +0.000 A 
ATOM     10  C   UNL     1       3.662   2.634  19.895  0.00  0.00    +0.000 A 
ATOM     11  C   UNL     1       2.324   3.009  19.814  0.00  0.00    +0.000 A 
ATOM     12  C   UNL     1       1.966   4.231  19.234  0.00  0.00    +0.000 A 
ENDBRANCH   4   7
BRANCH   6  13
ATOM     13  C   UNL     1       0.822  10.864  18.986  0.00  0.00    +0.000 A 
ATOM     14  C   UNL     1      -0.564  11.141  18.912  0.00  0.00    +0.000 A 
ATOM     15  C   UNL     1      -1.054  12.423  18.656  0.00  0.00    +0.000 A 
ATOM     16  C   UNL     1      -0.166  13.477  18.495  0.00  0.00    +0.000 A 
ATOM     17  C   UNL     1       1.202  13.248  18.606  0.00  0.00    +0.000 A 
ATOM     18  C   UNL     1       1.690  11.954  18.847  0.00  0.00    +0.000 A 
ENDBRANCH   6  13
BRANCH   1  20
ATOM     19  C   UNL     1      -0.621   8.632  21.972  0.00  0.00    +0.000 C 
ATOM     20  S   UNL     1       1.100   9.178  21.860  0.00  0.00    +0.000 S 
ENDBRANCH   1  20
TORSDOF 3
ENDMDL
MODEL 7
REMARK VINA RESULT:      -6.7      2.457      6.552
REMARK  Name = 
REMARK  4 active torsions:
REMARK  status: ('A' for Active; 'I' for Inactive)
REMARK    1  A    between atoms: C_1  and  S_2
REMARK    2  A    between atoms: S_2  and  C_3
REMARK    3  A    between atoms: N_6  and  C_7
REMARK    4  A    between atoms: N_14  and  C_15
REMARK                            x       y       z     vdW  Elec       q    Type
REMARK                         _______ _______ _______ _____ _____    ______ ____
ROOT
ATOM      1  C   UNL     1       1.456   8.825  20.339  0.00  0.00    +0.000 A 
ATOM      2  N   UNL     1       1.866   7.579  20.338  0.00  0.00    +0.000 NA
ATOM      3  C   UNL     1       2.136   7.211  19.044  0.00  0.00    +0.000 A 
ATOM      4  N   UNL     1       2.465   6.046  18.597  0.00  0.00    +0.000 NA
ATOM      5  S   UNL     1       1.922   8.508  17.887  0.00  0.00    +0.000 S 
ATOM      6  N   UNL     1       1.342   9.504  19.123  0.00  0.00    +0.000 N 
ENDROOT
BRANCH   4   7
ATOM      7  C   UNL     1       2.525   4.891  19.378  0.00  0.00    +0.000 A 
ATOM      8  C   UNL     1       1.332   4.505  19.995  0.00  0.00    +0.000 A 
ATOM      9  C   UNL     1       1.268   3.379  20.815  0.00  0.00    +0.000 A 
ATOM     10  C   UNL     1       2.414   2.621  21.024  0.00  0.00    +0.000 A 
ATOM     11  C   UNL     1       3.602   2.967  20.387  0.00  0.00    +0.000 A 
ATOM     12  C   UNL     1       3.657   4.091  19.556  0.00  0.00    +0.000 A 
ENDBRANCH   4   7
BRANCH   6  13
ATOM     13  C   UNL     1       1.058  10.860  18.808  0.00  0.00    +0.000 A 
ATOM     14  C   UNL     1       2.117  11.755  18.526  0.00  0.00    +0.000 A 
ATOM     15  C   UNL     1       1.908  13.122  18.343  0.00  0.00    +0.000 A 
ATOM     16  C   UNL     1       0.620  13.634  18.410  0.00  0.00    +0.000 A 
ATOM     17  C   UNL     1      -0.451  12.775  18.642  0.00  0.00    +0.000 A 
ATOM     18  C   UNL     1      -0.233  11.403  18.841  0.00  0.00    +0.000 A 
ENDBRANCH   6  13
BRANCH   1  20
ATOM     19  C   UNL     1      -0.602   8.734  22.206  0.00  0.00    +0.000 C 
ATOM     20  S   UNL     1       0.986   9.534  21.877  0.00  0.00    +0.000 S 
ENDBRANCH   1  20
TORSDOF 3
ENDMDL
MODEL 8
REMARK VINA RESULT:      -6.7      2.204      6.917
REMARK  Name = 
REMARK  4 active torsions:
REMARK  status: ('A' for Active; 'I' for Inactive)
REMARK    1  A    between atoms: C_1  and  S_2
REMARK    2  A    between atoms: S_2  and  C_3
REMARK    3  A    between atoms: N_6  and  C_7
REMARK    4  A    between atoms: N_14  and  C_15
REMARK                            x       y       z     vdW  Elec       q    Type
REMARK                         _______ _______ _______ _____ _____    ______ ____
ROOT
ATOM      1  C   UNL     1       1.547   8.695  20.218  0.00  0.00    +0.000 A 
ATOM      2  N   UNL     1       2.132   7.556  19.937  0.00  0.00    +0.000 NA
ATOM      3  C   UNL     1       2.325   7.489  18.580  0.00  0.00    +0.000 A 
ATOM      4  N   UNL     1       2.774   6.500  17.884  0.00  0.00    +0.000 NA
ATOM      5  S   UNL     1       1.812   8.930  17.728  0.00  0.00    +0.000 S 
ATOM      6  N   UNL     1       1.217   9.565  19.176  0.00  0.00    +0.000 N 
ENDROOT
BRANCH   4   7
ATOM      7  C   UNL     1       3.078   5.243  18.408  0.00  0.00    +0.000 A 
ATOM      8  C   UNL     1       2.056   4.292  18.352  0.00  0.00    +0.000 A 
ATOM      9  C   UNL     1       2.231   3.004  18.860  0.00  0.00    +0.000 A 
ATOM     10  C   UNL     1       3.448   2.656  19.434  0.00  0.00    +0.000 A 
ATOM     11  C   UNL     1       4.491   3.577  19.463  0.00  0.00    +0.000 A 
ATOM     12  C   UNL     1       4.314   4.863  18.941  0.00  0.00    +0.000 A 
ENDBRANCH   4   7
BRANCH   6  13
ATOM     13  C   UNL     1       0.709  10.892  19.163  0.00  0.00    +0.000 A 
ATOM     14  C   UNL     1       1.602  11.988  19.093  0.00  0.00    +0.000 A 
ATOM     15  C   UNL     1       1.169  13.309  19.212  0.00  0.00    +0.000 A 
ATOM     16  C   UNL     1      -0.182  13.577  19.378  0.00  0.00    +0.000 A 
ATOM     17  C   UNL     1      -1.094  12.524  19.407  0.00  0.00    +0.000 A 
ATOM     18  C   UNL     1      -0.651  11.197  19.303  0.00  0.00    +0.000 A 
ENDBRANCH   6  13
BRANCH   1  20
ATOM     19  C   UNL     1      -0.621   8.570  21.954  0.00  0.00    +0.000 C 
ATOM     20  S   UNL     1       1.132   9.013  21.896  0.00  0.00    +0.000 S 
ENDBRANCH   1  20
TORSDOF 3
ENDMDL
MODEL 9
REMARK VINA RESULT:      -6.7      2.242      6.772
REMARK  Name = 
REMARK  4 active torsions:
REMARK  status: ('A' for Active; 'I' for Inactive)
REMARK    1  A    between atoms: C_1  and  S_2
REMARK    2  A    between atoms: S_2  and  C_3
REMARK    3  A    between atoms: N_6  and  C_7
REMARK    4  A    between atoms: N_14  and  C_15
REMARK                            x       y       z     vdW  Elec       q    Type
REMARK                         _______ _______ _______ _____ _____    ______ ____
ROOT
ATOM      1  C   UNL     1       1.500   8.813  20.196  0.00  0.00    +0.000 A 
ATOM      2  N   UNL     1       2.016   7.611  20.106  0.00  0.00    +0.000 NA
ATOM      3  C   UNL     1       2.280   7.349  18.785  0.00  0.00    +0.000 A 
ATOM      4  N   UNL     1       2.696   6.248  18.256  0.00  0.00    +0.000 NA
ATOM      5  S   UNL     1       1.921   8.690  17.719  0.00  0.00    +0.000 S 
ATOM      6  N   UNL     1       1.292   9.553  19.028  0.00  0.00    +0.000 N 
ENDROOT
BRANCH   4   7
ATOM      7  C   UNL     1       2.879   5.057  18.960  0.00  0.00    +0.000 A 
ATOM      8  C   UNL     1       4.156   4.494  18.890  0.00  0.00    +0.000 A 
ATOM      9  C   UNL     1       4.459   3.295  19.536  0.00  0.00    +0.000 A 
ATOM     10  C   UNL     1       3.471   2.644  20.266  0.00  0.00    +0.000 A 
ATOM     11  C   UNL     1       2.205   3.209  20.379  0.00  0.00    +0.000 A 
ATOM     12  C   UNL     1       1.910   4.418  19.740  0.00  0.00    +0.000 A 
ENDBRANCH   4   7
BRANCH   6  13
ATOM     13  C   UNL     1       0.882  10.896  18.808  0.00  0.00    +0.000 A 
ATOM     14  C   UNL     1       1.854  11.915  18.669  0.00  0.00    +0.000 A 
ATOM     15  C   UNL     1       1.509  13.265  18.585  0.00  0.00    +0.000 A 
ATOM     16  C   UNL     1       0.173  13.635  18.610  0.00  0.00    +0.000 A 
ATOM     17  C   UNL     1      -0.811  12.654  18.702  0.00  0.00    +0.000 A 
ATOM     18  C   UNL     1      -0.459  11.299  18.802  0.00  0.00    +0.000 A 
ENDBRANCH   6  13
BRANCH   1  20
ATOM     19  C   UNL     1      -0.624   8.641  21.982  0.00  0.00    +0.000 C 
ATOM     20  S   UNL     1       1.015   9.382  21.786  0.00  0.00    +0.000 S 
ENDBRANCH   1  20
TORSDOF 3
ENDMDL
