MODEL 1
REMARK VINA RESULT:      -6.7      0.000      0.000
REMARK  Name = 
REMARK  7 active torsions:
REMARK  status: ('A' for Active; 'I' for Inactive)
REMARK    1  A    between atoms: C_1  and  C_2
REMARK    2  A    between atoms: C_5  and  N_6
REMARK    3  A    between atoms: N_6  and  C_7
REMARK    4  A    between atoms: C_7  and  O_9
REMARK    5  A    between atoms: O_9  and  C_10
REMARK    6  A    between atoms: C_10  and  C_11
REMARK    7  A    between atoms: C_11  and  C_12
REMARK                            x       y       z     vdW  Elec       q    Type
REMARK                         _______ _______ _______ _____ _____    ______ ____
ROOT
ATOM      1  C   UNL     1       2.726   4.346  19.970  0.00  0.00    +0.000 C 
ATOM      2  S   UNL     1       1.227   3.612  19.924  0.00  0.00    +0.000 S 
ENDROOT
BRANCH   1   3
ATOM      3  N   UNL     1       2.818   5.646  20.389  0.00  0.00    +0.000 N 
ATOM      4  H   UNL     1       3.373   5.749  21.230  0.00  0.00    +0.000 HD
BRANCH   3   9
ATOM      5  C   UNL     1       0.840  10.661  18.470  0.00  0.00    +0.000 C 
ATOM      6  C   UNL     1       1.347   9.329  18.940  0.00  0.00    +0.000 A 
ATOM      7  C   UNL     1       2.048   8.480  18.078  0.00  0.00    +0.000 A 
ATOM      8  C   UNL     1       2.523   7.240  18.527  0.00  0.00    +0.000 A 
ATOM      9  C   UNL     1       2.306   6.836  19.843  0.00  0.00    +0.000 A 
ATOM     10  C   UNL     1       1.605   7.686  20.706  0.00  0.00    +0.000 A 
ATOM     11  C   UNL     1       1.123   8.921  20.257  0.00  0.00    +0.000 A 
ENDBRANCH   3   9
ENDBRANCH   1   3
BRANCH   1  12
ATOM     12  O   UNL     1       3.875   3.737  19.568  0.00  0.00    +0.000 OA
BRANCH  12  13
ATOM     13  C   UNL     1       3.923   3.030  18.304  0.00  0.00    +0.000 C 
BRANCH  13  14
ATOM     14  C   UNL     1       3.754   3.990  17.127  0.00  0.00    +0.000 C 
BRANCH  14  15
ATOM     15  C   UNL     1       5.043   4.588  16.625  0.00  0.00    +0.000 A 
ATOM     16  C   UNL     1       5.619   5.682  17.279  0.00  0.00    +0.000 A 
ATOM     17  C   UNL     1       6.816   6.193  16.801  0.00  0.00    +0.000 A 
ATOM     18  N   UNL     1       7.474   5.695  15.732  0.00  0.00    +0.000 NA
ATOM     19  C   UNL     1       6.899   4.643  15.110  0.00  0.00    +0.000 A 
ATOM     20  C   UNL     1       5.704   4.065  15.509  0.00  0.00    +0.000 A 
ENDBRANCH  14  15
ENDBRANCH  13  14
ENDBRANCH  12  13
ENDBRANCH   1  12
TORSDOF 6
ENDMDL
MODEL 2
REMARK VINA RESULT:      -6.6      3.210      6.846
REMARK  Name = 
REMARK  7 active torsions:
REMARK  status: ('A' for Active; 'I' for Inactive)
REMARK    1  A    between atoms: C_1  and  C_2
REMARK    2  A    between atoms: C_5  and  N_6
REMARK    3  A    between atoms: N_6  and  C_7
REMARK    4  A    between atoms: C_7  and  O_9
REMARK    5  A    between atoms: O_9  and  C_10
REMARK    6  A    between atoms: C_10  and  C_11
REMARK    7  A    between atoms: C_11  and  C_12
REMARK                            x       y       z     vdW  Elec       q    Type
REMARK                         _______ _______ _______ _____ _____    ______ ____
ROOT
ATOM      1  C   UNL     1       6.991   5.934  16.873  0.00  0.00    +0.000 C 
ATOM      2  S   UNL     1       7.638   4.813  17.927  0.00  0.00    +0.000 S 
ENDROOT
BRANCH   1   3
ATOM      3  N   UNL     1       7.295   5.849  15.541  0.00  0.00    +0.000 N 
ATOM      4  H   UNL     1       8.062   6.455  15.274  0.00  0.00    +0.000 HD
BRANCH   3   9
ATOM      5  C   UNL     1       5.409   2.477  11.320  0.00  0.00    +0.000 C 
ATOM      6  C   UNL     1       5.867   3.377  12.430  0.00  0.00    +0.000 A 
ATOM      7  C   UNL     1       5.079   3.579  13.566  0.00  0.00    +0.000 A 
ATOM      8  C   UNL     1       5.517   4.416  14.601  0.00  0.00    +0.000 A 
ATOM      9  C   UNL     1       6.751   5.059  14.513  0.00  0.00    +0.000 A 
ATOM     10  C   UNL     1       7.540   4.857  13.375  0.00  0.00    +0.000 A 
ATOM     11  C   UNL     1       7.101   4.027  12.337  0.00  0.00    +0.000 A 
ENDBRANCH   3   9
ENDBRANCH   1   3
BRANCH   1  12
ATOM     12  O   UNL     1       6.203   6.971  17.269  0.00  0.00    +0.000 OA
BRANCH  12  13
ATOM     13  C   UNL     1       4.763   6.892  17.122  0.00  0.00    +0.000 C 
BRANCH  13  14
ATOM     14  C   UNL     1       4.111   6.302  18.372  0.00  0.00    +0.000 C 
BRANCH  14  15
ATOM     15  C   UNL     1       3.389   5.000  18.140  0.00  0.00    +0.000 A 
ATOM     16  C   UNL     1       1.992   4.948  18.176  0.00  0.00    +0.000 A 
ATOM     17  C   UNL     1       1.361   3.737  17.936  0.00  0.00    +0.000 A 
ATOM     18  N   UNL     1       2.016   2.588  17.664  0.00  0.00    +0.000 NA
ATOM     19  C   UNL     1       3.364   2.656  17.639  0.00  0.00    +0.000 A 
ATOM     20  C   UNL     1       4.086   3.818  17.868  0.00  0.00    +0.000 A 
ENDBRANCH  14  15
ENDBRANCH  13  14
ENDBRANCH  12  13
ENDBRANCH   1  12
TORSDOF 6
ENDMDL
MODEL 3
REMARK VINA RESULT:      -6.6      0.706      1.310
REMARK  Name = 
REMARK  7 active torsions:
REMARK  status: ('A' for Active; 'I' for Inactive)
REMARK    1  A    between atoms: C_1  and  C_2
REMARK    2  A    between atoms: C_5  and  N_6
REMARK    3  A    between atoms: N_6  and  C_7
REMARK    4  A    between atoms: C_7  and  O_9
REMARK    5  A    between atoms: O_9  and  C_10
REMARK    6  A    between atoms: C_10  and  C_11
REMARK    7  A    between atoms: C_11  and  C_12
REMARK                            x       y       z     vdW  Elec       q    Type
REMARK                         _______ _______ _______ _____ _____    ______ ____
ROOT
ATOM      1  C   UNL     1       2.538   3.957  20.043  0.00  0.00    +0.000 C 
ATOM      2  S   UNL     1       1.698   3.319  21.336  0.00  0.00    +0.000 S 
ENDROOT
BRANCH   1   3
ATOM      3  N   UNL     1       3.093   5.203  20.158  0.00  0.00    +0.000 N 
ATOM      4  H   UNL     1       3.991   5.192  20.625  0.00  0.00    +0.000 HD
BRANCH   3   9
ATOM      5  C   UNL     1       1.171  10.170  18.065  0.00  0.00    +0.000 C 
ATOM      6  C   UNL     1       1.684   8.886  18.648  0.00  0.00    +0.000 A 
ATOM      7  C   UNL     1       1.403   8.531  19.970  0.00  0.00    +0.000 A 
ATOM      8  C   UNL     1       1.881   7.327  20.504  0.00  0.00    +0.000 A 
ATOM      9  C   UNL     1       2.645   6.462  19.721  0.00  0.00    +0.000 A 
ATOM     10  C   UNL     1       2.926   6.818  18.397  0.00  0.00    +0.000 A 
ATOM     11  C   UNL     1       2.456   8.023  17.865  0.00  0.00    +0.000 A 
ENDBRANCH   3   9
ENDBRANCH   1   3
BRANCH   1  12
ATOM     12  O   UNL     1       2.671   3.323  18.845  0.00  0.00    +0.000 OA
BRANCH  12  13
ATOM     13  C   UNL     1       3.981   3.156  18.248  0.00  0.00    +0.000 C 
BRANCH  13  14
ATOM     14  C   UNL     1       3.969   3.548  16.771  0.00  0.00    +0.000 C 
BRANCH  14  15
ATOM     15  C   UNL     1       5.197   4.293  16.317  0.00  0.00    +0.000 A 
ATOM     16  C   UNL     1       5.928   5.072  17.219  0.00  0.00    +0.000 A 
ATOM     17  C   UNL     1       7.065   5.726  16.770  0.00  0.00    +0.000 A 
ATOM     18  N   UNL     1       7.522   5.657  15.501  0.00  0.00    +0.000 NA
ATOM     19  C   UNL     1       6.800   4.904  14.643  0.00  0.00    +0.000 A 
ATOM     20  C   UNL     1       5.649   4.216  14.995  0.00  0.00    +0.000 A 
ENDBRANCH  14  15
ENDBRANCH  13  14
ENDBRANCH  12  13
ENDBRANCH   1  12
TORSDOF 6
ENDMDL
MODEL 4
REMARK VINA RESULT:      -6.6      2.455      5.565
REMARK  Name = 
REMARK  7 active torsions:
REMARK  status: ('A' for Active; 'I' for Inactive)
REMARK    1  A    between atoms: C_1  and  C_2
REMARK    2  A    between atoms: C_5  and  N_6
REMARK    3  A    between atoms: N_6  and  C_7
REMARK    4  A    between atoms: C_7  and  O_9
REMARK    5  A    between atoms: O_9  and  C_10
REMARK    6  A    between atoms: C_10  and  C_11
REMARK    7  A    between atoms: C_11  and  C_12
REMARK                            x       y       z     vdW  Elec       q    Type
REMARK                         _______ _______ _______ _____ _____    ______ ____
ROOT
ATOM      1  C   UNL     1       5.978   4.425  16.504  0.00  0.00    +0.000 C 
ATOM      2  S   UNL     1       6.616   4.461  14.961  0.00  0.00    +0.000 S 
ENDROOT
BRANCH   1   3
ATOM      3  N   UNL     1       5.130   3.408  16.850  0.00  0.00    +0.000 N 
ATOM      4  H   UNL     1       5.290   2.564  16.314  0.00  0.00    +0.000 HD
BRANCH   3   9
ATOM      5  C   UNL     1       0.823   2.891  20.582  0.00  0.00    +0.000 C 
ATOM      6  C   UNL     1       1.972   3.049  19.629  0.00  0.00    +0.000 A 
ATOM      7  C   UNL     1       3.294   2.974  20.076  0.00  0.00    +0.000 A 
ATOM      8  C   UNL     1       4.361   3.117  19.178  0.00  0.00    +0.000 A 
ATOM      9  C   UNL     1       4.118   3.334  17.823  0.00  0.00    +0.000 A 
ATOM     10  C   UNL     1       2.794   3.409  17.376  0.00  0.00    +0.000 A 
ATOM     11  C   UNL     1       1.727   3.274  18.272  0.00  0.00    +0.000 A 
ENDBRANCH   3   9
ENDBRANCH   1   3
BRANCH   1  12
ATOM     12  O   UNL     1       6.217   5.385  17.439  0.00  0.00    +0.000 OA
BRANCH  12  13
ATOM     13  C   UNL     1       5.760   6.744  17.225  0.00  0.00    +0.000 C 
BRANCH  13  14
ATOM     14  C   UNL     1       4.299   6.771  16.776  0.00  0.00    +0.000 C 
BRANCH  14  15
ATOM     15  C   UNL     1       3.339   7.285  17.818  0.00  0.00    +0.000 A 
ATOM     16  C   UNL     1       3.149   6.585  19.013  0.00  0.00    +0.000 A 
ATOM     17  C   UNL     1       2.274   7.099  19.958  0.00  0.00    +0.000 A 
ATOM     18  N   UNL     1       1.585   8.249  19.798  0.00  0.00    +0.000 NA
ATOM     19  C   UNL     1       1.777   8.908  18.635  0.00  0.00    +0.000 A 
ATOM     20  C   UNL     1       2.628   8.474  17.630  0.00  0.00    +0.000 A 
ENDBRANCH  14  15
ENDBRANCH  13  14
ENDBRANCH  12  13
ENDBRANCH   1  12
TORSDOF 6
ENDMDL
MODEL 5
REMARK VINA RESULT:      -6.6      4.906      6.747
REMARK  Name = 
REMARK  7 active torsions:
REMARK  status: ('A' for Active; 'I' for Inactive)
REMARK    1  A    between atoms: C_1  and  C_2
REMARK    2  A    between atoms: C_5  and  N_6
REMARK    3  A    between atoms: N_6  and  C_7
REMARK    4  A    between atoms: C_7  and  O_9
REMARK    5  A    between atoms: O_9  and  C_10
REMARK    6  A    between atoms: C_10  and  C_11
REMARK    7  A    between atoms: C_11  and  C_12
REMARK                            x       y       z     vdW  Elec       q    Type
REMARK                         _______ _______ _______ _____ _____    ______ ____
ROOT
ATOM      1  C   UNL     1       7.165   6.946  17.422  0.00  0.00    +0.000 C 
ATOM      2  S   UNL     1       7.545   5.912  18.676  0.00  0.00    +0.000 S 
ENDROOT
BRANCH   1   3
ATOM      3  N   UNL     1       6.021   6.728  16.702  0.00  0.00    +0.000 N 
ATOM      4  H   UNL     1       6.071   7.100  15.762  0.00  0.00    +0.000 HD
BRANCH   3   9
ATOM      5  C   UNL     1       1.364   3.737  18.155  0.00  0.00    +0.000 C 
ATOM      6  C   UNL     1       2.562   4.551  17.765  0.00  0.00    +0.000 A 
ATOM      7  C   UNL     1       2.669   5.897  18.129  0.00  0.00    +0.000 A 
ATOM      8  C   UNL     1       3.794   6.649  17.765  0.00  0.00    +0.000 A 
ATOM      9  C   UNL     1       4.827   6.064  17.036  0.00  0.00    +0.000 A 
ATOM     10  C   UNL     1       4.720   4.717  16.671  0.00  0.00    +0.000 A 
ATOM     11  C   UNL     1       3.594   3.966  17.027  0.00  0.00    +0.000 A 
ENDBRANCH   3   9
ENDBRANCH   1   3
BRANCH   1  12
ATOM     12  O   UNL     1       7.958   7.982  17.034  0.00  0.00    +0.000 OA
BRANCH  12  13
ATOM     13  C   UNL     1       7.899   9.249  17.735  0.00  0.00    +0.000 C 
BRANCH  13  14
ATOM     14  C   UNL     1       8.932   9.307  18.860  0.00  0.00    +0.000 C 
BRANCH  14  15
ATOM     15  C   UNL     1       9.547  10.666  19.068  0.00  0.00    +0.000 A 
ATOM     16  C   UNL     1       9.660  11.206  20.353  0.00  0.00    +0.000 A 
ATOM     17  C   UNL     1      10.251  12.450  20.508  0.00  0.00    +0.000 A 
ATOM     18  N   UNL     1      10.736  13.186  19.485  0.00  0.00    +0.000 NA
ATOM     19  C   UNL     1      10.613  12.652  18.251  0.00  0.00    +0.000 A 
ATOM     20  C   UNL     1      10.035  11.418  17.994  0.00  0.00    +0.000 A 
ENDBRANCH  14  15
ENDBRANCH  13  14
ENDBRANCH  12  13
ENDBRANCH   1  12
TORSDOF 6
ENDMDL
MODEL 6
REMARK VINA RESULT:      -6.5      4.925      6.776
REMARK  Name = 
REMARK  7 active torsions:
REMARK  status: ('A' for Active; 'I' for Inactive)
REMARK    1  A    between atoms: C_1  and  C_2
REMARK    2  A    between atoms: C_5  and  N_6
REMARK    3  A    between atoms: N_6  and  C_7
REMARK    4  A    between atoms: C_7  and  O_9
REMARK    5  A    between atoms: O_9  and  C_10
REMARK    6  A    between atoms: C_10  and  C_11
REMARK    7  A    between atoms: C_11  and  C_12
REMARK                            x       y       z     vdW  Elec       q    Type
REMARK                         _______ _______ _______ _____ _____    ______ ____
ROOT
ATOM      1  C   UNL     1       7.274   6.999  17.527  0.00  0.00    +0.000 C 
ATOM      2  S   UNL     1       7.642   5.971  18.790  0.00  0.00    +0.000 S 
ENDROOT
BRANCH   1   3
ATOM      3  N   UNL     1       6.171   6.741  16.758  0.00  0.00    +0.000 N 
ATOM      4  H   UNL     1       6.278   7.053  15.800  0.00  0.00    +0.000 HD
BRANCH   3   9
ATOM      5  C   UNL     1       1.414   3.863  18.110  0.00  0.00    +0.000 C 
ATOM      6  C   UNL     1       2.639   4.648  17.744  0.00  0.00    +0.000 A 
ATOM      7  C   UNL     1       2.754   6.001  18.077  0.00  0.00    +0.000 A 
ATOM      8  C   UNL     1       3.904   6.725  17.737  0.00  0.00    +0.000 A 
ATOM      9  C   UNL     1       4.955   6.105  17.063  0.00  0.00    +0.000 A 
ATOM     10  C   UNL     1       4.840   4.750  16.730  0.00  0.00    +0.000 A 
ATOM     11  C   UNL     1       3.689   4.027  17.062  0.00  0.00    +0.000 A 
ENDBRANCH   3   9
ENDBRANCH   1   3
BRANCH   1  12
ATOM     12  O   UNL     1       8.039   8.070  17.181  0.00  0.00    +0.000 OA
BRANCH  12  13
ATOM     13  C   UNL     1       7.804   9.364  17.790  0.00  0.00    +0.000 C 
BRANCH  13  14
ATOM     14  C   UNL     1       9.000   9.802  18.635  0.00  0.00    +0.000 C 
BRANCH  14  15
ATOM     15  C   UNL     1       9.590  11.129  18.234  0.00  0.00    +0.000 A 
ATOM     16  C   UNL     1       8.768  12.247  18.059  0.00  0.00    +0.000 A 
ATOM     17  C   UNL     1       9.349  13.457  17.711  0.00  0.00    +0.000 A 
ATOM     18  N   UNL     1      10.676  13.630  17.530  0.00  0.00    +0.000 NA
ATOM     19  C   UNL     1      11.453  12.538  17.697  0.00  0.00    +0.000 A 
ATOM     20  C   UNL     1      10.966  11.286  18.042  0.00  0.00    +0.000 A 
ENDBRANCH  14  15
ENDBRANCH  13  14
ENDBRANCH  12  13
ENDBRANCH   1  12
TORSDOF 6
ENDMDL
MODEL 7
REMARK VINA RESULT:      -6.5      3.380      6.800
REMARK  Name = 
REMARK  7 active torsions:
REMARK  status: ('A' for Active; 'I' for Inactive)
REMARK    1  A    between atoms: C_1  and  C_2
REMARK    2  A    between atoms: C_5  and  N_6
REMARK    3  A    between atoms: N_6  and  C_7
REMARK    4  A    between atoms: C_7  and  O_9
REMARK    5  A    between atoms: O_9  and  C_10
REMARK    6  A    between atoms: C_10  and  C_11
REMARK    7  A    between atoms: C_11  and  C_12
REMARK                            x       y       z     vdW  Elec       q    Type
REMARK                         _______ _______ _______ _____ _____    ______ ____
ROOT
ATOM      1  C   UNL     1       6.973   5.885  16.784  0.00  0.00    +0.000 C 
ATOM      2  S   UNL     1       7.542   4.801  17.919  0.00  0.00    +0.000 S 
ENDROOT
BRANCH   1   3
ATOM      3  N   UNL     1       7.370   5.753  15.480  0.00  0.00    +0.000 N 
ATOM      4  H   UNL     1       8.177   6.322  15.256  0.00  0.00    +0.000 HD
BRANCH   3   9
ATOM      5  C   UNL     1       5.010   2.652  11.290  0.00  0.00    +0.000 C 
ATOM      6  C   UNL     1       5.664   3.450  12.380  0.00  0.00    +0.000 A 
ATOM      7  C   UNL     1       6.891   4.085  12.170  0.00  0.00    +0.000 A 
ATOM      8  C   UNL     1       7.492   4.833  13.192  0.00  0.00    +0.000 A 
ATOM      9  C   UNL     1       6.871   4.957  14.433  0.00  0.00    +0.000 A 
ATOM     10  C   UNL     1       5.642   4.321  14.643  0.00  0.00    +0.000 A 
ATOM     11  C   UNL     1       5.045   3.567  13.627  0.00  0.00    +0.000 A 
ENDBRANCH   3   9
ENDBRANCH   1   3
BRANCH   1  12
ATOM     12  O   UNL     1       6.162   6.935  17.086  0.00  0.00    +0.000 OA
BRANCH  12  13
ATOM     13  C   UNL     1       4.745   6.724  17.305  0.00  0.00    +0.000 C 
BRANCH  13  14
ATOM     14  C   UNL     1       4.501   5.806  18.503  0.00  0.00    +0.000 C 
BRANCH  14  15
ATOM     15  C   UNL     1       3.606   4.630  18.211  0.00  0.00    +0.000 A 
ATOM     16  C   UNL     1       4.104   3.325  18.282  0.00  0.00    +0.000 A 
ATOM     17  C   UNL     1       3.245   2.267  18.028  0.00  0.00    +0.000 A 
ATOM     18  N   UNL     1       1.941   2.414  17.714  0.00  0.00    +0.000 NA
ATOM     19  C   UNL     1       1.480   3.682  17.643  0.00  0.00    +0.000 A 
ATOM     20  C   UNL     1       2.259   4.804  17.877  0.00  0.00    +0.000 A 
ENDBRANCH  14  15
ENDBRANCH  13  14
ENDBRANCH  12  13
ENDBRANCH   1  12
TORSDOF 6
ENDMDL
MODEL 8
REMARK VINA RESULT:      -6.5      2.441      5.542
REMARK  Name = 
REMARK  7 active torsions:
REMARK  status: ('A' for Active; 'I' for Inactive)
REMARK    1  A    between atoms: C_1  and  C_2
REMARK    2  A    between atoms: C_5  and  N_6
REMARK    3  A    between atoms: N_6  and  C_7
REMARK    4  A    between atoms: C_7  and  O_9
REMARK    5  A    between atoms: O_9  and  C_10
REMARK    6  A    between atoms: C_10  and  C_11
REMARK    7  A    between atoms: C_11  and  C_12
REMARK                            x       y       z     vdW  Elec       q    Type
REMARK                         _______ _______ _______ _____ _____    ______ ____
ROOT
ATOM      1  C   UNL     1       6.052   4.617  16.188  0.00  0.00    +0.000 C 
ATOM      2  S   UNL     1       5.852   4.159  14.595  0.00  0.00    +0.000 S 
ENDROOT
BRANCH   1   3
ATOM      3  N   UNL     1       5.704   3.741  17.181  0.00  0.00    +0.000 N 
ATOM      4  H   UNL     1       6.487   3.191  17.512  0.00  0.00    +0.000 HD
BRANCH   3   9
ATOM      5  C   UNL     1       0.810   3.005  20.053  0.00  0.00    +0.000 C 
ATOM      6  C   UNL     1       2.080   3.174  19.272  0.00  0.00    +0.000 A 
ATOM      7  C   UNL     1       2.055   3.344  17.884  0.00  0.00    +0.000 A 
ATOM      8  C   UNL     1       3.246   3.507  17.163  0.00  0.00    +0.000 A 
ATOM      9  C   UNL     1       4.474   3.505  17.822  0.00  0.00    +0.000 A 
ATOM     10  C   UNL     1       4.499   3.335  19.210  0.00  0.00    +0.000 A 
ATOM     11  C   UNL     1       3.311   3.164  19.931  0.00  0.00    +0.000 A 
ENDBRANCH   3   9
ENDBRANCH   1   3
BRANCH   1  12
ATOM     12  O   UNL     1       6.504   5.844  16.567  0.00  0.00    +0.000 OA
BRANCH  12  13
ATOM     13  C   UNL     1       5.708   6.674  17.449  0.00  0.00    +0.000 C 
BRANCH  13  14
ATOM     14  C   UNL     1       4.323   6.939  16.860  0.00  0.00    +0.000 C 
BRANCH  14  15
ATOM     15  C   UNL     1       3.310   7.437  17.856  0.00  0.00    +0.000 A 
ATOM     16  C   UNL     1       3.070   6.731  19.039  0.00  0.00    +0.000 A 
ATOM     17  C   UNL     1       2.145   7.231  19.942  0.00  0.00    +0.000 A 
ATOM     18  N   UNL     1       1.452   8.374  19.755  0.00  0.00    +0.000 NA
ATOM     19  C   UNL     1       1.693   9.040  18.605  0.00  0.00    +0.000 A 
ATOM     20  C   UNL     1       2.595   8.620  17.639  0.00  0.00    +0.000 A 
ENDBRANCH  14  15
ENDBRANCH  13  14
ENDBRANCH  12  13
ENDBRANCH   1  12
TORSDOF 6
ENDMDL
MODEL 9
REMARK VINA RESULT:      -6.5      0.714      1.209
REMARK  Name = 
REMARK  7 active torsions:
REMARK  status: ('A' for Active; 'I' for Inactive)
REMARK    1  A    between atoms: C_1  and  C_2
REMARK    2  A    between atoms: C_5  and  N_6
REMARK    3  A    between atoms: N_6  and  C_7
REMARK    4  A    between atoms: C_7  and  O_9
REMARK    5  A    between atoms: O_9  and  C_10
REMARK    6  A    between atoms: C_10  and  C_11
REMARK    7  A    between atoms: C_11  and  C_12
REMARK                            x       y       z     vdW  Elec       q    Type
REMARK                         _______ _______ _______ _____ _____    ______ ____
ROOT
ATOM      1  C   UNL     1       2.612   4.197  20.235  0.00  0.00    +0.000 C 
ATOM      2  S   UNL     1       0.967   3.914  20.207  0.00  0.00    +0.000 S 
ENDROOT
BRANCH   1   3
ATOM      3  N   UNL     1       3.065   5.489  20.226  0.00  0.00    +0.000 N 
ATOM      4  H   UNL     1       3.991   5.583  20.627  0.00  0.00    +0.000 HD
BRANCH   3   9
ATOM      5  C   UNL     1       0.815  10.476  18.550  0.00  0.00    +0.000 C 
ATOM      6  C   UNL     1       1.393   9.152  18.956  0.00  0.00    +0.000 A 
ATOM      7  C   UNL     1       2.086   8.357  18.039  0.00  0.00    +0.000 A 
ATOM      8  C   UNL     1       2.628   7.124  18.428  0.00  0.00    +0.000 A 
ATOM      9  C   UNL     1       2.484   6.674  19.740  0.00  0.00    +0.000 A 
ATOM     10  C   UNL     1       1.790   7.470  20.657  0.00  0.00    +0.000 A 
ATOM     11  C   UNL     1       1.242   8.698  20.268  0.00  0.00    +0.000 A 
ENDBRANCH   3   9
ENDBRANCH   1   3
BRANCH   1  12
ATOM     12  O   UNL     1       3.547   3.208  20.220  0.00  0.00    +0.000 OA
BRANCH  12  13
ATOM     13  C   UNL     1       3.913   2.568  18.972  0.00  0.00    +0.000 C 
BRANCH  13  14
ATOM     14  C   UNL     1       3.806   3.543  17.799  0.00  0.00    +0.000 C 
BRANCH  14  15
ATOM     15  C   UNL     1       5.133   4.003  17.253  0.00  0.00    +0.000 A 
ATOM     16  C   UNL     1       5.384   3.971  15.878  0.00  0.00    +0.000 A 
ATOM     17  C   UNL     1       6.608   4.422  15.410  0.00  0.00    +0.000 A 
ATOM     18  N   UNL     1       7.588   4.901  16.205  0.00  0.00    +0.000 NA
ATOM     19  C   UNL     1       7.330   4.919  17.531  0.00  0.00    +0.000 A 
ATOM     20  C   UNL     1       6.140   4.487  18.095  0.00  0.00    +0.000 A 
ENDBRANCH  14  15
ENDBRANCH  13  14
ENDBRANCH  12  13
ENDBRANCH   1  12
TORSDOF 6
ENDMDL
