MODEL 1
REMARK VINA RESULT:      -6.4      0.000      0.000
REMARK  Name = 
REMARK  5 active torsions:
REMARK  status: ('A' for Active; 'I' for Inactive)
REMARK    1  A    between atoms: C_1  and  N_2
REMARK    2  A    between atoms: N_2  and  C_3
REMARK    3  A    between atoms: N_2  and  C_4
REMARK    4  A    between atoms: C_4  and  C_5
REMARK    5  A    between atoms: C_11  and  C_12
REMARK                            x       y       z     vdW  Elec       q    Type
REMARK                         _______ _______ _______ _____ _____    ______ ____
ROOT
ATOM      1  C   UNL     1       5.650   5.359  18.347  0.00  0.00    +0.000 C 
ATOM      2  O   UNL     1       5.918   4.634  19.307  0.00  0.00    +0.000 OA
ATOM      3  N   UNL     1       4.465   6.060  18.280  0.00  0.00    +0.000 N 
ATOM      4  C   UNL     1       4.045   6.969  17.235  0.00  0.00    +0.000 C 
ATOM      5  C   UNL     1       3.095   7.920  17.936  0.00  0.00    +0.000 C 
ATOM      6  C   UNL     1       2.429   7.063  19.008  0.00  0.00    +0.000 C 
ATOM      7  C   UNL     1       3.445   5.947  19.321  0.00  0.00    +0.000 C 
ENDROOT
BRANCH   7   8
ATOM      8  C   UNL     1       2.758   4.584  19.341  0.00  0.00    +0.000 A 
ATOM      9  C   UNL     1       2.097   4.117  18.206  0.00  0.00    +0.000 A 
ATOM     10  C   UNL     1       1.496   2.861  18.241  0.00  0.00    +0.000 A 
ATOM     11  C   UNL     1       1.567   2.103  19.403  0.00  0.00    +0.000 A 
ATOM     12  C   UNL     1       2.239   2.636  20.489  0.00  0.00    +0.000 A 
ATOM     13  N   UNL     1       2.834   3.849  20.485  0.00  0.00    +0.000 NA
ENDBRANCH   7   8
BRANCH   1  14
ATOM     14  C   UNL     1       6.661   5.541  17.197  0.00  0.00    +0.000 C 
BRANCH  14  16
ATOM     15  C   UNL     1       5.337   3.765  16.188  0.00  0.00    +0.000 C 
ATOM     16  N   UNL     1       6.673   4.369  16.284  0.00  0.00    +0.000 NA
ATOM     17  C   UNL     1       7.105   4.780  14.944  0.00  0.00    +0.000 C 
ENDBRANCH  14  16
ENDBRANCH   1  14
TORSDOF 3
ENDMDL
MODEL 2
REMARK VINA RESULT:      -6.4      0.925      1.318
REMARK  Name = 
REMARK  5 active torsions:
REMARK  status: ('A' for Active; 'I' for Inactive)
REMARK    1  A    between atoms: C_1  and  N_2
REMARK    2  A    between atoms: N_2  and  C_3
REMARK    3  A    between atoms: N_2  and  C_4
REMARK    4  A    between atoms: C_4  and  C_5
REMARK    5  A    between atoms: C_11  and  C_12
REMARK                            x       y       z     vdW  Elec       q    Type
REMARK                         _______ _______ _______ _____ _____    ______ ____
ROOT
ATOM      1  C   UNL     1       5.242   5.638  18.589  0.00  0.00    +0.000 C 
ATOM      2  O   UNL     1       5.457   4.990  19.616  0.00  0.00    +0.000 OA
ATOM      3  N   UNL     1       4.088   6.376  18.429  0.00  0.00    +0.000 N 
ATOM      4  C   UNL     1       3.731   7.204  17.298  0.00  0.00    +0.000 C 
ATOM      5  C   UNL     1       2.805   8.249  17.887  0.00  0.00    +0.000 C 
ATOM      6  C   UNL     1       2.080   7.518  19.011  0.00  0.00    +0.000 C 
ATOM      7  C   UNL     1       3.041   6.395  19.449  0.00  0.00    +0.000 C 
ENDROOT
BRANCH   7   8
ATOM      8  C   UNL     1       2.298   5.068  19.570  0.00  0.00    +0.000 A 
ATOM      9  C   UNL     1       1.995   4.547  20.827  0.00  0.00    +0.000 A 
ATOM     10  C   UNL     1       1.298   3.344  20.912  0.00  0.00    +0.000 A 
ATOM     11  C   UNL     1       0.922   2.690  19.746  0.00  0.00    +0.000 A 
ATOM     12  C   UNL     1       1.261   3.269  18.535  0.00  0.00    +0.000 A 
ATOM     13  N   UNL     1       1.933   4.434  18.420  0.00  0.00    +0.000 NA
ENDBRANCH   7   8
BRANCH   1  14
ATOM     14  C   UNL     1       6.286   5.677  17.455  0.00  0.00    +0.000 C 
BRANCH  14  16
ATOM     15  C   UNL     1       5.002   3.873  16.444  0.00  0.00    +0.000 C 
ATOM     16  N   UNL     1       6.350   4.387  16.720  0.00  0.00    +0.000 NA
ATOM     17  C   UNL     1       7.058   4.567  15.449  0.00  0.00    +0.000 C 
ENDBRANCH  14  16
ENDBRANCH   1  14
TORSDOF 3
ENDMDL
MODEL 3
REMARK VINA RESULT:      -6.4      1.260      1.993
REMARK  Name = 
REMARK  5 active torsions:
REMARK  status: ('A' for Active; 'I' for Inactive)
REMARK    1  A    between atoms: C_1  and  N_2
REMARK    2  A    between atoms: N_2  and  C_3
REMARK    3  A    between atoms: N_2  and  C_4
REMARK    4  A    between atoms: C_4  and  C_5
REMARK    5  A    between atoms: C_11  and  C_12
REMARK                            x       y       z     vdW  Elec       q    Type
REMARK                         _______ _______ _______ _____ _____    ______ ____
ROOT
ATOM      1  C   UNL     1       5.430   4.910  18.564  0.00  0.00    +0.000 C 
ATOM      2  O   UNL     1       5.555   4.252  19.599  0.00  0.00    +0.000 OA
ATOM      3  N   UNL     1       4.362   5.761  18.373  0.00  0.00    +0.000 N 
ATOM      4  C   UNL     1       4.116   6.612  17.230  0.00  0.00    +0.000 C 
ATOM      5  C   UNL     1       3.291   7.753  17.791  0.00  0.00    +0.000 C 
ATOM      6  C   UNL     1       2.470   7.109  18.904  0.00  0.00    +0.000 C 
ATOM      7  C   UNL     1       3.300   5.897  19.369  0.00  0.00    +0.000 C 
ENDROOT
BRANCH   7   8
ATOM      8  C   UNL     1       2.422   4.654  19.481  0.00  0.00    +0.000 A 
ATOM      9  C   UNL     1       2.064   4.161  20.735  0.00  0.00    +0.000 A 
ATOM     10  C   UNL     1       1.245   3.036  20.812  0.00  0.00    +0.000 A 
ATOM     11  C   UNL     1       0.804   2.433  19.641  0.00  0.00    +0.000 A 
ATOM     12  C   UNL     1       1.204   2.979  18.435  0.00  0.00    +0.000 A 
ATOM     13  N   UNL     1       1.995   4.069  18.327  0.00  0.00    +0.000 NA
ENDBRANCH   7   8
BRANCH   1  14
ATOM     14  C   UNL     1       6.496   4.832  17.453  0.00  0.00    +0.000 C 
BRANCH  14  16
ATOM     15  C   UNL     1       7.462   7.056  17.251  0.00  0.00    +0.000 C 
ATOM     16  N   UNL     1       7.669   5.692  17.754  0.00  0.00    +0.000 NA
ATOM     17  C   UNL     1       7.892   5.749  19.202  0.00  0.00    +0.000 C 
ENDBRANCH  14  16
ENDBRANCH   1  14
TORSDOF 3
ENDMDL
MODEL 4
REMARK VINA RESULT:      -6.3      1.650      4.678
REMARK  Name = 
REMARK  5 active torsions:
REMARK  status: ('A' for Active; 'I' for Inactive)
REMARK    1  A    between atoms: C_1  and  N_2
REMARK    2  A    between atoms: N_2  and  C_3
REMARK    3  A    between atoms: N_2  and  C_4
REMARK    4  A    between atoms: C_4  and  C_5
REMARK    5  A    between atoms: C_11  and  C_12
REMARK                            x       y       z     vdW  Elec       q    Type
REMARK                         _______ _______ _______ _____ _____    ______ ____
ROOT
ATOM      1  C   UNL     1       2.073   3.933  18.186  0.00  0.00    +0.000 C 
ATOM      2  O   UNL     1       2.308   3.381  17.108  0.00  0.00    +0.000 OA
ATOM      3  N   UNL     1       2.499   5.218  18.448  0.00  0.00    +0.000 N 
ATOM      4  C   UNL     1       2.260   5.990  19.647  0.00  0.00    +0.000 C 
ATOM      5  C   UNL     1       2.309   7.429  19.173  0.00  0.00    +0.000 C 
ATOM      6  C   UNL     1       3.325   7.415  18.036  0.00  0.00    +0.000 C 
ATOM      7  C   UNL     1       3.290   5.978  17.480  0.00  0.00    +0.000 C 
ENDROOT
BRANCH   7   8
ATOM      8  C   UNL     1       4.704   5.433  17.304  0.00  0.00    +0.000 A 
ATOM      9  C   UNL     1       5.172   5.099  16.034  0.00  0.00    +0.000 A 
ATOM     10  C   UNL     1       6.474   4.623  15.896  0.00  0.00    +0.000 A 
ATOM     11  C   UNL     1       7.276   4.493  17.022  0.00  0.00    +0.000 A 
ATOM     12  C   UNL     1       6.739   4.843  18.249  0.00  0.00    +0.000 A 
ATOM     13  N   UNL     1       5.482   5.309  18.415  0.00  0.00    +0.000 NA
ENDBRANCH   7   8
BRANCH   1  14
ATOM     14  C   UNL     1       1.249   3.211  19.271  0.00  0.00    +0.000 C 
BRANCH  14  16
ATOM     15  C   UNL     1       3.521   2.500  19.774  0.00  0.00    +0.000 C 
ATOM     16  N   UNL     1       2.106   2.369  20.145  0.00  0.00    +0.000 NA
ATOM     17  C   UNL     1       1.944   2.771  21.545  0.00  0.00    +0.000 C 
ENDBRANCH  14  16
ENDBRANCH   1  14
TORSDOF 3
ENDMDL
MODEL 5
REMARK VINA RESULT:      -6.3      1.082      1.645
REMARK  Name = 
REMARK  5 active torsions:
REMARK  status: ('A' for Active; 'I' for Inactive)
REMARK    1  A    between atoms: C_1  and  N_2
REMARK    2  A    between atoms: N_2  and  C_3
REMARK    3  A    between atoms: N_2  and  C_4
REMARK    4  A    between atoms: C_4  and  C_5
REMARK    5  A    between atoms: C_11  and  C_12
REMARK                            x       y       z     vdW  Elec       q    Type
REMARK                         _______ _______ _______ _____ _____    ______ ____
ROOT
ATOM      1  C   UNL     1       5.405   4.997  18.558  0.00  0.00    +0.000 C 
ATOM      2  O   UNL     1       5.543   4.337  19.590  0.00  0.00    +0.000 OA
ATOM      3  N   UNL     1       4.330   5.841  18.377  0.00  0.00    +0.000 N 
ATOM      4  C   UNL     1       4.070   6.694  17.238  0.00  0.00    +0.000 C 
ATOM      5  C   UNL     1       3.240   7.826  17.809  0.00  0.00    +0.000 C 
ATOM      6  C   UNL     1       2.431   7.173  18.925  0.00  0.00    +0.000 C 
ATOM      7  C   UNL     1       3.274   5.966  19.381  0.00  0.00    +0.000 C 
ENDROOT
BRANCH   7   8
ATOM      8  C   UNL     1       2.407   4.716  19.495  0.00  0.00    +0.000 A 
ATOM      9  C   UNL     1       1.879   4.123  18.349  0.00  0.00    +0.000 A 
ATOM     10  C   UNL     1       1.107   2.970  18.477  0.00  0.00    +0.000 A 
ATOM     11  C   UNL     1       0.880   2.438  19.739  0.00  0.00    +0.000 A 
ATOM     12  C   UNL     1       1.435   3.085  20.829  0.00  0.00    +0.000 A 
ATOM     13  N   UNL     1       2.190   4.202  20.738  0.00  0.00    +0.000 NA
ENDBRANCH   7   8
BRANCH   1  14
ATOM     14  C   UNL     1       6.465   4.931  17.439  0.00  0.00    +0.000 C 
BRANCH  14  16
ATOM     15  C   UNL     1       7.459   7.149  17.308  0.00  0.00    +0.000 C 
ATOM     16  N   UNL     1       7.654   5.763  17.757  0.00  0.00    +0.000 NA
ATOM     17  C   UNL     1       7.896   5.763  19.202  0.00  0.00    +0.000 C 
ENDBRANCH  14  16
ENDBRANCH   1  14
TORSDOF 3
ENDMDL
MODEL 6
REMARK VINA RESULT:      -6.2      1.779      2.879
REMARK  Name = 
REMARK  5 active torsions:
REMARK  status: ('A' for Active; 'I' for Inactive)
REMARK    1  A    between atoms: C_1  and  N_2
REMARK    2  A    between atoms: N_2  and  C_3
REMARK    3  A    between atoms: N_2  and  C_4
REMARK    4  A    between atoms: C_4  and  C_5
REMARK    5  A    between atoms: C_11  and  C_12
REMARK                            x       y       z     vdW  Elec       q    Type
REMARK                         _______ _______ _______ _____ _____    ______ ____
ROOT
ATOM      1  C   UNL     1       5.295   4.298  16.260  0.00  0.00    +0.000 C 
ATOM      2  O   UNL     1       4.724   3.229  16.487  0.00  0.00    +0.000 OA
ATOM      3  N   UNL     1       5.880   5.034  17.268  0.00  0.00    +0.000 N 
ATOM      4  C   UNL     1       6.608   6.277  17.133  0.00  0.00    +0.000 C 
ATOM      5  C   UNL     1       7.558   6.275  18.313  0.00  0.00    +0.000 C 
ATOM      6  C   UNL     1       6.794   5.540  19.409  0.00  0.00    +0.000 C 
ATOM      7  C   UNL     1       5.817   4.609  18.666  0.00  0.00    +0.000 C 
ENDROOT
BRANCH   7   8
ATOM      8  C   UNL     1       4.415   4.714  19.260  0.00  0.00    +0.000 A 
ATOM      9  C   UNL     1       3.738   5.933  19.245  0.00  0.00    +0.000 A 
ATOM     10  C   UNL     1       2.451   5.999  19.775  0.00  0.00    +0.000 A 
ATOM     11  C   UNL     1       1.873   4.853  20.306  0.00  0.00    +0.000 A 
ATOM     12  C   UNL     1       2.609   3.682  20.287  0.00  0.00    +0.000 A 
ATOM     13  N   UNL     1       3.857   3.585  19.779  0.00  0.00    +0.000 NA
ENDBRANCH   7   8
BRANCH   1  14
ATOM     14  C   UNL     1       5.410   4.831  14.817  0.00  0.00    +0.000 C 
BRANCH  14  16
ATOM     15  C   UNL     1       5.896   3.518  12.827  0.00  0.00    +0.000 C 
ATOM     16  N   UNL     1       6.458   4.113  14.047  0.00  0.00    +0.000 NA
ATOM     17  C   UNL     1       7.529   5.040  13.671  0.00  0.00    +0.000 C 
ENDBRANCH  14  16
ENDBRANCH   1  14
TORSDOF 3
ENDMDL
MODEL 7
REMARK VINA RESULT:      -6.1      1.540      4.810
REMARK  Name = 
REMARK  5 active torsions:
REMARK  status: ('A' for Active; 'I' for Inactive)
REMARK    1  A    between atoms: C_1  and  N_2
REMARK    2  A    between atoms: N_2  and  C_3
REMARK    3  A    between atoms: N_2  and  C_4
REMARK    4  A    between atoms: C_4  and  C_5
REMARK    5  A    between atoms: C_11  and  C_12
REMARK                            x       y       z     vdW  Elec       q    Type
REMARK                         _______ _______ _______ _____ _____    ______ ____
ROOT
ATOM      1  C   UNL     1       2.280   3.985  18.198  0.00  0.00    +0.000 C 
ATOM      2  O   UNL     1       2.596   3.371  17.177  0.00  0.00    +0.000 OA
ATOM      3  N   UNL     1       2.651   5.298  18.395  0.00  0.00    +0.000 N 
ATOM      4  C   UNL     1       2.318   6.141  19.523  0.00  0.00    +0.000 C 
ATOM      5  C   UNL     1       2.353   7.545  18.955  0.00  0.00    +0.000 C 
ATOM      6  C   UNL     1       3.435   7.489  17.881  0.00  0.00    +0.000 C 
ATOM      7  C   UNL     1       3.475   6.018  17.424  0.00  0.00    +0.000 C 
ENDROOT
BRANCH   7   8
ATOM      8  C   UNL     1       4.913   5.511  17.367  0.00  0.00    +0.000 A 
ATOM      9  C   UNL     1       5.729   5.592  18.495  0.00  0.00    +0.000 A 
ATOM     10  C   UNL     1       7.032   5.104  18.424  0.00  0.00    +0.000 A 
ATOM     11  C   UNL     1       7.489   4.548  17.237  0.00  0.00    +0.000 A 
ATOM     12  C   UNL     1       6.620   4.505  16.160  0.00  0.00    +0.000 A 
ATOM     13  N   UNL     1       5.352   4.967  16.197  0.00  0.00    +0.000 NA
ENDBRANCH   7   8
BRANCH   1  14
ATOM     14  C   UNL     1       1.415   3.311  19.281  0.00  0.00    +0.000 C 
BRANCH  14  16
ATOM     15  C   UNL     1       3.669   2.711  19.976  0.00  0.00    +0.000 C 
ATOM     16  N   UNL     1       2.235   2.494  20.213  0.00  0.00    +0.000 NA
ATOM     17  C   UNL     1       1.925   2.851  21.600  0.00  0.00    +0.000 C 
ENDBRANCH  14  16
ENDBRANCH   1  14
TORSDOF 3
ENDMDL
MODEL 8
REMARK VINA RESULT:      -6.1      1.622      5.163
REMARK  Name = 
REMARK  5 active torsions:
REMARK  status: ('A' for Active; 'I' for Inactive)
REMARK    1  A    between atoms: C_1  and  N_2
REMARK    2  A    between atoms: N_2  and  C_3
REMARK    3  A    between atoms: N_2  and  C_4
REMARK    4  A    between atoms: C_4  and  C_5
REMARK    5  A    between atoms: C_11  and  C_12
REMARK                            x       y       z     vdW  Elec       q    Type
REMARK                         _______ _______ _______ _____ _____    ______ ____
ROOT
ATOM      1  C   UNL     1       3.144   5.396  19.375  0.00  0.00    +0.000 C 
ATOM      2  O   UNL     1       4.225   5.744  19.854  0.00  0.00    +0.000 OA
ATOM      3  N   UNL     1       3.004   4.203  18.699  0.00  0.00    +0.000 N 
ATOM      4  C   UNL     1       1.792   3.662  18.123  0.00  0.00    +0.000 C 
ATOM      5  C   UNL     1       2.015   2.163  18.141  0.00  0.00    +0.000 C 
ATOM      6  C   UNL     1       3.518   2.004  17.938  0.00  0.00    +0.000 C 
ATOM      7  C   UNL     1       4.139   3.307  18.477  0.00  0.00    +0.000 C 
ENDROOT
BRANCH   7   8
ATOM      8  C   UNL     1       5.158   3.867  17.490  0.00  0.00    +0.000 A 
ATOM      9  C   UNL     1       4.800   4.082  16.160  0.00  0.00    +0.000 A 
ATOM     10  C   UNL     1       5.742   4.613  15.282  0.00  0.00    +0.000 A 
ATOM     11  C   UNL     1       7.015   4.916  15.748  0.00  0.00    +0.000 A 
ATOM     12  C   UNL     1       7.296   4.672  17.081  0.00  0.00    +0.000 A 
ATOM     13  N   UNL     1       6.404   4.161  17.957  0.00  0.00    +0.000 NA
ENDBRANCH   7   8
BRANCH   1  14
ATOM     14  C   UNL     1       1.889   6.275  19.553  0.00  0.00    +0.000 C 
BRANCH  14  16
ATOM     15  C   UNL     1       2.082   8.382  18.351  0.00  0.00    +0.000 C 
ATOM     16  N   UNL     1       2.236   7.716  19.652  0.00  0.00    +0.000 NA
ATOM     17  C   UNL     1       1.364   8.377  20.628  0.00  0.00    +0.000 C 
ENDBRANCH  14  16
ENDBRANCH   1  14
TORSDOF 3
ENDMDL
MODEL 9
REMARK VINA RESULT:      -6.1      1.890      2.974
REMARK  Name = 
REMARK  5 active torsions:
REMARK  status: ('A' for Active; 'I' for Inactive)
REMARK    1  A    between atoms: C_1  and  N_2
REMARK    2  A    between atoms: N_2  and  C_3
REMARK    3  A    between atoms: N_2  and  C_4
REMARK    4  A    between atoms: C_4  and  C_5
REMARK    5  A    between atoms: C_11  and  C_12
REMARK                            x       y       z     vdW  Elec       q    Type
REMARK                         _______ _______ _______ _____ _____    ______ ____
ROOT
ATOM      1  C   UNL     1       5.279   4.310  16.258  0.00  0.00    +0.000 C 
ATOM      2  O   UNL     1       4.683   3.254  16.482  0.00  0.00    +0.000 OA
ATOM      3  N   UNL     1       5.872   5.034  17.271  0.00  0.00    +0.000 N 
ATOM      4  C   UNL     1       6.628   6.260  17.141  0.00  0.00    +0.000 C 
ATOM      5  C   UNL     1       7.569   6.239  18.329  0.00  0.00    +0.000 C 
ATOM      6  C   UNL     1       6.779   5.521  19.419  0.00  0.00    +0.000 C 
ATOM      7  C   UNL     1       5.788   4.611  18.668  0.00  0.00    +0.000 C 
ENDROOT
BRANCH   7   8
ATOM      8  C   UNL     1       4.384   4.748  19.251  0.00  0.00    +0.000 A 
ATOM      9  C   UNL     1       3.750   3.641  19.815  0.00  0.00    +0.000 A 
ATOM     10  C   UNL     1       2.477   3.795  20.360  0.00  0.00    +0.000 A 
ATOM     11  C   UNL     1       1.868   5.043  20.329  0.00  0.00    +0.000 A 
ATOM     12  C   UNL     1       2.560   6.092  19.750  0.00  0.00    +0.000 A 
ATOM     13  N   UNL     1       3.796   5.976  19.216  0.00  0.00    +0.000 NA
ENDBRANCH   7   8
BRANCH   1  14
ATOM     14  C   UNL     1       5.418   4.839  14.817  0.00  0.00    +0.000 C 
BRANCH  14  16
ATOM     15  C   UNL     1       5.930   3.525  12.833  0.00  0.00    +0.000 C 
ATOM     16  N   UNL     1       6.474   4.116  14.063  0.00  0.00    +0.000 NA
ATOM     17  C   UNL     1       7.558   5.036  13.708  0.00  0.00    +0.000 C 
ENDBRANCH  14  16
ENDBRANCH   1  14
TORSDOF 3
ENDMDL
