MODEL 1
REMARK VINA RESULT:      -8.1      0.000      0.000
REMARK  Name = 
REMARK  3 active torsions:
REMARK  status: ('A' for Active; 'I' for Inactive)
REMARK    1  A    between atoms: C_4  and  C_5
REMARK    2  A    between atoms: N_13  and  C_14
REMARK    3  A    between atoms: N_22  and  C_23
REMARK                            x       y       z     vdW  Elec       q    Type
REMARK                         _______ _______ _______ _____ _____    ______ ____
ROOT
ATOM      1  C   UNL     1       6.205  12.558  27.314  0.00  0.00    +0.000 A 
ATOM      2  N   UNL     1       7.154  13.051  28.087  0.00  0.00    +0.000 NA
ATOM      3  C   UNL     1       7.166  14.389  27.819  0.00  0.00    +0.000 A 
ATOM      4  C   UNL     1       8.063  15.373  28.263  0.00  0.00    +0.000 A 
ATOM      5  C   UNL     1       7.846  16.691  27.861  0.00  0.00    +0.000 A 
ATOM      6  C   UNL     1       6.702  17.023  27.129  0.00  0.00    +0.000 A 
ATOM      7  C   UNL     1       5.837  16.038  26.624  0.00  0.00    +0.000 A 
ATOM      8  C   UNL     1       6.186  14.707  26.880  0.00  0.00    +0.000 A 
ATOM      9  N   UNL     1       5.914  13.469  26.299  0.00  0.00    +0.000 N 
ENDROOT
BRANCH   1  13
ATOM     10  O   UNL     1       2.572   9.490  27.225  0.00  0.00    +0.000 OA
ATOM     11  C   UNL     1       3.741   9.741  27.490  0.00  0.00    +0.000 A 
ATOM     12  C   UNL     1       4.292  11.091  27.216  0.00  0.00    +0.000 A 
ATOM     13  C   UNL     1       5.592  11.287  27.451  0.00  0.00    +0.000 A 
ATOM     14  N   UNL     1       6.383  10.292  27.973  0.00  0.00    +0.000 N 
ATOM     15  C   UNL     1       5.932   9.037  28.253  0.00  0.00    +0.000 A 
ATOM     16  O   UNL     1       6.663   8.162  28.700  0.00  0.00    +0.000 OA
ATOM     17  N   UNL     1       4.607   8.820  27.984  0.00  0.00    +0.000 N 
ATOM     18  H   UNL     1       7.343  10.511  28.211  0.00  0.00    +0.000 HD
ATOM     19  H   UNL     1       4.256   7.893  28.177  0.00  0.00    +0.000 HD
ENDBRANCH   1  13
BRANCH   9  20
ATOM     20  C   UNL     1       5.590  13.163  24.885  0.00  0.00    +0.000 C 
ATOM     21  C   UNL     1       6.116  11.818  24.300  0.00  0.00    +0.000 C 
ATOM     22  C   UNL     1       7.583  11.813  23.743  0.00  0.00    +0.000 C 
ATOM     23  C   UNL     1       8.598  11.944  24.869  0.00  0.00    +0.000 C 
ATOM     24  C   UNL     1       8.956  13.386  25.244  0.00  0.00    +0.000 C 
ATOM     25  C   UNL     1       8.397  14.548  24.386  0.00  0.00    +0.000 C 
ATOM     26  C   UNL     1       7.439  14.143  23.283  0.00  0.00    +0.000 C 
ATOM     27  C   UNL     1       5.961  14.194  23.793  0.00  0.00    +0.000 C 
ATOM     28  N   UNL     1       7.829  12.842  22.716  0.00  0.00    +0.000 NA
BRANCH  28  29
ATOM     29  C   UNL     1       9.181  12.780  21.988  0.00  0.00    +0.000 C 
ATOM     30  C   UNL     1       9.071  11.864  20.774  0.00  0.00    +0.000 C 
ATOM     31  C   UNL     1      10.426  11.514  20.113  0.00  0.00    +0.000 C 
ATOM     32  C   UNL     1      10.180  11.077  18.678  0.00  0.00    +0.000 C 
ATOM     33  C   UNL     1       9.635  12.125  17.707  0.00  0.00    +0.000 C 
ATOM     34  C   UNL     1      10.034  13.607  17.724  0.00  0.00    +0.000 C 
ATOM     35  C   UNL     1      10.330  14.485  18.956  0.00  0.00    +0.000 C 
ATOM     36  C   UNL     1      10.920  13.947  20.284  0.00  0.00    +0.000 C 
ATOM     37  C   UNL     1      11.515  12.582  20.141  0.00  0.00    +0.000 C 
ATOM     38  C   UNL     1       9.984  14.051  21.525  0.00  0.00    +0.000 C 
ENDBRANCH  28  29
ENDBRANCH   9  20
TORSDOF 3
ENDMDL
MODEL 2
REMARK VINA RESULT:      -7.4      7.979      9.930
REMARK  Name = 
REMARK  3 active torsions:
REMARK  status: ('A' for Active; 'I' for Inactive)
REMARK    1  A    between atoms: C_4  and  C_5
REMARK    2  A    between atoms: N_13  and  C_14
REMARK    3  A    between atoms: N_22  and  C_23
REMARK                            x       y       z     vdW  Elec       q    Type
REMARK                         _______ _______ _______ _____ _____    ______ ____
ROOT
ATOM      1  C   UNL     1      -2.778  12.700  20.794  0.00  0.00    +0.000 A 
ATOM      2  N   UNL     1      -3.290  12.833  19.586  0.00  0.00    +0.000 NA
ATOM      3  C   UNL     1      -2.671  11.877  18.834  0.00  0.00    +0.000 A 
ATOM      4  C   UNL     1      -2.740  11.656  17.450  0.00  0.00    +0.000 A 
ATOM      5  C   UNL     1      -2.021  10.585  16.918  0.00  0.00    +0.000 A 
ATOM      6  C   UNL     1      -1.345   9.702  17.766  0.00  0.00    +0.000 A 
ATOM      7  C   UNL     1      -1.214   9.954  19.142  0.00  0.00    +0.000 A 
ATOM      8  C   UNL     1      -1.785  11.140  19.619  0.00  0.00    +0.000 A 
ATOM      9  N   UNL     1      -1.589  11.976  20.718  0.00  0.00    +0.000 N 
ENDROOT
BRANCH   1  13
ATOM     10  O   UNL     1      -3.853  16.171  23.864  0.00  0.00    +0.000 OA
ATOM     11  C   UNL     1      -3.789  14.978  23.593  0.00  0.00    +0.000 A 
ATOM     12  C   UNL     1      -3.290  14.544  22.264  0.00  0.00    +0.000 A 
ATOM     13  C   UNL     1      -3.314  13.237  21.992  0.00  0.00    +0.000 A 
ATOM     14  N   UNL     1      -3.737  12.320  22.924  0.00  0.00    +0.000 N 
ATOM     15  C   UNL     1      -4.197  12.658  24.162  0.00  0.00    +0.000 A 
ATOM     16  O   UNL     1      -4.588  11.821  24.967  0.00  0.00    +0.000 OA
ATOM     17  N   UNL     1      -4.206  14.000  24.435  0.00  0.00    +0.000 N 
ATOM     18  H   UNL     1      -3.661  11.334  22.703  0.00  0.00    +0.000 HD
ATOM     19  H   UNL     1      -4.550  14.270  25.345  0.00  0.00    +0.000 HD
ENDBRANCH   1  13
BRANCH   9  20
ATOM     20  C   UNL     1      -0.351  12.198  21.501  0.00  0.00    +0.000 C 
ATOM     21  C   UNL     1      -0.061  13.648  21.994  0.00  0.00    +0.000 C 
ATOM     22  C   UNL     1       0.659  14.609  20.983  0.00  0.00    +0.000 C 
ATOM     23  C   UNL     1      -0.260  14.978  19.828  0.00  0.00    +0.000 C 
ATOM     24  C   UNL     1      -0.213  14.013  18.638  0.00  0.00    +0.000 C 
ATOM     25  C   UNL     1       0.832  12.870  18.638  0.00  0.00    +0.000 C 
ATOM     26  C   UNL     1       1.668  12.748  19.897  0.00  0.00    +0.000 C 
ATOM     27  C   UNL     1       1.003  11.749  20.902  0.00  0.00    +0.000 C 
ATOM     28  N   UNL     1       1.933  14.078  20.467  0.00  0.00    +0.000 NA
BRANCH  28  29
ATOM     29  C   UNL     1       2.788  15.036  19.622  0.00  0.00    +0.000 C 
ATOM     30  C   UNL     1       3.878  15.655  20.490  0.00  0.00    +0.000 C 
ATOM     31  C   UNL     1       4.636  16.829  19.823  0.00  0.00    +0.000 C 
ATOM     32  C   UNL     1       5.982  17.003  20.507  0.00  0.00    +0.000 C 
ATOM     33  C   UNL     1       6.998  15.869  20.361  0.00  0.00    +0.000 C 
ATOM     34  C   UNL     1       7.182  15.036  19.086  0.00  0.00    +0.000 C 
ATOM     35  C   UNL     1       6.089  14.569  18.104  0.00  0.00    +0.000 C 
ATOM     36  C   UNL     1       4.780  15.350  17.827  0.00  0.00    +0.000 C 
ATOM     37  C   UNL     1       4.836  16.763  18.312  0.00  0.00    +0.000 C 
ATOM     38  C   UNL     1       3.466  14.633  18.261  0.00  0.00    +0.000 C 
ENDBRANCH  28  29
ENDBRANCH   9  20
TORSDOF 3
ENDMDL
MODEL 3
REMARK VINA RESULT:      -7.4      7.996      9.969
REMARK  Name = 
REMARK  3 active torsions:
REMARK  status: ('A' for Active; 'I' for Inactive)
REMARK    1  A    between atoms: C_4  and  C_5
REMARK    2  A    between atoms: N_13  and  C_14
REMARK    3  A    between atoms: N_22  and  C_23
REMARK                            x       y       z     vdW  Elec       q    Type
REMARK                         _______ _______ _______ _____ _____    ______ ____
ROOT
ATOM      1  C   UNL     1      -2.736  12.635  20.898  0.00  0.00    +0.000 A 
ATOM      2  N   UNL     1      -3.296  12.809  19.716  0.00  0.00    +0.000 NA
ATOM      3  C   UNL     1      -2.708  11.881  18.907  0.00  0.00    +0.000 A 
ATOM      4  C   UNL     1      -2.833  11.708  17.520  0.00  0.00    +0.000 A 
ATOM      5  C   UNL     1      -2.136  10.659  16.921  0.00  0.00    +0.000 A 
ATOM      6  C   UNL     1      -1.426   9.748  17.709  0.00  0.00    +0.000 A 
ATOM      7  C   UNL     1      -1.239   9.951  19.087  0.00  0.00    +0.000 A 
ATOM      8  C   UNL     1      -1.790  11.118  19.628  0.00  0.00    +0.000 A 
ATOM      9  N   UNL     1      -1.550  11.915  20.747  0.00  0.00    +0.000 N 
ENDROOT
BRANCH   1  13
ATOM     10  O   UNL     1      -4.468  12.255  25.311  0.00  0.00    +0.000 OA
ATOM     11  C   UNL     1      -4.179  12.945  24.341  0.00  0.00    +0.000 A 
ATOM     12  C   UNL     1      -3.591  12.319  23.132  0.00  0.00    +0.000 A 
ATOM     13  C   UNL     1      -3.223  13.128  22.135  0.00  0.00    +0.000 A 
ATOM     14  N   UNL     1      -3.426  14.485  22.202  0.00  0.00    +0.000 N 
ATOM     15  C   UNL     1      -3.969  15.115  23.281  0.00  0.00    +0.000 A 
ATOM     16  O   UNL     1      -4.121  16.330  23.324  0.00  0.00    +0.000 OA
ATOM     17  N   UNL     1      -4.319  14.295  24.321  0.00  0.00    +0.000 N 
ATOM     18  H   UNL     1      -3.206  15.049  21.389  0.00  0.00    +0.000 HD
ATOM     19  H   UNL     1      -4.716  14.745  25.133  0.00  0.00    +0.000 HD
ENDBRANCH   1  13
BRANCH   9  20
ATOM     20  C   UNL     1      -0.281  12.113  21.486  0.00  0.00    +0.000 C 
ATOM     21  C   UNL     1       0.036  13.548  22.003  0.00  0.00    +0.000 C 
ATOM     22  C   UNL     1       0.721  14.531  20.989  0.00  0.00    +0.000 C 
ATOM     23  C   UNL     1      -0.240  14.933  19.880  0.00  0.00    +0.000 C 
ATOM     24  C   UNL     1      -0.244  13.997  18.666  0.00  0.00    +0.000 C 
ATOM     25  C   UNL     1       0.793  12.850  18.597  0.00  0.00    +0.000 C 
ATOM     26  C   UNL     1       1.676  12.692  19.819  0.00  0.00    +0.000 C 
ATOM     27  C   UNL     1       1.046  11.673  20.825  0.00  0.00    +0.000 C 
ATOM     28  N   UNL     1       1.972  14.007  20.411  0.00  0.00    +0.000 NA
BRANCH  28  29
ATOM     29  C   UNL     1       2.798  14.982  19.557  0.00  0.00    +0.000 C 
ATOM     30  C   UNL     1       3.952  15.539  20.382  0.00  0.00    +0.000 C 
ATOM     31  C   UNL     1       4.698  16.723  19.722  0.00  0.00    +0.000 C 
ATOM     32  C   UNL     1       6.086  16.839  20.330  0.00  0.00    +0.000 C 
ATOM     33  C   UNL     1       7.063  15.690  20.076  0.00  0.00    +0.000 C 
ATOM     34  C   UNL     1       7.152  14.908  18.759  0.00  0.00    +0.000 C 
ATOM     35  C   UNL     1       5.991  14.508  17.825  0.00  0.00    +0.000 C 
ATOM     36  C   UNL     1       4.688  15.329  17.660  0.00  0.00    +0.000 C 
ATOM     37  C   UNL     1       4.807  16.719  18.200  0.00  0.00    +0.000 C 
ATOM     38  C   UNL     1       3.385  14.623  18.142  0.00  0.00    +0.000 C 
ENDBRANCH  28  29
ENDBRANCH   9  20
TORSDOF 3
ENDMDL
MODEL 4
REMARK VINA RESULT:      -7.2      8.386     10.171
REMARK  Name = 
REMARK  3 active torsions:
REMARK  status: ('A' for Active; 'I' for Inactive)
REMARK    1  A    between atoms: C_4  and  C_5
REMARK    2  A    between atoms: N_13  and  C_14
REMARK    3  A    between atoms: N_22  and  C_23
REMARK                            x       y       z     vdW  Elec       q    Type
REMARK                         _______ _______ _______ _____ _____    ______ ____
ROOT
ATOM      1  C   UNL     1      -1.259  13.375  21.487  0.00  0.00    +0.000 A 
ATOM      2  N   UNL     1      -0.212  13.928  22.069  0.00  0.00    +0.000 NA
ATOM      3  C   UNL     1       0.610  14.290  21.041  0.00  0.00    +0.000 A 
ATOM      4  C   UNL     1       1.916  14.802  21.091  0.00  0.00    +0.000 A 
ATOM      5  C   UNL     1       2.545  15.118  19.886  0.00  0.00    +0.000 A 
ATOM      6  C   UNL     1       1.841  15.027  18.682  0.00  0.00    +0.000 A 
ATOM      7  C   UNL     1       0.560  14.453  18.616  0.00  0.00    +0.000 A 
ATOM      8  C   UNL     1       0.029  13.967  19.816  0.00  0.00    +0.000 A 
ATOM      9  N   UNL     1      -0.932  13.023  20.178  0.00  0.00    +0.000 N 
ENDROOT
BRANCH   1  13
ATOM     10  O   UNL     1      -4.167  11.881  24.942  0.00  0.00    +0.000 OA
ATOM     11  C   UNL     1      -4.002  12.298  23.802  0.00  0.00    +0.000 A 
ATOM     12  C   UNL     1      -2.634  12.604  23.314  0.00  0.00    +0.000 A 
ATOM     13  C   UNL     1      -2.518  13.129  22.092  0.00  0.00    +0.000 A 
ATOM     14  N   UNL     1      -3.618  13.334  21.294  0.00  0.00    +0.000 N 
ATOM     15  C   UNL     1      -4.895  13.065  21.684  0.00  0.00    +0.000 A 
ATOM     16  O   UNL     1      -5.860  13.276  20.960  0.00  0.00    +0.000 OA
ATOM     17  N   UNL     1      -5.024  12.556  22.949  0.00  0.00    +0.000 N 
ATOM     18  H   UNL     1      -3.474  13.658  20.344  0.00  0.00    +0.000 HD
ATOM     19  H   UNL     1      -5.965  12.357  23.258  0.00  0.00    +0.000 HD
ENDBRANCH   1  13
BRANCH   9  20
ATOM     20  C   UNL     1      -1.363  11.813  19.440  0.00  0.00    +0.000 C 
ATOM     21  C   UNL     1      -1.547  10.498  20.256  0.00  0.00    +0.000 C 
ATOM     22  C   UNL     1      -0.262   9.631  20.501  0.00  0.00    +0.000 C 
ATOM     23  C   UNL     1       0.692  10.324  21.463  0.00  0.00    +0.000 C 
ATOM     24  C   UNL     1       1.698  11.270  20.798  0.00  0.00    +0.000 C 
ATOM     25  C   UNL     1       1.765  11.331  19.252  0.00  0.00    +0.000 C 
ATOM     26  C   UNL     1       0.729  10.500  18.520  0.00  0.00    +0.000 C 
ATOM     27  C   UNL     1      -0.544  11.356  18.210  0.00  0.00    +0.000 C 
ATOM     28  N   UNL     1       0.448   9.261  19.262  0.00  0.00    +0.000 NA
BRANCH  28  29
ATOM     29  C   UNL     1       1.604   8.259  19.404  0.00  0.00    +0.000 C 
ATOM     30  C   UNL     1       1.148   7.059  20.226  0.00  0.00    +0.000 C 
ATOM     31  C   UNL     1       2.290   6.109  20.658  0.00  0.00    +0.000 C 
ATOM     32  C   UNL     1       1.706   4.742  20.977  0.00  0.00    +0.000 C 
ATOM     33  C   UNL     1       1.083   3.956  19.823  0.00  0.00    +0.000 C 
ATOM     34  C   UNL     1       1.631   3.950  18.389  0.00  0.00    +0.000 C 
ATOM     35  C   UNL     1       2.267   5.127  17.623  0.00  0.00    +0.000 C 
ATOM     36  C   UNL     1       3.061   6.273  18.297  0.00  0.00    +0.000 C 
ATOM     37  C   UNL     1       3.467   5.949  19.700  0.00  0.00    +0.000 C 
ATOM     38  C   UNL     1       2.421   7.689  18.186  0.00  0.00    +0.000 C 
ENDBRANCH  28  29
ENDBRANCH   9  20
TORSDOF 3
ENDMDL
MODEL 5
REMARK VINA RESULT:      -7.1      8.203     10.382
REMARK  Name = 
REMARK  3 active torsions:
REMARK  status: ('A' for Active; 'I' for Inactive)
REMARK    1  A    between atoms: C_4  and  C_5
REMARK    2  A    between atoms: N_13  and  C_14
REMARK    3  A    between atoms: N_22  and  C_23
REMARK                            x       y       z     vdW  Elec       q    Type
REMARK                         _______ _______ _______ _____ _____    ______ ____
ROOT
ATOM      1  C   UNL     1      -1.355  10.802  19.040  0.00  0.00    +0.000 A 
ATOM      2  N   UNL     1      -0.450   9.845  18.960  0.00  0.00    +0.000 NA
ATOM      3  C   UNL     1       0.010   9.689  20.236  0.00  0.00    +0.000 A 
ATOM      4  C   UNL     1       1.070   8.897  20.704  0.00  0.00    +0.000 A 
ATOM      5  C   UNL     1       1.333   8.892  22.074  0.00  0.00    +0.000 A 
ATOM      6  C   UNL     1       0.486   9.573  22.954  0.00  0.00    +0.000 A 
ATOM      7  C   UNL     1      -0.535  10.421  22.490  0.00  0.00    +0.000 A 
ATOM      8  C   UNL     1      -0.652  10.558  21.102  0.00  0.00    +0.000 A 
ATOM      9  N   UNL     1      -1.179  11.509  20.229  0.00  0.00    +0.000 N 
ENDROOT
BRANCH   1  13
ATOM     10  O   UNL     1      -5.593  12.327  17.514  0.00  0.00    +0.000 OA
ATOM     11  C   UNL     1      -4.511  11.801  17.286  0.00  0.00    +0.000 A 
ATOM     12  C   UNL     1      -3.529  11.615  18.382  0.00  0.00    +0.000 A 
ATOM     13  C   UNL     1      -2.336  11.108  18.063  0.00  0.00    +0.000 A 
ATOM     14  N   UNL     1      -2.043  10.724  16.777  0.00  0.00    +0.000 N 
ATOM     15  C   UNL     1      -2.906  10.861  15.732  0.00  0.00    +0.000 A 
ATOM     16  O   UNL     1      -2.612  10.528  14.590  0.00  0.00    +0.000 OA
ATOM     17  N   UNL     1      -4.120  11.411  16.046  0.00  0.00    +0.000 N 
ATOM     18  H   UNL     1      -1.155  10.268  16.597  0.00  0.00    +0.000 HD
ATOM     19  H   UNL     1      -4.771  11.528  15.283  0.00  0.00    +0.000 HD
ENDBRANCH   1  13
BRANCH   9  20
ATOM     20  C   UNL     1      -1.330  12.969  20.435  0.00  0.00    +0.000 C 
ATOM     21  C   UNL     1      -1.125  13.896  19.200  0.00  0.00    +0.000 C 
ATOM     22  C   UNL     1       0.350  14.312  18.863  0.00  0.00    +0.000 C 
ATOM     23  C   UNL     1       1.152  13.125  18.349  0.00  0.00    +0.000 C 
ATOM     24  C   UNL     1       1.842  12.297  19.439  0.00  0.00    +0.000 C 
ATOM     25  C   UNL     1       1.800  12.798  20.903  0.00  0.00    +0.000 C 
ATOM     26  C   UNL     1       0.970  14.043  21.145  0.00  0.00    +0.000 C 
ATOM     27  C   UNL     1      -0.495  13.659  21.540  0.00  0.00    +0.000 C 
ATOM     28  N   UNL     1       1.057  14.950  19.990  0.00  0.00    +0.000 NA
BRANCH  28  29
ATOM     29  C   UNL     1       2.437  15.554  19.685  0.00  0.00    +0.000 C 
ATOM     30  C   UNL     1       2.718  16.706  20.643  0.00  0.00    +0.000 C 
ATOM     31  C   UNL     1       3.954  17.560  20.271  0.00  0.00    +0.000 C 
ATOM     32  C   UNL     1       4.443  18.293  21.509  0.00  0.00    +0.000 C 
ATOM     33  C   UNL     1       4.998  17.446  22.655  0.00  0.00    +0.000 C 
ATOM     34  C   UNL     1       5.829  16.171  22.461  0.00  0.00    +0.000 C 
ATOM     35  C   UNL     1       5.658  15.096  21.369  0.00  0.00    +0.000 C 
ATOM     36  C   UNL     1       5.119  15.384  19.945  0.00  0.00    +0.000 C 
ATOM     37  C   UNL     1       5.126  16.841  19.608  0.00  0.00    +0.000 C 
ATOM     38  C   UNL     1       3.760  14.708  19.593  0.00  0.00    +0.000 C 
ENDBRANCH  28  29
ENDBRANCH   9  20
TORSDOF 3
ENDMDL
MODEL 6
REMARK VINA RESULT:      -7.0      8.458     10.128
REMARK  Name = 
REMARK  3 active torsions:
REMARK  status: ('A' for Active; 'I' for Inactive)
REMARK    1  A    between atoms: C_4  and  C_5
REMARK    2  A    between atoms: N_13  and  C_14
REMARK    3  A    between atoms: N_22  and  C_23
REMARK                            x       y       z     vdW  Elec       q    Type
REMARK                         _______ _______ _______ _____ _____    ______ ____
ROOT
ATOM      1  C   UNL     1      -1.676  13.398  21.548  0.00  0.00    +0.000 A 
ATOM      2  N   UNL     1      -0.700  13.943  22.248  0.00  0.00    +0.000 NA
ATOM      3  C   UNL     1       0.186  14.404  21.317  0.00  0.00    +0.000 A 
ATOM      4  C   UNL     1       1.463  14.954  21.507  0.00  0.00    +0.000 A 
ATOM      5  C   UNL     1       2.171  15.375  20.381  0.00  0.00    +0.000 A 
ATOM      6  C   UNL     1       1.568  15.345  19.120  0.00  0.00    +0.000 A 
ATOM      7  C   UNL     1       0.319  14.735  18.912  0.00  0.00    +0.000 A 
ATOM      8  C   UNL     1      -0.284  14.148  20.030  0.00  0.00    +0.000 A 
ATOM      9  N   UNL     1      -1.233  13.150  20.249  0.00  0.00    +0.000 N 
ENDROOT
BRANCH   1  13
ATOM     10  O   UNL     1      -6.396  12.899  21.245  0.00  0.00    +0.000 OA
ATOM     11  C   UNL     1      -5.370  12.891  21.915  0.00  0.00    +0.000 A 
ATOM     12  C   UNL     1      -4.062  13.167  21.272  0.00  0.00    +0.000 A 
ATOM     13  C   UNL     1      -2.968  13.068  22.031  0.00  0.00    +0.000 A 
ATOM     14  N   UNL     1      -3.051  12.773  23.370  0.00  0.00    +0.000 N 
ATOM     15  C   UNL     1      -4.223  12.519  24.017  0.00  0.00    +0.000 A 
ATOM     16  O   UNL     1      -4.268  12.239  25.208  0.00  0.00    +0.000 OA
ATOM     17  N   UNL     1      -5.346  12.587  23.237  0.00  0.00    +0.000 N 
ATOM     18  H   UNL     1      -2.202  12.790  23.924  0.00  0.00    +0.000 HD
ATOM     19  H   UNL     1      -6.225  12.395  23.697  0.00  0.00    +0.000 HD
ENDBRANCH   1  13
BRANCH   9  20
ATOM     20  C   UNL     1      -1.558  11.981  19.398  0.00  0.00    +0.000 C 
ATOM     21  C   UNL     1      -1.745  10.605  20.105  0.00  0.00    +0.000 C 
ATOM     22  C   UNL     1      -0.445   9.770  20.386  0.00  0.00    +0.000 C 
ATOM     23  C   UNL     1       0.407  10.427  21.462  0.00  0.00    +0.000 C 
ATOM     24  C   UNL     1       1.417  11.456  20.942  0.00  0.00    +0.000 C 
ATOM     25  C   UNL     1       1.592  11.631  19.413  0.00  0.00    +0.000 C 
ATOM     26  C   UNL     1       0.649  10.817  18.549  0.00  0.00    +0.000 C 
ATOM     27  C   UNL     1      -0.633  11.645  18.205  0.00  0.00    +0.000 C 
ATOM     28  N   UNL     1       0.367   9.518  19.181  0.00  0.00    +0.000 NA
BRANCH  28  29
ATOM     29  C   UNL     1       1.552   8.552  19.339  0.00  0.00    +0.000 C 
ATOM     30  C   UNL     1       1.123   7.340  20.159  0.00  0.00    +0.000 C 
ATOM     31  C   UNL     1       2.289   6.427  20.608  0.00  0.00    +0.000 C 
ATOM     32  C   UNL     1       1.743   5.044  20.924  0.00  0.00    +0.000 C 
ATOM     33  C   UNL     1       1.159   4.236  19.764  0.00  0.00    +0.000 C 
ATOM     34  C   UNL     1       1.723   4.243  18.337  0.00  0.00    +0.000 C 
ATOM     35  C   UNL     1       2.333   5.437  17.575  0.00  0.00    +0.000 C 
ATOM     36  C   UNL     1       3.083   6.609  18.256  0.00  0.00    +0.000 C 
ATOM     37  C   UNL     1       3.481   6.301  19.664  0.00  0.00    +0.000 C 
ATOM     38  C   UNL     1       2.401   8.005  18.133  0.00  0.00    +0.000 C 
ENDBRANCH  28  29
ENDBRANCH   9  20
TORSDOF 3
ENDMDL
MODEL 7
REMARK VINA RESULT:      -6.9      8.302     10.325
REMARK  Name = 
REMARK  3 active torsions:
REMARK  status: ('A' for Active; 'I' for Inactive)
REMARK    1  A    between atoms: C_4  and  C_5
REMARK    2  A    between atoms: N_13  and  C_14
REMARK    3  A    between atoms: N_22  and  C_23
REMARK                            x       y       z     vdW  Elec       q    Type
REMARK                         _______ _______ _______ _____ _____    ______ ____
ROOT
ATOM      1  C   UNL     1      -1.367  10.883  19.146  0.00  0.00    +0.000 A 
ATOM      2  N   UNL     1      -0.377  10.025  18.990  0.00  0.00    +0.000 NA
ATOM      3  C   UNL     1       0.094   9.798  20.251  0.00  0.00    +0.000 A 
ATOM      4  C   UNL     1       1.223   9.070  20.656  0.00  0.00    +0.000 A 
ATOM      5  C   UNL     1       1.483   8.965  22.023  0.00  0.00    +0.000 A 
ATOM      6  C   UNL     1       0.574   9.482  22.952  0.00  0.00    +0.000 A 
ATOM      7  C   UNL     1      -0.521  10.270  22.556  0.00  0.00    +0.000 A 
ATOM      8  C   UNL     1      -0.648  10.520  21.184  0.00  0.00    +0.000 A 
ATOM      9  N   UNL     1      -1.260  11.493  20.395  0.00  0.00    +0.000 N 
ENDROOT
BRANCH   1  13
ATOM     10  O   UNL     1      -5.702  12.223  17.721  0.00  0.00    +0.000 OA
ATOM     11  C   UNL     1      -4.590  11.781  17.460  0.00  0.00    +0.000 A 
ATOM     12  C   UNL     1      -3.592  11.594  18.542  0.00  0.00    +0.000 A 
ATOM     13  C   UNL     1      -2.370  11.184  18.191  0.00  0.00    +0.000 A 
ATOM     14  N   UNL     1      -2.060  10.897  16.883  0.00  0.00    +0.000 N 
ATOM     15  C   UNL     1      -2.936  11.041  15.849  0.00  0.00    +0.000 A 
ATOM     16  O   UNL     1      -2.628  10.797  14.690  0.00  0.00    +0.000 OA
ATOM     17  N   UNL     1      -4.181  11.493  16.199  0.00  0.00    +0.000 N 
ATOM     18  H   UNL     1      -1.147  10.511  16.675  0.00  0.00    +0.000 HD
ATOM     19  H   UNL     1      -4.842  11.613  15.445  0.00  0.00    +0.000 HD
ENDBRANCH   1  13
BRANCH   9  20
ATOM     20  C   UNL     1      -1.547  12.908  20.731  0.00  0.00    +0.000 C 
ATOM     21  C   UNL     1      -1.595  13.932  19.556  0.00  0.00    +0.000 C 
ATOM     22  C   UNL     1      -0.225  14.542  19.092  0.00  0.00    +0.000 C 
ATOM     23  C   UNL     1       0.637  13.495  18.402  0.00  0.00    +0.000 C 
ATOM     24  C   UNL     1       1.540  12.687  19.341  0.00  0.00    +0.000 C 
ATOM     25  C   UNL     1       1.616  13.083  20.836  0.00  0.00    +0.000 C 
ATOM     26  C   UNL     1       0.687  14.202  21.265  0.00  0.00    +0.000 C 
ATOM     27  C   UNL     1      -0.669  13.620  21.786  0.00  0.00    +0.000 C 
ATOM     28  N   UNL     1       0.534  15.185  20.181  0.00  0.00    +0.000 NA
BRANCH  28  29
ATOM     29  C   UNL     1       1.793  15.968  19.773  0.00  0.00    +0.000 C 
ATOM     30  C   UNL     1       2.853  15.843  20.862  0.00  0.00    +0.000 C 
ATOM     31  C   UNL     1       4.060  16.796  20.692  0.00  0.00    +0.000 C 
ATOM     32  C   UNL     1       5.244  16.243  21.468  0.00  0.00    +0.000 C 
ATOM     33  C   UNL     1       5.839  14.917  20.992  0.00  0.00    +0.000 C 
ATOM     34  C   UNL     1       5.964  14.507  19.518  0.00  0.00    +0.000 C 
ATOM     35  C   UNL     1       4.972  14.801  18.375  0.00  0.00    +0.000 C 
ATOM     36  C   UNL     1       4.064  16.055  18.316  0.00  0.00    +0.000 C 
ATOM     37  C   UNL     1       4.494  17.126  19.267  0.00  0.00    +0.000 C 
ATOM     38  C   UNL     1       2.532  15.780  18.398  0.00  0.00    +0.000 C 
ENDBRANCH  28  29
ENDBRANCH   9  20
TORSDOF 3
ENDMDL
MODEL 8
REMARK VINA RESULT:      -6.7      2.915      5.012
REMARK  Name = 
REMARK  3 active torsions:
REMARK  status: ('A' for Active; 'I' for Inactive)
REMARK    1  A    between atoms: C_4  and  C_5
REMARK    2  A    between atoms: N_13  and  C_14
REMARK    3  A    between atoms: N_22  and  C_23
REMARK                            x       y       z     vdW  Elec       q    Type
REMARK                         _______ _______ _______ _____ _____    ______ ____
ROOT
ATOM      1  C   UNL     1       5.818  14.514  26.135  0.00  0.00    +0.000 A 
ATOM      2  N   UNL     1       4.774  13.708  26.112  0.00  0.00    +0.000 NA
ATOM      3  C   UNL     1       5.216  12.543  26.669  0.00  0.00    +0.000 A 
ATOM      4  C   UNL     1       4.560  11.307  26.777  0.00  0.00    +0.000 A 
ATOM      5  C   UNL     1       5.225  10.262  27.417  0.00  0.00    +0.000 A 
ATOM      6  C   UNL     1       6.464  10.486  28.026  0.00  0.00    +0.000 A 
ATOM      7  C   UNL     1       7.157  11.698  27.866  0.00  0.00    +0.000 A 
ATOM      8  C   UNL     1       6.550  12.664  27.055  0.00  0.00    +0.000 A 
ATOM      9  N   UNL     1       6.980  13.763  26.312  0.00  0.00    +0.000 N 
ENDROOT
BRANCH   1  13
ATOM     10  O   UNL     1       4.718  18.571  23.910  0.00  0.00    +0.000 OA
ATOM     11  C   UNL     1       5.311  17.979  24.804  0.00  0.00    +0.000 A 
ATOM     12  C   UNL     1       5.188  16.506  24.928  0.00  0.00    +0.000 A 
ATOM     13  C   UNL     1       5.791  15.921  25.966  0.00  0.00    +0.000 A 
ATOM     14  N   UNL     1       6.541  16.647  26.859  0.00  0.00    +0.000 N 
ATOM     15  C   UNL     1       6.698  17.999  26.791  0.00  0.00    +0.000 A 
ATOM     16  O   UNL     1       7.356  18.625  27.613  0.00  0.00    +0.000 OA
ATOM     17  N   UNL     1       6.054  18.609  25.748  0.00  0.00    +0.000 N 
ATOM     18  H   UNL     1       7.047  16.151  27.583  0.00  0.00    +0.000 HD
ATOM     19  H   UNL     1       6.153  19.613  25.685  0.00  0.00    +0.000 HD
ENDBRANCH   1  13
BRANCH   9  20
ATOM     20  C   UNL     1       8.301  13.993  25.682  0.00  0.00    +0.000 C 
ATOM     21  C   UNL     1       8.352  14.924  24.433  0.00  0.00    +0.000 C 
ATOM     22  C   UNL     1       8.041  14.263  23.043  0.00  0.00    +0.000 C 
ATOM     23  C   UNL     1       6.574  13.875  22.936  0.00  0.00    +0.000 C 
ATOM     24  C   UNL     1       6.242  12.471  23.456  0.00  0.00    +0.000 C 
ATOM     25  C   UNL     1       7.399  11.538  23.891  0.00  0.00    +0.000 C 
ATOM     26  C   UNL     1       8.784  12.153  23.857  0.00  0.00    +0.000 C 
ATOM     27  C   UNL     1       9.145  12.771  25.248  0.00  0.00    +0.000 C 
ATOM     28  N   UNL     1       8.896  13.101  22.737  0.00  0.00    +0.000 NA
BRANCH  28  29
ATOM     29  C   UNL     1       8.783  12.518  21.320  0.00  0.00    +0.000 C 
ATOM     30  C   UNL     1       9.126  13.590  20.292  0.00  0.00    +0.000 C 
ATOM     31  C   UNL     1       8.796  13.203  18.830  0.00  0.00    +0.000 C 
ATOM     32  C   UNL     1       9.630  14.058  17.890  0.00  0.00    +0.000 C 
ATOM     33  C   UNL     1      11.147  13.860  17.918  0.00  0.00    +0.000 C 
ATOM     34  C   UNL     1      11.836  12.503  18.114  0.00  0.00    +0.000 C 
ATOM     35  C   UNL     1      11.379  11.341  19.018  0.00  0.00    +0.000 C 
ATOM     36  C   UNL     1       9.899  11.035  19.358  0.00  0.00    +0.000 C 
ATOM     37  C   UNL     1       8.941  11.733  18.446  0.00  0.00    +0.000 C 
ATOM     38  C   UNL     1       9.507  11.200  20.857  0.00  0.00    +0.000 C 
ENDBRANCH  28  29
ENDBRANCH   9  20
TORSDOF 3
ENDMDL
MODEL 9
REMARK VINA RESULT:      -6.7      6.933      8.479
REMARK  Name = 
REMARK  3 active torsions:
REMARK  status: ('A' for Active; 'I' for Inactive)
REMARK    1  A    between atoms: C_4  and  C_5
REMARK    2  A    between atoms: N_13  and  C_14
REMARK    3  A    between atoms: N_22  and  C_23
REMARK                            x       y       z     vdW  Elec       q    Type
REMARK                         _______ _______ _______ _____ _____    ______ ____
ROOT
ATOM      1  C   UNL     1      -0.533  13.106  20.371  0.00  0.00    +0.000 A 
ATOM      2  N   UNL     1      -0.596  13.011  21.685  0.00  0.00    +0.000 NA
ATOM      3  C   UNL     1      -0.857  14.279  22.117  0.00  0.00    +0.000 A 
ATOM      4  C   UNL     1      -0.897  14.777  23.429  0.00  0.00    +0.000 A 
ATOM      5  C   UNL     1      -1.212  16.124  23.612  0.00  0.00    +0.000 A 
ATOM      6  C   UNL     1      -1.582  16.914  22.519  0.00  0.00    +0.000 A 
ATOM      7  C   UNL     1      -1.479  16.443  21.199  0.00  0.00    +0.000 A 
ATOM      8  C   UNL     1      -0.975  15.148  21.033  0.00  0.00    +0.000 A 
ATOM      9  N   UNL     1      -0.345  14.440  20.010  0.00  0.00    +0.000 N 
ENDROOT
BRANCH   1  13
ATOM     10  O   UNL     1       1.056   9.189  18.191  0.00  0.00    +0.000 OA
ATOM     11  C   UNL     1       0.233  10.091  18.282  0.00  0.00    +0.000 A 
ATOM     12  C   UNL     1       0.366  11.113  19.349  0.00  0.00    +0.000 A 
ATOM     13  C   UNL     1      -0.601  12.029  19.451  0.00  0.00    +0.000 A 
ATOM     14  N   UNL     1      -1.656  12.057  18.572  0.00  0.00    +0.000 N 
ATOM     15  C   UNL     1      -1.827  11.151  17.568  0.00  0.00    +0.000 A 
ATOM     16  O   UNL     1      -2.787  11.187  16.809  0.00  0.00    +0.000 OA
ATOM     17  N   UNL     1      -0.856  10.190  17.478  0.00  0.00    +0.000 N 
ATOM     18  H   UNL     1      -2.321  12.818  18.637  0.00  0.00    +0.000 HD
ATOM     19  H   UNL     1      -0.969   9.505  16.744  0.00  0.00    +0.000 HD
ENDBRANCH   1  13
BRANCH   9  20
ATOM     20  C   UNL     1       0.497  14.962  18.909  0.00  0.00    +0.000 C 
ATOM     21  C   UNL     1       1.736  14.116  18.487  0.00  0.00    +0.000 C 
ATOM     22  C   UNL     1       3.055  14.329  19.312  0.00  0.00    +0.000 C 
ATOM     23  C   UNL     1       2.915  13.777  20.723  0.00  0.00    +0.000 C 
ATOM     24  C   UNL     1       2.348  14.768  21.746  0.00  0.00    +0.000 C 
ATOM     25  C   UNL     1       2.113  16.238  21.319  0.00  0.00    +0.000 C 
ATOM     26  C   UNL     1       2.379  16.545  19.858  0.00  0.00    +0.000 C 
ATOM     27  C   UNL     1       1.067  16.396  19.018  0.00  0.00    +0.000 C 
ATOM     28  N   UNL     1       3.501  15.734  19.360  0.00  0.00    +0.000 NA
BRANCH  28  29
ATOM     29  C   UNL     1       4.880  15.998  19.986  0.00  0.00    +0.000 C 
ATOM     30  C   UNL     1       5.863  14.921  19.539  0.00  0.00    +0.000 C 
ATOM     31  C   UNL     1       7.207  14.926  20.305  0.00  0.00    +0.000 C 
ATOM     32  C   UNL     1       8.260  14.221  19.466  0.00  0.00    +0.000 C 
ATOM     33  C   UNL     1       8.664  14.879  18.146  0.00  0.00    +0.000 C 
ATOM     34  C   UNL     1       8.785  16.394  17.939  0.00  0.00    +0.000 C 
ATOM     35  C   UNL     1       7.897  17.498  18.548  0.00  0.00    +0.000 C 
ATOM     36  C   UNL     1       7.195  17.386  19.924  0.00  0.00    +0.000 C 
ATOM     37  C   UNL     1       7.745  16.278  20.766  0.00  0.00    +0.000 C 
ATOM     38  C   UNL     1       5.637  17.373  19.884  0.00  0.00    +0.000 C 
ENDBRANCH  28  29
ENDBRANCH   9  20
TORSDOF 3
ENDMDL
