MODEL 1
REMARK VINA RESULT:      -7.2      0.000      0.000
REMARK  Name = 
REMARK  6 active torsions:
REMARK  status: ('A' for Active; 'I' for Inactive)
REMARK    1  A    between atoms: C_2  and  C_3
REMARK    2  A    between atoms: C_3  and  N_4
REMARK    3  A    between atoms: N_4  and  C_5
REMARK    4  A    between atoms: N_4  and  C_12
REMARK    5  A    between atoms: C_5  and  C_6
REMARK    6  A    between atoms: N_18  and  O_19
REMARK                            x       y       z     vdW  Elec       q    Type
REMARK                         _______ _______ _______ _____ _____    ______ ____
ROOT
ATOM      1  N   UNL     1       4.059   5.954  18.038  0.00  0.00    +0.000 N 
ENDROOT
BRANCH   1   2
ATOM      2  C   UNL     1       3.205   7.016  18.388  0.00  0.00    +0.000 A 
ATOM      3  C   UNL     1       2.922   8.085  17.514  0.00  0.00    +0.000 A 
ATOM      4  C   UNL     1       2.004   9.095  17.833  0.00  0.00    +0.000 A 
ATOM      5  C   UNL     1       1.356   9.088  19.060  0.00  0.00    +0.000 A 
ATOM      6  C   UNL     1       1.656   8.089  19.974  0.00  0.00    +0.000 A 
ATOM      7  C   UNL     1       2.574   7.082  19.644  0.00  0.00    +0.000 A 
ENDBRANCH   1   2
BRANCH   1   8
ATOM      8  C   UNL     1       5.391   6.269  17.449  0.00  0.00    +0.000 C 
BRANCH   8  10
ATOM      9  N   UNL     1       6.628   5.076  19.314  0.00  0.00    +0.000 N 
ATOM     10  C   UNL     1       6.532   5.367  17.969  0.00  0.00    +0.000 C 
ATOM     11  N   UNL     1       7.364   4.881  17.090  0.00  0.00    +0.000 NA
ATOM     12  H   UNL     1       5.723   5.000  19.768  0.00  0.00    +0.000 HD
ATOM     13  H   UNL     1       7.214   4.258  19.453  0.00  0.00    +0.000 HD
BRANCH  11  14
ATOM     14  O   UNL     1       8.308   4.046  17.714  0.00  0.00    +0.000 OA
ATOM     15  H   UNL     1       7.835   3.772  18.523  0.00  0.00    +0.000 HD
ENDBRANCH  11  14
ENDBRANCH   8  10
ENDBRANCH   1   8
BRANCH   1  16
ATOM     16  C   UNL     1       3.445   4.671  17.620  0.00  0.00    +0.000 C 
BRANCH  16  17
ATOM     17  C   UNL     1       2.734   3.935  18.736  0.00  0.00    +0.000 A 
ATOM     18  C   UNL     1       3.441   3.515  19.873  0.00  0.00    +0.000 A 
ATOM     19  C   UNL     1       2.786   2.838  20.902  0.00  0.00    +0.000 A 
ATOM     20  C   UNL     1       1.419   2.578  20.807  0.00  0.00    +0.000 A 
ATOM     21  C   UNL     1       0.704   3.002  19.689  0.00  0.00    +0.000 A 
ATOM     22  C   UNL     1       1.356   3.679  18.657  0.00  0.00    +0.000 A 
ENDBRANCH  16  17
ENDBRANCH   1  16
TORSDOF 6
ENDMDL
MODEL 2
REMARK VINA RESULT:      -7.2      0.148      1.104
REMARK  Name = 
REMARK  6 active torsions:
REMARK  status: ('A' for Active; 'I' for Inactive)
REMARK    1  A    between atoms: C_2  and  C_3
REMARK    2  A    between atoms: C_3  and  N_4
REMARK    3  A    between atoms: N_4  and  C_5
REMARK    4  A    between atoms: N_4  and  C_12
REMARK    5  A    between atoms: C_5  and  C_6
REMARK    6  A    between atoms: N_18  and  O_19
REMARK                            x       y       z     vdW  Elec       q    Type
REMARK                         _______ _______ _______ _____ _____    ______ ____
ROOT
ATOM      1  N   UNL     1       3.994   5.835  18.046  0.00  0.00    +0.000 N 
ENDROOT
BRANCH   1   2
ATOM      2  C   UNL     1       3.133   6.898  18.375  0.00  0.00    +0.000 A 
ATOM      3  C   UNL     1       2.510   7.010  19.635  0.00  0.00    +0.000 A 
ATOM      4  C   UNL     1       1.724   8.115  19.988  0.00  0.00    +0.000 A 
ATOM      5  C   UNL     1       1.505   9.137  19.077  0.00  0.00    +0.000 A 
ATOM      6  C   UNL     1       2.047   9.032  17.804  0.00  0.00    +0.000 A 
ATOM      7  C   UNL     1       2.834   7.925  17.461  0.00  0.00    +0.000 A 
ENDBRANCH   1   2
BRANCH   1   8
ATOM      8  C   UNL     1       5.303   6.143  17.404  0.00  0.00    +0.000 C 
BRANCH   8  10
ATOM      9  N   UNL     1       6.569   5.038  19.303  0.00  0.00    +0.000 N 
ATOM     10  C   UNL     1       6.481   5.309  17.954  0.00  0.00    +0.000 C 
ATOM     11  N   UNL     1       7.352   4.858  17.095  0.00  0.00    +0.000 NA
ATOM     12  H   UNL     1       5.661   4.920  19.743  0.00  0.00    +0.000 HD
ATOM     13  H   UNL     1       7.194   4.253  19.462  0.00  0.00    +0.000 HD
BRANCH  11  14
ATOM     14  O   UNL     1       8.327   4.080  17.744  0.00  0.00    +0.000 OA
ATOM     15  H   UNL     1       8.579   4.652  18.493  0.00  0.00    +0.000 HD
ENDBRANCH  11  14
ENDBRANCH   8  10
ENDBRANCH   1   8
BRANCH   1  16
ATOM     16  C   UNL     1       3.391   4.524  17.705  0.00  0.00    +0.000 C 
BRANCH  16  17
ATOM     17  C   UNL     1       2.693   3.846  18.865  0.00  0.00    +0.000 A 
ATOM     18  C   UNL     1       3.430   3.393  19.970  0.00  0.00    +0.000 A 
ATOM     19  C   UNL     1       2.787   2.769  21.039  0.00  0.00    +0.000 A 
ATOM     20  C   UNL     1       1.404   2.595  21.018  0.00  0.00    +0.000 A 
ATOM     21  C   UNL     1       0.661   3.053  19.931  0.00  0.00    +0.000 A 
ATOM     22  C   UNL     1       1.300   3.677  18.860  0.00  0.00    +0.000 A 
ENDBRANCH  16  17
ENDBRANCH   1  16
TORSDOF 6
ENDMDL
MODEL 3
REMARK VINA RESULT:      -7.2      2.361      4.666
REMARK  Name = 
REMARK  6 active torsions:
REMARK  status: ('A' for Active; 'I' for Inactive)
REMARK    1  A    between atoms: C_2  and  C_3
REMARK    2  A    between atoms: C_3  and  N_4
REMARK    3  A    between atoms: N_4  and  C_5
REMARK    4  A    between atoms: N_4  and  C_12
REMARK    5  A    between atoms: C_5  and  C_6
REMARK    6  A    between atoms: N_18  and  O_19
REMARK                            x       y       z     vdW  Elec       q    Type
REMARK                         _______ _______ _______ _____ _____    ______ ____
ROOT
ATOM      1  N   UNL     1       4.203   4.760  18.404  0.00  0.00    +0.000 N 
ENDROOT
BRANCH   1   2
ATOM      2  C   UNL     1       5.433   5.438  18.319  0.00  0.00    +0.000 A 
ATOM      3  C   UNL     1       5.724   6.359  17.292  0.00  0.00    +0.000 A 
ATOM      4  C   UNL     1       6.915   7.098  17.260  0.00  0.00    +0.000 A 
ATOM      5  C   UNL     1       7.877   6.916  18.243  0.00  0.00    +0.000 A 
ATOM      6  C   UNL     1       7.656   5.971  19.234  0.00  0.00    +0.000 A 
ATOM      7  C   UNL     1       6.461   5.240  19.259  0.00  0.00    +0.000 A 
ENDBRANCH   1   2
BRANCH   1   8
ATOM      8  C   UNL     1       4.206   3.271  18.439  0.00  0.00    +0.000 C 
BRANCH   8  10
ATOM      9  N   UNL     1       5.070   1.890  20.382  0.00  0.00    +0.000 N 
ATOM     10  C   UNL     1       4.067   2.679  19.859  0.00  0.00    +0.000 C 
ATOM     11  N   UNL     1       2.993   2.979  20.535  0.00  0.00    +0.000 NA
ATOM     12  H   UNL     1       5.996   2.173  20.078  0.00  0.00    +0.000 HD
ATOM     13  H   UNL     1       4.981   1.836  21.393  0.00  0.00    +0.000 HD
BRANCH  11  14
ATOM     14  O   UNL     1       3.042   2.407  21.818  0.00  0.00    +0.000 OA
ATOM     15  H   UNL     1       2.246   2.784  22.240  0.00  0.00    +0.000 HD
ENDBRANCH  11  14
ENDBRANCH   8  10
ENDBRANCH   1   8
BRANCH   1  16
ATOM     16  C   UNL     1       3.008   5.399  17.802  0.00  0.00    +0.000 C 
BRANCH  16  17
ATOM     17  C   UNL     1       2.462   6.562  18.601  0.00  0.00    +0.000 A 
ATOM     18  C   UNL     1       2.158   6.408  19.962  0.00  0.00    +0.000 A 
ATOM     19  C   UNL     1       1.655   7.480  20.699  0.00  0.00    +0.000 A 
ATOM     20  C   UNL     1       1.455   8.716  20.087  0.00  0.00    +0.000 A 
ATOM     21  C   UNL     1       1.766   8.885  18.738  0.00  0.00    +0.000 A 
ATOM     22  C   UNL     1       2.268   7.815  17.998  0.00  0.00    +0.000 A 
ENDBRANCH  16  17
ENDBRANCH   1  16
TORSDOF 6
ENDMDL
MODEL 4
REMARK VINA RESULT:      -7.2      1.096      1.672
REMARK  Name = 
REMARK  6 active torsions:
REMARK  status: ('A' for Active; 'I' for Inactive)
REMARK    1  A    between atoms: C_2  and  C_3
REMARK    2  A    between atoms: C_3  and  N_4
REMARK    3  A    between atoms: N_4  and  C_5
REMARK    4  A    between atoms: N_4  and  C_12
REMARK    5  A    between atoms: C_5  and  C_6
REMARK    6  A    between atoms: N_18  and  O_19
REMARK                            x       y       z     vdW  Elec       q    Type
REMARK                         _______ _______ _______ _____ _____    ______ ____
ROOT
ATOM      1  N   UNL     1       4.430   5.319  18.237  0.00  0.00    +0.000 N 
ENDROOT
BRANCH   1   2
ATOM      2  C   UNL     1       3.591   6.430  18.443  0.00  0.00    +0.000 A 
ATOM      3  C   UNL     1       3.406   7.434  17.470  0.00  0.00    +0.000 A 
ATOM      4  C   UNL     1       2.504   8.493  17.644  0.00  0.00    +0.000 A 
ATOM      5  C   UNL     1       1.774   8.602  18.819  0.00  0.00    +0.000 A 
ATOM      6  C   UNL     1       1.976   7.671  19.826  0.00  0.00    +0.000 A 
ATOM      7  C   UNL     1       2.879   6.615  19.642  0.00  0.00    +0.000 A 
ENDBRANCH   1   2
BRANCH   1   8
ATOM      8  C   UNL     1       5.763   5.533  17.609  0.00  0.00    +0.000 C 
BRANCH   8  10
ATOM      9  N   UNL     1       7.842   6.773  18.366  0.00  0.00    +0.000 N 
ATOM     10  C   UNL     1       6.896   5.803  18.624  0.00  0.00    +0.000 C 
ATOM     11  N   UNL     1       6.897   5.106  19.726  0.00  0.00    +0.000 NA
ATOM     12  H   UNL     1       7.466   7.567  17.856  0.00  0.00    +0.000 HD
ATOM     13  H   UNL     1       8.314   7.038  19.225  0.00  0.00    +0.000 HD
BRANCH  11  14
ATOM     14  O   UNL     1       7.956   5.504  20.561  0.00  0.00    +0.000 OA
ATOM     15  H   UNL     1       8.630   5.787  19.914  0.00  0.00    +0.000 HD
ENDBRANCH  11  14
ENDBRANCH   8  10
ENDBRANCH   1   8
BRANCH   1  16
ATOM     16  C   UNL     1       3.797   4.000  17.998  0.00  0.00    +0.000 C 
BRANCH  16  17
ATOM     17  C   UNL     1       2.907   3.528  19.128  0.00  0.00    +0.000 A 
ATOM     18  C   UNL     1       1.516   3.472  18.960  0.00  0.00    +0.000 A 
ATOM     19  C   UNL     1       0.696   3.036  20.001  0.00  0.00    +0.000 A 
ATOM     20  C   UNL     1       1.258   2.647  21.216  0.00  0.00    +0.000 A 
ATOM     21  C   UNL     1       2.640   2.687  21.390  0.00  0.00    +0.000 A 
ATOM     22  C   UNL     1       3.463   3.123  20.352  0.00  0.00    +0.000 A 
ENDBRANCH  16  17
ENDBRANCH   1  16
TORSDOF 6
ENDMDL
MODEL 5
REMARK VINA RESULT:      -7.1      1.087      1.979
REMARK  Name = 
REMARK  6 active torsions:
REMARK  status: ('A' for Active; 'I' for Inactive)
REMARK    1  A    between atoms: C_2  and  C_3
REMARK    2  A    between atoms: C_3  and  N_4
REMARK    3  A    between atoms: N_4  and  C_5
REMARK    4  A    between atoms: N_4  and  C_12
REMARK    5  A    between atoms: C_5  and  C_6
REMARK    6  A    between atoms: N_18  and  O_19
REMARK                            x       y       z     vdW  Elec       q    Type
REMARK                         _______ _______ _______ _____ _____    ______ ____
ROOT
ATOM      1  N   UNL     1       4.521   5.525  18.147  0.00  0.00    +0.000 N 
ENDROOT
BRANCH   1   2
ATOM      2  C   UNL     1       3.577   6.535  18.407  0.00  0.00    +0.000 A 
ATOM      3  C   UNL     1       2.872   6.623  19.626  0.00  0.00    +0.000 A 
ATOM      4  C   UNL     1       1.998   7.680  19.915  0.00  0.00    +0.000 A 
ATOM      5  C   UNL     1       1.772   8.676  18.976  0.00  0.00    +0.000 A 
ATOM      6  C   UNL     1       2.396   8.591  17.740  0.00  0.00    +0.000 A 
ATOM      7  C   UNL     1       3.270   7.531  17.461  0.00  0.00    +0.000 A 
ENDBRANCH   1   2
BRANCH   1   8
ATOM      8  C   UNL     1       5.848   5.909  17.589  0.00  0.00    +0.000 C 
BRANCH   8  10
ATOM      9  N   UNL     1       8.007   6.893  18.484  0.00  0.00    +0.000 N 
ATOM     10  C   UNL     1       6.968   6.001  18.649  0.00  0.00    +0.000 C 
ATOM     11  N   UNL     1       6.870   5.232  19.698  0.00  0.00    +0.000 NA
ATOM     12  H   UNL     1       7.723   7.751  18.023  0.00  0.00    +0.000 HD
ATOM     13  H   UNL     1       8.475   7.052  19.371  0.00  0.00    +0.000 HD
BRANCH  11  14
ATOM     14  O   UNL     1       7.934   5.470  20.585  0.00  0.00    +0.000 OA
ATOM     15  H   UNL     1       7.479   5.880  21.345  0.00  0.00    +0.000 HD
ENDBRANCH  11  14
ENDBRANCH   8  10
ENDBRANCH   1   8
BRANCH   1  16
ATOM     16  C   UNL     1       4.022   4.178  17.781  0.00  0.00    +0.000 C 
BRANCH  16  17
ATOM     17  C   UNL     1       3.040   3.593  18.774  0.00  0.00    +0.000 A 
ATOM     18  C   UNL     1       1.712   3.346  18.398  0.00  0.00    +0.000 A 
ATOM     19  C   UNL     1       0.808   2.805  19.312  0.00  0.00    +0.000 A 
ATOM     20  C   UNL     1       1.223   2.502  20.608  0.00  0.00    +0.000 A 
ATOM     21  C   UNL     1       2.543   2.731  20.989  0.00  0.00    +0.000 A 
ATOM     22  C   UNL     1       3.450   3.272  20.078  0.00  0.00    +0.000 A 
ENDBRANCH  16  17
ENDBRANCH   1  16
TORSDOF 6
ENDMDL
MODEL 6
REMARK VINA RESULT:      -7.0      2.238      4.357
REMARK  Name = 
REMARK  6 active torsions:
REMARK  status: ('A' for Active; 'I' for Inactive)
REMARK    1  A    between atoms: C_2  and  C_3
REMARK    2  A    between atoms: C_3  and  N_4
REMARK    3  A    between atoms: N_4  and  C_5
REMARK    4  A    between atoms: N_4  and  C_12
REMARK    5  A    between atoms: C_5  and  C_6
REMARK    6  A    between atoms: N_18  and  O_19
REMARK                            x       y       z     vdW  Elec       q    Type
REMARK                         _______ _______ _______ _____ _____    ______ ____
ROOT
ATOM      1  N   UNL     1       3.400   4.968  18.593  0.00  0.00    +0.000 N 
ENDROOT
BRANCH   1   2
ATOM      2  C   UNL     1       2.778   6.216  18.780  0.00  0.00    +0.000 A 
ATOM      3  C   UNL     1       2.299   6.647  20.034  0.00  0.00    +0.000 A 
ATOM      4  C   UNL     1       1.760   7.925  20.234  0.00  0.00    +0.000 A 
ATOM      5  C   UNL     1       1.651   8.811  19.172  0.00  0.00    +0.000 A 
ATOM      6  C   UNL     1       2.050   8.401  17.909  0.00  0.00    +0.000 A 
ATOM      7  C   UNL     1       2.590   7.121  17.720  0.00  0.00    +0.000 A 
ENDBRANCH   1   2
BRANCH   1   8
ATOM      8  C   UNL     1       3.522   4.046  19.757  0.00  0.00    +0.000 C 
BRANCH   8  10
ATOM      9  N   UNL     1       5.124   2.098  20.024  0.00  0.00    +0.000 N 
ATOM     10  C   UNL     1       4.025   2.633  19.386  0.00  0.00    +0.000 C 
ATOM     11  N   UNL     1       3.356   1.974  18.481  0.00  0.00    +0.000 NA
ATOM     12  H   UNL     1       5.196   2.384  20.996  0.00  0.00    +0.000 HD
ATOM     13  H   UNL     1       5.143   1.090  19.902  0.00  0.00    +0.000 HD
BRANCH  11  14
ATOM     14  O   UNL     1       3.907   0.695  18.295  0.00  0.00    +0.000 OA
ATOM     15  H   UNL     1       3.175   0.114  18.574  0.00  0.00    +0.000 HD
ENDBRANCH  11  14
ENDBRANCH   8  10
ENDBRANCH   1   8
BRANCH   1  16
ATOM     16  C   UNL     1       4.455   4.859  17.558  0.00  0.00    +0.000 C 
BRANCH  16  17
ATOM     17  C   UNL     1       5.717   5.629  17.880  0.00  0.00    +0.000 A 
ATOM     18  C   UNL     1       6.558   5.210  18.922  0.00  0.00    +0.000 A 
ATOM     19  C   UNL     1       7.723   5.919  19.218  0.00  0.00    +0.000 A 
ATOM     20  C   UNL     1       8.060   7.050  18.475  0.00  0.00    +0.000 A 
ATOM     21  C   UNL     1       7.239   7.467  17.429  0.00  0.00    +0.000 A 
ATOM     22  C   UNL     1       6.074   6.761  17.130  0.00  0.00    +0.000 A 
ENDBRANCH  16  17
ENDBRANCH   1  16
TORSDOF 6
ENDMDL
MODEL 7
REMARK VINA RESULT:      -7.0      1.168      1.721
REMARK  Name = 
REMARK  6 active torsions:
REMARK  status: ('A' for Active; 'I' for Inactive)
REMARK    1  A    between atoms: C_2  and  C_3
REMARK    2  A    between atoms: C_3  and  N_4
REMARK    3  A    between atoms: N_4  and  C_5
REMARK    4  A    between atoms: N_4  and  C_12
REMARK    5  A    between atoms: C_5  and  C_6
REMARK    6  A    between atoms: N_18  and  O_19
REMARK                            x       y       z     vdW  Elec       q    Type
REMARK                         _______ _______ _______ _____ _____    ______ ____
ROOT
ATOM      1  N   UNL     1       4.524   5.207  18.301  0.00  0.00    +0.000 N 
ENDROOT
BRANCH   1   2
ATOM      2  C   UNL     1       3.635   6.287  18.453  0.00  0.00    +0.000 A 
ATOM      3  C   UNL     1       2.873   6.488  19.623  0.00  0.00    +0.000 A 
ATOM      4  C   UNL     1       2.056   7.611  19.805  0.00  0.00    +0.000 A 
ATOM      5  C   UNL     1       1.945   8.565  18.803  0.00  0.00    +0.000 A 
ATOM      6  C   UNL     1       2.627   8.371  17.611  0.00  0.00    +0.000 A 
ATOM      7  C   UNL     1       3.444   7.245  17.439  0.00  0.00    +0.000 A 
ENDBRANCH   1   2
BRANCH   1   8
ATOM      8  C   UNL     1       5.856   5.456  17.684  0.00  0.00    +0.000 C 
BRANCH   8  10
ATOM      9  N   UNL     1       7.868   6.793  18.456  0.00  0.00    +0.000 N 
ATOM     10  C   UNL     1       6.969   5.777  18.706  0.00  0.00    +0.000 C 
ATOM     11  N   UNL     1       6.997   5.076  19.805  0.00  0.00    +0.000 NA
ATOM     12  H   UNL     1       7.457   7.570  17.947  0.00  0.00    +0.000 HD
ATOM     13  H   UNL     1       8.322   7.077  19.319  0.00  0.00    +0.000 HD
BRANCH  11  14
ATOM     14  O   UNL     1       8.031   5.522  20.648  0.00  0.00    +0.000 OA
ATOM     15  H   UNL     1       8.248   6.392  20.261  0.00  0.00    +0.000 HD
ENDBRANCH  11  14
ENDBRANCH   8  10
ENDBRANCH   1   8
BRANCH   1  16
ATOM     16  C   UNL     1       3.953   3.853  18.104  0.00  0.00    +0.000 C 
BRANCH  16  17
ATOM     17  C   UNL     1       2.994   3.423  19.194  0.00  0.00    +0.000 A 
ATOM     18  C   UNL     1       3.461   3.176  20.494  0.00  0.00    +0.000 A 
ATOM     19  C   UNL     1       2.577   2.781  21.498  0.00  0.00    +0.000 A 
ATOM     20  C   UNL     1       1.220   2.634  21.216  0.00  0.00    +0.000 A 
ATOM     21  C   UNL     1       0.743   2.890  19.932  0.00  0.00    +0.000 A 
ATOM     22  C   UNL     1       1.624   3.284  18.924  0.00  0.00    +0.000 A 
ENDBRANCH  16  17
ENDBRANCH   1  16
TORSDOF 6
ENDMDL
MODEL 8
REMARK VINA RESULT:      -7.0      2.221      4.310
REMARK  Name = 
REMARK  6 active torsions:
REMARK  status: ('A' for Active; 'I' for Inactive)
REMARK    1  A    between atoms: C_2  and  C_3
REMARK    2  A    between atoms: C_3  and  N_4
REMARK    3  A    between atoms: N_4  and  C_5
REMARK    4  A    between atoms: N_4  and  C_12
REMARK    5  A    between atoms: C_5  and  C_6
REMARK    6  A    between atoms: N_18  and  O_19
REMARK                            x       y       z     vdW  Elec       q    Type
REMARK                         _______ _______ _______ _____ _____    ______ ____
ROOT
ATOM      1  N   UNL     1       3.420   5.045  18.561  0.00  0.00    +0.000 N 
ENDROOT
BRANCH   1   2
ATOM      2  C   UNL     1       2.847   6.315  18.756  0.00  0.00    +0.000 A 
ATOM      3  C   UNL     1       2.711   7.256  17.715  0.00  0.00    +0.000 A 
ATOM      4  C   UNL     1       2.061   8.485  17.893  0.00  0.00    +0.000 A 
ATOM      5  C   UNL     1       1.549   8.831  19.135  0.00  0.00    +0.000 A 
ATOM      6  C   UNL     1       1.721   7.960  20.201  0.00  0.00    +0.000 A 
ATOM      7  C   UNL     1       2.370   6.733  20.012  0.00  0.00    +0.000 A 
ENDBRANCH   1   2
BRANCH   1   8
ATOM      8  C   UNL     1       3.488   4.103  19.713  0.00  0.00    +0.000 C 
BRANCH   8  10
ATOM      9  N   UNL     1       5.121   2.180  19.962  0.00  0.00    +0.000 N 
ATOM     10  C   UNL     1       4.003   2.696  19.340  0.00  0.00    +0.000 C 
ATOM     11  N   UNL     1       3.328   2.022  18.451  0.00  0.00    +0.000 NA
ATOM     12  H   UNL     1       5.206   2.472  20.931  0.00  0.00    +0.000 HD
ATOM     13  H   UNL     1       5.152   1.171  19.846  0.00  0.00    +0.000 HD
BRANCH  11  14
ATOM     14  O   UNL     1       3.894   0.749  18.262  0.00  0.00    +0.000 OA
ATOM     15  H   UNL     1       3.660   0.558  17.334  0.00  0.00    +0.000 HD
ENDBRANCH  11  14
ENDBRANCH   8  10
ENDBRANCH   1   8
BRANCH   1  16
ATOM     16  C   UNL     1       4.485   4.907  17.539  0.00  0.00    +0.000 C 
BRANCH  16  17
ATOM     17  C   UNL     1       5.756   5.662  17.866  0.00  0.00    +0.000 A 
ATOM     18  C   UNL     1       6.109   6.808  17.137  0.00  0.00    +0.000 A 
ATOM     19  C   UNL     1       7.279   7.505  17.440  0.00  0.00    +0.000 A 
ATOM     20  C   UNL     1       8.104   7.067  18.474  0.00  0.00    +0.000 A 
ATOM     21  C   UNL     1       7.757   5.938  19.214  0.00  0.00    +0.000 A 
ATOM     22  C   UNL     1       6.588   5.238  18.914  0.00  0.00    +0.000 A 
ENDBRANCH  16  17
ENDBRANCH   1  16
TORSDOF 6
ENDMDL
MODEL 9
REMARK VINA RESULT:      -7.0      0.837      1.923
REMARK  Name = 
REMARK  6 active torsions:
REMARK  status: ('A' for Active; 'I' for Inactive)
REMARK    1  A    between atoms: C_2  and  C_3
REMARK    2  A    between atoms: C_3  and  N_4
REMARK    3  A    between atoms: N_4  and  C_5
REMARK    4  A    between atoms: N_4  and  C_12
REMARK    5  A    between atoms: C_5  and  C_6
REMARK    6  A    between atoms: N_18  and  O_19
REMARK                            x       y       z     vdW  Elec       q    Type
REMARK                         _______ _______ _______ _____ _____    ______ ____
ROOT
ATOM      1  N   UNL     1       4.449   6.077  17.786  0.00  0.00    +0.000 N 
ENDROOT
BRANCH   1   2
ATOM      2  C   UNL     1       3.438   6.939  18.249  0.00  0.00    +0.000 A 
ATOM      3  C   UNL     1       2.836   6.795  19.516  0.00  0.00    +0.000 A 
ATOM      4  C   UNL     1       1.893   7.707  20.009  0.00  0.00    +0.000 A 
ATOM      5  C   UNL     1       1.491   8.784  19.233  0.00  0.00    +0.000 A 
ATOM      6  C   UNL     1       2.011   8.925  17.955  0.00  0.00    +0.000 A 
ATOM      7  C   UNL     1       2.956   8.009  17.472  0.00  0.00    +0.000 A 
ENDBRANCH   1   2
BRANCH   1   8
ATOM      8  C   UNL     1       5.754   6.661  17.369  0.00  0.00    +0.000 C 
BRANCH   8  10
ATOM      9  N   UNL     1       7.392   5.480  15.835  0.00  0.00    +0.000 N 
ATOM     10  C   UNL     1       6.852   5.609  17.097  0.00  0.00    +0.000 C 
ATOM     11  N   UNL     1       7.254   4.885  18.104  0.00  0.00    +0.000 NA
ATOM     12  H   UNL     1       7.453   6.364  15.338  0.00  0.00    +0.000 HD
ATOM     13  H   UNL     1       8.279   4.988  15.883  0.00  0.00    +0.000 HD
BRANCH  11  14
ATOM     14  O   UNL     1       8.285   4.015  17.706  0.00  0.00    +0.000 OA
ATOM     15  H   UNL     1       7.923   3.633  16.884  0.00  0.00    +0.000 HD
ENDBRANCH  11  14
ENDBRANCH   8  10
ENDBRANCH   1   8
BRANCH   1  16
ATOM     16  C   UNL     1       4.043   4.826  17.103  0.00  0.00    +0.000 C 
BRANCH  16  17
ATOM     17  C   UNL     1       3.240   3.881  17.971  0.00  0.00    +0.000 A 
ATOM     18  C   UNL     1       1.874   3.676  17.723  0.00  0.00    +0.000 A 
ATOM     19  C   UNL     1       1.134   2.804  18.523  0.00  0.00    +0.000 A 
ATOM     20  C   UNL     1       1.752   2.127  19.573  0.00  0.00    +0.000 A 
ATOM     21  C   UNL     1       3.110   2.312  19.820  0.00  0.00    +0.000 A 
ATOM     22  C   UNL     1       3.853   3.184  19.024  0.00  0.00    +0.000 A 
ENDBRANCH  16  17
ENDBRANCH   1  16
TORSDOF 6
ENDMDL
