MODEL 1
REMARK VINA RESULT:      -8.6      0.000      0.000
REMARK  Name = 
REMARK  10 active torsions:
REMARK  status: ('A' for Active; 'I' for Inactive)
REMARK    1  A    between atoms: C_1  and  N_2
REMARK    2  A    between atoms: N_2  and  C_3
REMARK    3  A    between atoms: C_3  and  C_4
REMARK    4  A    between atoms: C_4  and  C_5
REMARK    5  A    between atoms: C_5  and  C_6
REMARK    6  A    between atoms: C_6  and  C_7
REMARK    7  A    between atoms: C_12  and  C_14
REMARK    8  A    between atoms: C_14  and  C_15
REMARK    9  A    between atoms: C_15  and  C_16
REMARK   10  A    between atoms: C_15  and  C_23
REMARK                            x       y       z     vdW  Elec       q    Type
REMARK                         _______ _______ _______ _____ _____    ______ ____
ROOT
ATOM      1  C   UNL     1       4.354   5.768  18.258  0.00  0.00    +0.000 C 
ENDROOT
BRANCH   1   4
ATOM      2  C   UNL     1       8.076   5.657  19.082  0.00  0.00    +0.000 C 
ATOM      3  N   UNL     1       6.804   6.103  18.540  0.00  0.00    +0.000 N 
ATOM      4  C   UNL     1       5.699   5.287  18.781  0.00  0.00    +0.000 C 
ATOM      5  O   UNL     1       5.814   4.221  19.388  0.00  0.00    +0.000 OA
BRANCH   3   6
ATOM      6  C   UNL     1       6.816   7.241  17.619  0.00  0.00    +0.000 C 
BRANCH   6   7
ATOM      7  C   UNL     1       8.127   8.032  17.640  0.00  0.00    +0.000 C 
BRANCH   7   8
ATOM      8  C   UNL     1       7.902   9.528  17.902  0.00  0.00    +0.000 C 
BRANCH   8   9
ATOM      9  C   UNL     1       9.038  10.162  18.708  0.00  0.00    +0.000 C 
BRANCH   9  10
ATOM     10  C   UNL     1       9.541  11.424  18.111  0.00  0.00    +0.000 A 
ATOM     11  C   UNL     1       8.858  12.585  17.829  0.00  0.00    +0.000 A 
ATOM     12  N   UNL     1       9.777  13.402  17.235  0.00  0.00    +0.000 N 
ATOM     13  C   UNL     1      10.960  12.723  17.177  0.00  0.00    +0.000 A 
ATOM     14  N   UNL     1      10.852  11.528  17.707  0.00  0.00    +0.000 NA
ATOM     15  H   UNL     1       9.612  14.338  16.887  0.00  0.00    +0.000 HD
ENDBRANCH   9  10
ENDBRANCH   8   9
ENDBRANCH   7   8
ENDBRANCH   6   7
ENDBRANCH   3   6
ENDBRANCH   1   4
BRANCH   1  16
ATOM     16  C   UNL     1       3.279   5.941  19.354  0.00  0.00    +0.000 C 
BRANCH  16  17
ATOM     17  C   UNL     1       2.532   7.268  19.230  0.00  0.00    +0.000 A 
ATOM     18  C   UNL     1       1.826   7.816  20.311  0.00  0.00    +0.000 A 
ATOM     19  C   UNL     1       1.050   8.966  20.141  0.00  0.00    +0.000 A 
ATOM     20  C   UNL     1       0.983   9.580  18.892  0.00  0.00    +0.000 A 
ATOM     21 CL   UNL     1      -0.014  10.966  18.672  0.00  0.00    +0.000 Cl
ATOM     22  C   UNL     1       1.703   9.069  17.816  0.00  0.00    +0.000 A 
ATOM     23  C   UNL     1       2.478   7.922  17.985  0.00  0.00    +0.000 A 
ENDBRANCH  16  17
BRANCH  16  24
ATOM     24  C   UNL     1       2.335   4.737  19.367  0.00  0.00    +0.000 A 
ATOM     25  C   UNL     1       1.629   4.413  20.527  0.00  0.00    +0.000 A 
ATOM     26  C   UNL     1       0.804   3.291  20.523  0.00  0.00    +0.000 A 
ATOM     27  C   UNL     1       0.694   2.526  19.370  0.00  0.00    +0.000 A 
ATOM     28  C   UNL     1       1.408   2.922  18.255  0.00  0.00    +0.000 A 
ATOM     29  N   UNL     1       2.216   4.005  18.226  0.00  0.00    +0.000 NA
ENDBRANCH  16  24
ENDBRANCH   1  16
TORSDOF 9
ENDMDL
MODEL 2
REMARK VINA RESULT:      -8.5      1.104      1.675
REMARK  Name = 
REMARK  10 active torsions:
REMARK  status: ('A' for Active; 'I' for Inactive)
REMARK    1  A    between atoms: C_1  and  N_2
REMARK    2  A    between atoms: N_2  and  C_3
REMARK    3  A    between atoms: C_3  and  C_4
REMARK    4  A    between atoms: C_4  and  C_5
REMARK    5  A    between atoms: C_5  and  C_6
REMARK    6  A    between atoms: C_6  and  C_7
REMARK    7  A    between atoms: C_12  and  C_14
REMARK    8  A    between atoms: C_14  and  C_15
REMARK    9  A    between atoms: C_15  and  C_16
REMARK   10  A    between atoms: C_15  and  C_23
REMARK                            x       y       z     vdW  Elec       q    Type
REMARK                         _______ _______ _______ _____ _____    ______ ____
ROOT
ATOM      1  C   UNL     1       3.809   5.766  17.488  0.00  0.00    +0.000 C 
ENDROOT
BRANCH   1   4
ATOM      2  C   UNL     1       7.450   4.633  17.576  0.00  0.00    +0.000 C 
ATOM      3  N   UNL     1       6.283   5.497  17.530  0.00  0.00    +0.000 N 
ATOM      4  C   UNL     1       5.039   4.870  17.491  0.00  0.00    +0.000 C 
ATOM      5  O   UNL     1       4.945   3.642  17.454  0.00  0.00    +0.000 OA
BRANCH   3   6
ATOM      6  C   UNL     1       6.503   6.929  17.315  0.00  0.00    +0.000 C 
BRANCH   6   7
ATOM      7  C   UNL     1       7.803   7.448  17.937  0.00  0.00    +0.000 C 
BRANCH   7   8
ATOM      8  C   UNL     1       8.057   8.926  17.610  0.00  0.00    +0.000 C 
BRANCH   8   9
ATOM      9  C   UNL     1       8.742   9.673  18.758  0.00  0.00    +0.000 C 
BRANCH   9  10
ATOM     10  C   UNL     1       9.324  10.973  18.339  0.00  0.00    +0.000 A 
ATOM     11  C   UNL     1      10.623  11.415  18.439  0.00  0.00    +0.000 A 
ATOM     12  N   UNL     1      10.599  12.697  17.965  0.00  0.00    +0.000 N 
ATOM     13  C   UNL     1       9.313  12.981  17.603  0.00  0.00    +0.000 A 
ATOM     14  N   UNL     1       8.521  11.955  17.808  0.00  0.00    +0.000 NA
ATOM     15  H   UNL     1      11.387  13.329  17.904  0.00  0.00    +0.000 HD
ENDBRANCH   9  10
ENDBRANCH   8   9
ENDBRANCH   7   8
ENDBRANCH   6   7
ENDBRANCH   3   6
ENDBRANCH   1   4
BRANCH   1  16
ATOM     16  C   UNL     1       3.267   6.092  18.898  0.00  0.00    +0.000 C 
BRANCH  16  17
ATOM     17  C   UNL     1       2.411   7.357  18.913  0.00  0.00    +0.000 A 
ATOM     18  C   UNL     1       2.182   8.102  17.746  0.00  0.00    +0.000 A 
ATOM     19  C   UNL     1       1.499   9.319  17.805  0.00  0.00    +0.000 A 
ATOM     20  C   UNL     1       1.031   9.795  19.028  0.00  0.00    +0.000 A 
ATOM     21 CL   UNL     1       0.236  11.319  19.105  0.00  0.00    +0.000 Cl
ATOM     22  C   UNL     1       1.219   9.054  20.190  0.00  0.00    +0.000 A 
ATOM     23  C   UNL     1       1.901   7.838  20.133  0.00  0.00    +0.000 A 
ENDBRANCH  16  17
BRANCH  16  24
ATOM     24  C   UNL     1       2.532   4.882  19.477  0.00  0.00    +0.000 A 
ATOM     25  C   UNL     1       1.619   4.176  18.692  0.00  0.00    +0.000 A 
ATOM     26  C   UNL     1       0.936   3.099  19.253  0.00  0.00    +0.000 A 
ATOM     27  C   UNL     1       1.182   2.747  20.574  0.00  0.00    +0.000 A 
ATOM     28  C   UNL     1       2.115   3.480  21.281  0.00  0.00    +0.000 A 
ATOM     29  N   UNL     1       2.794   4.529  20.765  0.00  0.00    +0.000 NA
ENDBRANCH  16  24
ENDBRANCH   1  16
TORSDOF 9
ENDMDL
MODEL 3
REMARK VINA RESULT:      -8.5      1.092      1.309
REMARK  Name = 
REMARK  10 active torsions:
REMARK  status: ('A' for Active; 'I' for Inactive)
REMARK    1  A    between atoms: C_1  and  N_2
REMARK    2  A    between atoms: N_2  and  C_3
REMARK    3  A    between atoms: C_3  and  C_4
REMARK    4  A    between atoms: C_4  and  C_5
REMARK    5  A    between atoms: C_5  and  C_6
REMARK    6  A    between atoms: C_6  and  C_7
REMARK    7  A    between atoms: C_12  and  C_14
REMARK    8  A    between atoms: C_14  and  C_15
REMARK    9  A    between atoms: C_15  and  C_16
REMARK   10  A    between atoms: C_15  and  C_23
REMARK                            x       y       z     vdW  Elec       q    Type
REMARK                         _______ _______ _______ _____ _____    ______ ____
ROOT
ATOM      1  C   UNL     1       3.793   5.930  17.512  0.00  0.00    +0.000 C 
ENDROOT
BRANCH   1   4
ATOM      2  C   UNL     1       7.435   4.798  17.551  0.00  0.00    +0.000 C 
ATOM      3  N   UNL     1       6.267   5.662  17.557  0.00  0.00    +0.000 N 
ATOM      4  C   UNL     1       5.024   5.037  17.461  0.00  0.00    +0.000 C 
ATOM      5  O   UNL     1       4.933   3.815  17.334  0.00  0.00    +0.000 OA
BRANCH   3   6
ATOM      6  C   UNL     1       6.487   7.106  17.450  0.00  0.00    +0.000 C 
BRANCH   6   7
ATOM      7  C   UNL     1       7.905   7.539  17.831  0.00  0.00    +0.000 C 
BRANCH   7   8
ATOM      8  C   UNL     1       8.064   9.065  17.850  0.00  0.00    +0.000 C 
BRANCH   8   9
ATOM      9  C   UNL     1       8.932   9.552  19.013  0.00  0.00    +0.000 C 
BRANCH   9  10
ATOM     10  C   UNL     1       9.467  10.921  18.807  0.00  0.00    +0.000 A 
ATOM     11  C   UNL     1       9.342  12.033  19.607  0.00  0.00    +0.000 A 
ATOM     12  N   UNL     1       9.967  13.036  18.922  0.00  0.00    +0.000 N 
ATOM     13  C   UNL     1      10.439  12.509  17.754  0.00  0.00    +0.000 A 
ATOM     14  N   UNL     1      10.161  11.230  17.660  0.00  0.00    +0.000 NA
ATOM     15  H   UNL     1      10.055  14.000  19.217  0.00  0.00    +0.000 HD
ENDBRANCH   9  10
ENDBRANCH   8   9
ENDBRANCH   7   8
ENDBRANCH   6   7
ENDBRANCH   3   6
ENDBRANCH   1   4
BRANCH   1  16
ATOM     16  C   UNL     1       3.271   6.197  18.942  0.00  0.00    +0.000 C 
BRANCH  16  17
ATOM     17  C   UNL     1       2.457   7.487  19.031  0.00  0.00    +0.000 A 
ATOM     18  C   UNL     1       1.809   7.865  20.217  0.00  0.00    +0.000 A 
ATOM     19  C   UNL     1       0.972   8.983  20.241  0.00  0.00    +0.000 A 
ATOM     20  C   UNL     1       0.784   9.736  19.084  0.00  0.00    +0.000 A 
ATOM     21 CL   UNL     1      -0.288  11.082  19.103  0.00  0.00    +0.000 Cl
ATOM     22  C   UNL     1       1.444   9.395  17.907  0.00  0.00    +0.000 A 
ATOM     23  C   UNL     1       2.281   8.279  17.882  0.00  0.00    +0.000 A 
ENDBRANCH  16  17
BRANCH  16  24
ATOM     24  C   UNL     1       2.499   4.982  19.460  0.00  0.00    +0.000 A 
ATOM     25  C   UNL     1       1.641   4.283  18.611  0.00  0.00    +0.000 A 
ATOM     26  C   UNL     1       0.922   3.202  19.116  0.00  0.00    +0.000 A 
ATOM     27  C   UNL     1       1.081   2.838  20.447  0.00  0.00    +0.000 A 
ATOM     28  C   UNL     1       1.965   3.565  21.221  0.00  0.00    +0.000 A 
ATOM     29  N   UNL     1       2.676   4.618  20.760  0.00  0.00    +0.000 NA
ENDBRANCH  16  24
ENDBRANCH   1  16
TORSDOF 9
ENDMDL
MODEL 4
REMARK VINA RESULT:      -8.3      1.162      1.550
REMARK  Name = 
REMARK  10 active torsions:
REMARK  status: ('A' for Active; 'I' for Inactive)
REMARK    1  A    between atoms: C_1  and  N_2
REMARK    2  A    between atoms: N_2  and  C_3
REMARK    3  A    between atoms: C_3  and  C_4
REMARK    4  A    between atoms: C_4  and  C_5
REMARK    5  A    between atoms: C_5  and  C_6
REMARK    6  A    between atoms: C_6  and  C_7
REMARK    7  A    between atoms: C_12  and  C_14
REMARK    8  A    between atoms: C_14  and  C_15
REMARK    9  A    between atoms: C_15  and  C_16
REMARK   10  A    between atoms: C_15  and  C_23
REMARK                            x       y       z     vdW  Elec       q    Type
REMARK                         _______ _______ _______ _____ _____    ______ ____
ROOT
ATOM      1  C   UNL     1       4.319   6.097  18.250  0.00  0.00    +0.000 C 
ENDROOT
BRANCH   1   4
ATOM      2  C   UNL     1       8.019   5.448  18.907  0.00  0.00    +0.000 C 
ATOM      3  N   UNL     1       6.799   6.093  18.452  0.00  0.00    +0.000 N 
ATOM      4  C   UNL     1       5.606   5.410  18.682  0.00  0.00    +0.000 C 
ATOM      5  O   UNL     1       5.600   4.295  19.207  0.00  0.00    +0.000 OA
BRANCH   3   6
ATOM      6  C   UNL     1       6.931   7.285  17.613  0.00  0.00    +0.000 C 
BRANCH   6   7
ATOM      7  C   UNL     1       8.228   8.062  17.852  0.00  0.00    +0.000 C 
BRANCH   7   8
ATOM      8  C   UNL     1       7.977   9.555  18.108  0.00  0.00    +0.000 C 
BRANCH   8   9
ATOM      9  C   UNL     1       9.228  10.408  17.888  0.00  0.00    +0.000 C 
BRANCH   9  10
ATOM     10  C   UNL     1       9.790  10.952  19.149  0.00  0.00    +0.000 A 
ATOM     11  C   UNL     1       9.249  10.947  20.415  0.00  0.00    +0.000 A 
ATOM     12  N   UNL     1      10.148  11.627  21.187  0.00  0.00    +0.000 N 
ATOM     13  C   UNL     1      11.180  12.014  20.381  0.00  0.00    +0.000 A 
ATOM     14  N   UNL     1      10.997  11.611  19.145  0.00  0.00    +0.000 NA
ATOM     15  H   UNL     1      10.062  11.823  22.177  0.00  0.00    +0.000 HD
ENDBRANCH   9  10
ENDBRANCH   8   9
ENDBRANCH   7   8
ENDBRANCH   6   7
ENDBRANCH   3   6
ENDBRANCH   1   4
BRANCH   1  16
ATOM     16  C   UNL     1       3.265   6.220  19.374  0.00  0.00    +0.000 C 
BRANCH  16  17
ATOM     17  C   UNL     1       2.435   7.496  19.253  0.00  0.00    +0.000 A 
ATOM     18  C   UNL     1       1.696   7.996  20.337  0.00  0.00    +0.000 A 
ATOM     19  C   UNL     1       0.848   9.094  20.170  0.00  0.00    +0.000 A 
ATOM     20  C   UNL     1       0.741   9.706  18.922  0.00  0.00    +0.000 A 
ATOM     21 CL   UNL     1      -0.343  11.025  18.706  0.00  0.00    +0.000 Cl
ATOM     22  C   UNL     1       1.491   9.245  17.845  0.00  0.00    +0.000 A 
ATOM     23  C   UNL     1       2.338   8.149  18.010  0.00  0.00    +0.000 A 
ENDBRANCH  16  17
BRANCH  16  24
ATOM     24  C   UNL     1       2.398   4.961  19.429  0.00  0.00    +0.000 A 
ATOM     25  C   UNL     1       1.981   4.347  18.247  0.00  0.00    +0.000 A 
ATOM     26  C   UNL     1       1.162   3.222  18.323  0.00  0.00    +0.000 A 
ATOM     27  C   UNL     1       0.787   2.733  19.568  0.00  0.00    +0.000 A 
ATOM     28  C   UNL     1       1.257   3.382  20.692  0.00  0.00    +0.000 A 
ATOM     29  N   UNL     1       2.052   4.474  20.652  0.00  0.00    +0.000 NA
ENDBRANCH  16  24
ENDBRANCH   1  16
TORSDOF 9
ENDMDL
MODEL 5
REMARK VINA RESULT:      -8.1      1.039      1.557
REMARK  Name = 
REMARK  10 active torsions:
REMARK  status: ('A' for Active; 'I' for Inactive)
REMARK    1  A    between atoms: C_1  and  N_2
REMARK    2  A    between atoms: N_2  and  C_3
REMARK    3  A    between atoms: C_3  and  C_4
REMARK    4  A    between atoms: C_4  and  C_5
REMARK    5  A    between atoms: C_5  and  C_6
REMARK    6  A    between atoms: C_6  and  C_7
REMARK    7  A    between atoms: C_12  and  C_14
REMARK    8  A    between atoms: C_14  and  C_15
REMARK    9  A    between atoms: C_15  and  C_16
REMARK   10  A    between atoms: C_15  and  C_23
REMARK                            x       y       z     vdW  Elec       q    Type
REMARK                         _______ _______ _______ _____ _____    ______ ____
ROOT
ATOM      1  C   UNL     1       4.284   5.808  18.240  0.00  0.00    +0.000 C 
ENDROOT
BRANCH   1   4
ATOM      2  C   UNL     1       8.017   5.674  19.007  0.00  0.00    +0.000 C 
ATOM      3  N   UNL     1       6.733   6.148  18.520  0.00  0.00    +0.000 N 
ATOM      4  C   UNL     1       5.641   5.301  18.705  0.00  0.00    +0.000 C 
ATOM      5  O   UNL     1       5.776   4.190  19.219  0.00  0.00    +0.000 OA
BRANCH   3   6
ATOM      6  C   UNL     1       6.722   7.359  17.697  0.00  0.00    +0.000 C 
BRANCH   6   7
ATOM      7  C   UNL     1       8.101   8.004  17.536  0.00  0.00    +0.000 C 
BRANCH   7   8
ATOM      8  C   UNL     1       8.322   9.162  18.519  0.00  0.00    +0.000 C 
BRANCH   8   9
ATOM      9  C   UNL     1       9.118  10.314  17.900  0.00  0.00    +0.000 C 
BRANCH   9  10
ATOM     10  C   UNL     1       9.857  11.116  18.906  0.00  0.00    +0.000 A 
ATOM     11  C   UNL     1      10.985  11.887  18.744  0.00  0.00    +0.000 A 
ATOM     12  N   UNL     1      11.279  12.354  19.995  0.00  0.00    +0.000 N 
ATOM     13  C   UNL     1      10.340  11.859  20.853  0.00  0.00    +0.000 A 
ATOM     14  N   UNL     1       9.460  11.115  20.223  0.00  0.00    +0.000 NA
ATOM     15  H   UNL     1      12.059  12.948  20.246  0.00  0.00    +0.000 HD
ENDBRANCH   9  10
ENDBRANCH   8   9
ENDBRANCH   7   8
ENDBRANCH   6   7
ENDBRANCH   3   6
ENDBRANCH   1   4
BRANCH   1  16
ATOM     16  C   UNL     1       3.277   6.049  19.387  0.00  0.00    +0.000 C 
BRANCH  16  17
ATOM     17  C   UNL     1       2.460   7.324  19.184  0.00  0.00    +0.000 A 
ATOM     18  C   UNL     1       2.476   8.020  17.965  0.00  0.00    +0.000 A 
ATOM     19  C   UNL     1       1.820   9.247  17.842  0.00  0.00    +0.000 A 
ATOM     20  C   UNL     1       1.136   9.782  18.931  0.00  0.00    +0.000 A 
ATOM     21 CL   UNL     1       0.372  11.318  18.791  0.00  0.00    +0.000 Cl
ATOM     22  C   UNL     1       1.081   9.091  20.137  0.00  0.00    +0.000 A 
ATOM     23  C   UNL     1       1.736   7.865  20.262  0.00  0.00    +0.000 A 
ENDBRANCH  16  17
BRANCH  16  24
ATOM     24  C   UNL     1       2.394   4.815  19.585  0.00  0.00    +0.000 A 
ATOM     25  C   UNL     1       2.156   4.325  20.870  0.00  0.00    +0.000 A 
ATOM     26  C   UNL     1       1.378   3.179  21.022  0.00  0.00    +0.000 A 
ATOM     27  C   UNL     1       0.852   2.556  19.898  0.00  0.00    +0.000 A 
ATOM     28  C   UNL     1       1.115   3.112  18.661  0.00  0.00    +0.000 A 
ATOM     29  N   UNL     1       1.864   4.222  18.481  0.00  0.00    +0.000 NA
ENDBRANCH  16  24
ENDBRANCH   1  16
TORSDOF 9
ENDMDL
MODEL 6
REMARK VINA RESULT:      -8.1      0.586      1.205
REMARK  Name = 
REMARK  10 active torsions:
REMARK  status: ('A' for Active; 'I' for Inactive)
REMARK    1  A    between atoms: C_1  and  N_2
REMARK    2  A    between atoms: N_2  and  C_3
REMARK    3  A    between atoms: C_3  and  C_4
REMARK    4  A    between atoms: C_4  and  C_5
REMARK    5  A    between atoms: C_5  and  C_6
REMARK    6  A    between atoms: C_6  and  C_7
REMARK    7  A    between atoms: C_12  and  C_14
REMARK    8  A    between atoms: C_14  and  C_15
REMARK    9  A    between atoms: C_15  and  C_16
REMARK   10  A    between atoms: C_15  and  C_23
REMARK                            x       y       z     vdW  Elec       q    Type
REMARK                         _______ _______ _______ _____ _____    ______ ____
ROOT
ATOM      1  C   UNL     1       4.297   5.921  18.441  0.00  0.00    +0.000 C 
ENDROOT
BRANCH   1   4
ATOM      2  C   UNL     1       8.050   5.648  19.064  0.00  0.00    +0.000 C 
ATOM      3  N   UNL     1       6.781   6.060  18.487  0.00  0.00    +0.000 N 
ATOM      4  C   UNL     1       5.634   5.463  19.007  0.00  0.00    +0.000 C 
ATOM      5  O   UNL     1       5.704   4.598  19.881  0.00  0.00    +0.000 OA
BRANCH   3   6
ATOM      6  C   UNL     1       6.818   6.894  17.284  0.00  0.00    +0.000 C 
BRANCH   6   7
ATOM      7  C   UNL     1       8.002   7.864  17.248  0.00  0.00    +0.000 C 
BRANCH   7   8
ATOM      8  C   UNL     1       7.710   9.171  17.997  0.00  0.00    +0.000 C 
BRANCH   8   9
ATOM      9  C   UNL     1       8.914   9.671  18.799  0.00  0.00    +0.000 C 
BRANCH   9  10
ATOM     10  C   UNL     1       9.481  10.936  18.267  0.00  0.00    +0.000 A 
ATOM     11  C   UNL     1      10.799  11.312  18.141  0.00  0.00    +0.000 A 
ATOM     12  N   UNL     1      10.758  12.589  17.656  0.00  0.00    +0.000 N 
ATOM     13  C   UNL     1       9.446  12.935  17.509  0.00  0.00    +0.000 A 
ATOM     14  N   UNL     1       8.650  11.953  17.861  0.00  0.00    +0.000 NA
ATOM     15  H   UNL     1      11.555  13.179  17.454  0.00  0.00    +0.000 HD
ENDBRANCH   9  10
ENDBRANCH   8   9
ENDBRANCH   7   8
ENDBRANCH   6   7
ENDBRANCH   3   6
ENDBRANCH   1   4
BRANCH   1  16
ATOM     16  C   UNL     1       3.176   6.039  19.498  0.00  0.00    +0.000 C 
BRANCH  16  17
ATOM     17  C   UNL     1       2.338   7.303  19.317  0.00  0.00    +0.000 A 
ATOM     18  C   UNL     1       2.270   7.967  18.083  0.00  0.00    +0.000 A 
ATOM     19  C   UNL     1       1.597   9.187  17.972  0.00  0.00    +0.000 A 
ATOM     20  C   UNL     1       0.980   9.745  19.089  0.00  0.00    +0.000 A 
ATOM     21 CL   UNL     1       0.197  11.272  18.961  0.00  0.00    +0.000 Cl
ATOM     22  C   UNL     1       1.009   9.084  20.313  0.00  0.00    +0.000 A 
ATOM     23  C   UNL     1       1.680   7.866  20.426  0.00  0.00    +0.000 A 
ENDBRANCH  16  17
BRANCH  16  24
ATOM     24  C   UNL     1       2.323   4.768  19.510  0.00  0.00    +0.000 A 
ATOM     25  C   UNL     1       1.773   4.306  20.706  0.00  0.00    +0.000 A 
ATOM     26  C   UNL     1       1.030   3.128  20.697  0.00  0.00    +0.000 A 
ATOM     27  C   UNL     1       0.846   2.445  19.501  0.00  0.00    +0.000 A 
ATOM     28  C   UNL     1       1.404   2.976  18.355  0.00  0.00    +0.000 A 
ATOM     29  N   UNL     1       2.129   4.116  18.331  0.00  0.00    +0.000 NA
ENDBRANCH  16  24
ENDBRANCH   1  16
TORSDOF 9
ENDMDL
MODEL 7
REMARK VINA RESULT:      -7.9      3.818      5.959
REMARK  Name = 
REMARK  10 active torsions:
REMARK  status: ('A' for Active; 'I' for Inactive)
REMARK    1  A    between atoms: C_1  and  N_2
REMARK    2  A    between atoms: N_2  and  C_3
REMARK    3  A    between atoms: C_3  and  C_4
REMARK    4  A    between atoms: C_4  and  C_5
REMARK    5  A    between atoms: C_5  and  C_6
REMARK    6  A    between atoms: C_6  and  C_7
REMARK    7  A    between atoms: C_12  and  C_14
REMARK    8  A    between atoms: C_14  and  C_15
REMARK    9  A    between atoms: C_15  and  C_16
REMARK   10  A    between atoms: C_15  and  C_23
REMARK                            x       y       z     vdW  Elec       q    Type
REMARK                         _______ _______ _______ _____ _____    ______ ____
ROOT
ATOM      1  C   UNL     1       3.936   5.333  17.962  0.00  0.00    +0.000 C 
ENDROOT
BRANCH   1   4
ATOM      2  C   UNL     1       7.616   4.487  17.427  0.00  0.00    +0.000 C 
ATOM      3  N   UNL     1       6.308   5.095  17.249  0.00  0.00    +0.000 N 
ATOM      4  C   UNL     1       5.298   4.670  18.110  0.00  0.00    +0.000 C 
ATOM      5  O   UNL     1       5.502   3.791  18.949  0.00  0.00    +0.000 OA
BRANCH   3   6
ATOM      6  C   UNL     1       6.101   5.932  16.066  0.00  0.00    +0.000 C 
BRANCH   6   7
ATOM      7  C   UNL     1       6.538   5.264  14.759  0.00  0.00    +0.000 C 
BRANCH   7   8
ATOM      8  C   UNL     1       5.724   4.001  14.447  0.00  0.00    +0.000 C 
BRANCH   8   9
ATOM      9  C   UNL     1       5.269   3.940  12.987  0.00  0.00    +0.000 C 
BRANCH   9  10
ATOM     10  C   UNL     1       6.046   2.970  12.176  0.00  0.00    +0.000 A 
ATOM     11  C   UNL     1       7.387   2.974  11.866  0.00  0.00    +0.000 A 
ATOM     12  N   UNL     1       7.565   1.895  11.047  0.00  0.00    +0.000 N 
ATOM     13  C   UNL     1       6.352   1.288  10.890  0.00  0.00    +0.000 A 
ATOM     14  N   UNL     1       5.415   1.909  11.569  0.00  0.00    +0.000 NA
ATOM     15  H   UNL     1       8.435   1.602  10.620  0.00  0.00    +0.000 HD
ENDBRANCH   9  10
ENDBRANCH   8   9
ENDBRANCH   7   8
ENDBRANCH   6   7
ENDBRANCH   3   6
ENDBRANCH   1   4
BRANCH   1  16
ATOM     16  C   UNL     1       3.327   5.820  19.296  0.00  0.00    +0.000 C 
BRANCH  16  17
ATOM     17  C   UNL     1       2.505   7.097  19.127  0.00  0.00    +0.000 A 
ATOM     18  C   UNL     1       2.466   7.788  17.906  0.00  0.00    +0.000 A 
ATOM     19  C   UNL     1       1.807   9.016  17.808  0.00  0.00    +0.000 A 
ATOM     20  C   UNL     1       1.175   9.557  18.926  0.00  0.00    +0.000 A 
ATOM     21 CL   UNL     1       0.410  11.094  18.816  0.00  0.00    +0.000 Cl
ATOM     22  C   UNL     1       1.175   8.870  20.136  0.00  0.00    +0.000 A 
ATOM     23  C   UNL     1       1.832   7.643  20.235  0.00  0.00    +0.000 A 
ENDBRANCH  16  17
BRANCH  16  24
ATOM     24  C   UNL     1       2.530   4.695  19.958  0.00  0.00    +0.000 A 
ATOM     25  C   UNL     1       1.529   4.033  19.244  0.00  0.00    +0.000 A 
ATOM     26  C   UNL     1       0.793   3.036  19.881  0.00  0.00    +0.000 A 
ATOM     27  C   UNL     1       1.074   2.717  21.203  0.00  0.00    +0.000 A 
ATOM     28  C   UNL     1       2.093   3.401  21.836  0.00  0.00    +0.000 A 
ATOM     29  N   UNL     1       2.825   4.372  21.246  0.00  0.00    +0.000 NA
ENDBRANCH  16  24
ENDBRANCH   1  16
TORSDOF 9
ENDMDL
MODEL 8
REMARK VINA RESULT:      -7.9      1.387      1.953
REMARK  Name = 
REMARK  10 active torsions:
REMARK  status: ('A' for Active; 'I' for Inactive)
REMARK    1  A    between atoms: C_1  and  N_2
REMARK    2  A    between atoms: N_2  and  C_3
REMARK    3  A    between atoms: C_3  and  C_4
REMARK    4  A    between atoms: C_4  and  C_5
REMARK    5  A    between atoms: C_5  and  C_6
REMARK    6  A    between atoms: C_6  and  C_7
REMARK    7  A    between atoms: C_12  and  C_14
REMARK    8  A    between atoms: C_14  and  C_15
REMARK    9  A    between atoms: C_15  and  C_16
REMARK   10  A    between atoms: C_15  and  C_23
REMARK                            x       y       z     vdW  Elec       q    Type
REMARK                         _______ _______ _______ _____ _____    ______ ____
ROOT
ATOM      1  C   UNL     1       3.892   5.974  17.583  0.00  0.00    +0.000 C 
ENDROOT
BRANCH   1   4
ATOM      2  C   UNL     1       7.589   5.055  17.772  0.00  0.00    +0.000 C 
ATOM      3  N   UNL     1       6.376   5.849  17.673  0.00  0.00    +0.000 N 
ATOM      4  C   UNL     1       5.171   5.150  17.641  0.00  0.00    +0.000 C 
ATOM      5  O   UNL     1       5.147   3.918  17.654  0.00  0.00    +0.000 OA
BRANCH   3   6
ATOM      6  C   UNL     1       6.519   7.281  17.403  0.00  0.00    +0.000 C 
BRANCH   6   7
ATOM      7  C   UNL     1       7.930   7.815  17.662  0.00  0.00    +0.000 C 
BRANCH   7   8
ATOM      8  C   UNL     1       7.923   9.268  18.158  0.00  0.00    +0.000 C 
BRANCH   8   9
ATOM      9  C   UNL     1       9.220  10.009  17.824  0.00  0.00    +0.000 C 
BRANCH   9  10
ATOM     10  C   UNL     1       9.747  10.801  18.964  0.00  0.00    +0.000 A 
ATOM     11  C   UNL     1      10.913  11.526  19.052  0.00  0.00    +0.000 A 
ATOM     12  N   UNL     1      10.938  12.003  20.333  0.00  0.00    +0.000 N 
ATOM     13  C   UNL     1       9.811  11.559  20.963  0.00  0.00    +0.000 A 
ATOM     14  N   UNL     1       9.066  10.838  20.158  0.00  0.00    +0.000 NA
ATOM     15  H   UNL     1      11.665  12.572  20.747  0.00  0.00    +0.000 HD
ENDBRANCH   9  10
ENDBRANCH   8   9
ENDBRANCH   7   8
ENDBRANCH   6   7
ENDBRANCH   3   6
ENDBRANCH   1   4
BRANCH   1  16
ATOM     16  C   UNL     1       3.268   6.263  18.967  0.00  0.00    +0.000 C 
BRANCH  16  17
ATOM     17  C   UNL     1       2.397   7.517  18.961  0.00  0.00    +0.000 A 
ATOM     18  C   UNL     1       2.303   8.339  17.828  0.00  0.00    +0.000 A 
ATOM     19  C   UNL     1       1.599   9.545  17.884  0.00  0.00    +0.000 A 
ATOM     20  C   UNL     1       0.976   9.932  19.069  0.00  0.00    +0.000 A 
ATOM     21 CL   UNL     1       0.153  11.441  19.150  0.00  0.00    +0.000 Cl
ATOM     22  C   UNL     1       1.030   9.113  20.193  0.00  0.00    +0.000 A 
ATOM     23  C   UNL     1       1.733   7.909  20.138  0.00  0.00    +0.000 A 
ENDBRANCH  16  17
BRANCH  16  24
ATOM     24  C   UNL     1       2.517   5.031  19.478  0.00  0.00    +0.000 A 
ATOM     25  C   UNL     1       1.688   4.311  18.617  0.00  0.00    +0.000 A 
ATOM     26  C   UNL     1       0.987   3.215  19.115  0.00  0.00    +0.000 A 
ATOM     27  C   UNL     1       1.133   2.859  20.449  0.00  0.00    +0.000 A 
ATOM     28  C   UNL     1       1.988   3.608  21.234  0.00  0.00    +0.000 A 
ATOM     29  N   UNL     1       2.682   4.675  20.781  0.00  0.00    +0.000 NA
ENDBRANCH  16  24
ENDBRANCH   1  16
TORSDOF 9
ENDMDL
MODEL 9
REMARK VINA RESULT:      -7.9      4.799      8.054
REMARK  Name = 
REMARK  10 active torsions:
REMARK  status: ('A' for Active; 'I' for Inactive)
REMARK    1  A    between atoms: C_1  and  N_2
REMARK    2  A    between atoms: N_2  and  C_3
REMARK    3  A    between atoms: C_3  and  C_4
REMARK    4  A    between atoms: C_4  and  C_5
REMARK    5  A    between atoms: C_5  and  C_6
REMARK    6  A    between atoms: C_6  and  C_7
REMARK    7  A    between atoms: C_12  and  C_14
REMARK    8  A    between atoms: C_14  and  C_15
REMARK    9  A    between atoms: C_15  and  C_16
REMARK   10  A    between atoms: C_15  and  C_23
REMARK                            x       y       z     vdW  Elec       q    Type
REMARK                         _______ _______ _______ _____ _____    ______ ____
ROOT
ATOM      1  C   UNL     1       2.615   7.250  19.301  0.00  0.00    +0.000 C 
ENDROOT
BRANCH   1   4
ATOM      2  C   UNL     1       0.376  10.337  19.380  0.00  0.00    +0.000 C 
ATOM      3  N   UNL     1       1.134   9.179  19.825  0.00  0.00    +0.000 N 
ATOM      4  C   UNL     1       1.782   8.437  18.839  0.00  0.00    +0.000 C 
ATOM      5  O   UNL     1       1.676   8.730  17.647  0.00  0.00    +0.000 OA
BRANCH   3   6
ATOM      6  C   UNL     1       0.986   8.765  21.222  0.00  0.00    +0.000 C 
BRANCH   6   7
ATOM      7  C   UNL     1      -0.416   9.007  21.788  0.00  0.00    +0.000 C 
BRANCH   7   8
ATOM      8  C   UNL     1      -0.412  10.015  22.946  0.00  0.00    +0.000 C 
BRANCH   8   9
ATOM      9  C   UNL     1      -0.548  11.462  22.467  0.00  0.00    +0.000 C 
BRANCH   9  10
ATOM     10  C   UNL     1      -1.949  11.952  22.487  0.00  0.00    +0.000 A 
ATOM     11  C   UNL     1      -2.859  11.942  23.519  0.00  0.00    +0.000 A 
ATOM     12  N   UNL     1      -4.009  12.451  22.985  0.00  0.00    +0.000 N 
ATOM     13  C   UNL     1      -3.762  12.744  21.674  0.00  0.00    +0.000 A 
ATOM     14  N   UNL     1      -2.523  12.463  21.346  0.00  0.00    +0.000 NA
ATOM     15  H   UNL     1      -4.890  12.576  23.466  0.00  0.00    +0.000 HD
ENDBRANCH   9  10
ENDBRANCH   8   9
ENDBRANCH   7   8
ENDBRANCH   6   7
ENDBRANCH   3   6
ENDBRANCH   1   4
BRANCH   1  16
ATOM     16  C   UNL     1       2.375   5.959  18.485  0.00  0.00    +0.000 C 
BRANCH  16  17
ATOM     17  C   UNL     1       3.546   5.630  17.561  0.00  0.00    +0.000 A 
ATOM     18  C   UNL     1       3.829   4.311  17.176  0.00  0.00    +0.000 A 
ATOM     19  C   UNL     1       4.974   4.020  16.432  0.00  0.00    +0.000 A 
ATOM     20  C   UNL     1       5.839   5.047  16.058  0.00  0.00    +0.000 A 
ATOM     21 CL   UNL     1       7.276   4.680  15.185  0.00  0.00    +0.000 Cl
ATOM     22  C   UNL     1       5.558   6.365  16.402  0.00  0.00    +0.000 A 
ATOM     23  C   UNL     1       4.414   6.657  17.146  0.00  0.00    +0.000 A 
ENDBRANCH  16  17
BRANCH  16  24
ATOM     24  C   UNL     1       2.023   4.800  19.419  0.00  0.00    +0.000 A 
ATOM     25  C   UNL     1       1.187   3.774  18.976  0.00  0.00    +0.000 A 
ATOM     26  C   UNL     1       0.853   2.748  19.857  0.00  0.00    +0.000 A 
ATOM     27  C   UNL     1       1.362   2.762  21.149  0.00  0.00    +0.000 A 
ATOM     28  C   UNL     1       2.199   3.801  21.507  0.00  0.00    +0.000 A 
ATOM     29  N   UNL     1       2.543   4.809  20.676  0.00  0.00    +0.000 NA
ENDBRANCH  16  24
ENDBRANCH   1  16
TORSDOF 9
ENDMDL
