MODEL 1
REMARK VINA RESULT:      -6.7      0.000      0.000
REMARK  Name = 
REMARK  8 active torsions:
REMARK  status: ('A' for Active; 'I' for Inactive)
REMARK    1  A    between atoms: C_1  and  O_2
REMARK    2  A    between atoms: O_2  and  C_3
REMARK    3  A    between atoms: C_3  and  C_4
REMARK    4  A    between atoms: C_8  and  O_9
REMARK    5  A    between atoms: C_15  and  C_16
REMARK    6  A    between atoms: C_16  and  N_17
REMARK    7  A    between atoms: N_17  and  C_18
REMARK    8  A    between atoms: N_17  and  C_19
REMARK                            x       y       z     vdW  Elec       q    Type
REMARK                         _______ _______ _______ _____ _____    ______ ____
ROOT
ATOM      1  C   UNL     1       5.841   4.769  17.429  0.00  0.00    +0.000 C 
ATOM      2  C   UNL     1       5.699   6.286  17.766  0.00  0.00    +0.000 C 
ATOM      3  C   UNL     1       4.421   6.916  17.216  0.00  0.00    +0.000 C 
ATOM      4  C   UNL     1       3.182   6.193  17.724  0.00  0.00    +0.000 C 
ATOM      5  C   UNL     1       3.250   4.696  17.435  0.00  0.00    +0.000 C 
ATOM      6  C   UNL     1       4.549   4.025  17.956  0.00  0.00    +0.000 C 
ENDROOT
BRANCH   1   7
ATOM      7  C   UNL     1       6.165   4.613  15.921  0.00  0.00    +0.000 A 
ATOM      8  C   UNL     1       5.331   3.822  15.102  0.00  0.00    +0.000 A 
ATOM      9  C   UNL     1       5.564   3.680  13.729  0.00  0.00    +0.000 A 
ATOM     10  C   UNL     1       6.638   4.332  13.135  0.00  0.00    +0.000 A 
ATOM     11  C   UNL     1       7.455   5.133  13.920  0.00  0.00    +0.000 A 
ATOM     12  C   UNL     1       7.221   5.287  15.285  0.00  0.00    +0.000 A 
BRANCH  11  13
ATOM     13  O   UNL     1       8.512   5.809  13.385  0.00  0.00    +0.000 OA
ATOM     14  H   UNL     1       9.274   5.714  13.981  0.00  0.00    +0.000 HD
ENDBRANCH  11  13
ENDBRANCH   1   7
BRANCH   1  16
ATOM     15  C   UNL     1       7.744   5.369  18.843  0.00  0.00    +0.000 C 
ATOM     16  O   UNL     1       7.019   4.347  18.166  0.00  0.00    +0.000 OA
ENDBRANCH   1  16
BRANCH   6  17
ATOM     17  C   UNL     1       4.514   3.901  19.514  0.00  0.00    +0.000 C 
BRANCH  17  18
ATOM     18  N   UNL     1       4.054   2.591  20.039  0.00  0.00    +0.000 NA
ATOM     19  C   UNL     1       2.868   2.710  20.894  0.00  0.00    +0.000 C 
ATOM     20  C   UNL     1       3.748   1.693  18.918  0.00  0.00    +0.000 C 
ENDBRANCH  17  18
ENDBRANCH   6  17
TORSDOF 5
ENDMDL
MODEL 2
REMARK VINA RESULT:      -6.5      2.746      4.036
REMARK  Name = 
REMARK  8 active torsions:
REMARK  status: ('A' for Active; 'I' for Inactive)
REMARK    1  A    between atoms: C_1  and  O_2
REMARK    2  A    between atoms: O_2  and  C_3
REMARK    3  A    between atoms: C_3  and  C_4
REMARK    4  A    between atoms: C_8  and  O_9
REMARK    5  A    between atoms: C_15  and  C_16
REMARK    6  A    between atoms: C_16  and  N_17
REMARK    7  A    between atoms: N_17  and  C_18
REMARK    8  A    between atoms: N_17  and  C_19
REMARK                            x       y       z     vdW  Elec       q    Type
REMARK                         _______ _______ _______ _____ _____    ______ ____
ROOT
ATOM      1  C   UNL     1       4.015   5.408  18.675  0.00  0.00    +0.000 C 
ATOM      2  C   UNL     1       3.495   5.043  17.250  0.00  0.00    +0.000 C 
ATOM      3  C   UNL     1       4.057   3.729  16.714  0.00  0.00    +0.000 C 
ATOM      4  C   UNL     1       3.747   2.570  17.649  0.00  0.00    +0.000 C 
ATOM      5  C   UNL     1       4.223   2.855  19.071  0.00  0.00    +0.000 C 
ATOM      6  C   UNL     1       3.693   4.198  19.641  0.00  0.00    +0.000 C 
ENDROOT
BRANCH   1   7
ATOM      7  C   UNL     1       5.500   5.842  18.579  0.00  0.00    +0.000 A 
ATOM      8  C   UNL     1       5.892   6.797  17.616  0.00  0.00    +0.000 A 
ATOM      9  C   UNL     1       7.214   7.244  17.515  0.00  0.00    +0.000 A 
ATOM     10  C   UNL     1       8.183   6.752  18.382  0.00  0.00    +0.000 A 
ATOM     11  C   UNL     1       7.812   5.831  19.351  0.00  0.00    +0.000 A 
ATOM     12  C   UNL     1       6.494   5.390  19.463  0.00  0.00    +0.000 A 
BRANCH  11  13
ATOM     13  O   UNL     1       8.719   5.329  20.238  0.00  0.00    +0.000 OA
ATOM     14  H   UNL     1       9.096   6.068  20.745  0.00  0.00    +0.000 HD
ENDBRANCH  11  13
ENDBRANCH   1   7
BRANCH   1  16
ATOM     15  C   UNL     1       2.457   7.176  18.021  0.00  0.00    +0.000 C 
ATOM     16  O   UNL     1       3.249   6.585  19.046  0.00  0.00    +0.000 OA
ENDBRANCH   1  16
BRANCH   6  17
ATOM     17  C   UNL     1       2.172   4.086  19.985  0.00  0.00    +0.000 C 
BRANCH  17  18
ATOM     18  N   UNL     1       1.687   2.717  20.293  0.00  0.00    +0.000 NA
ATOM     19  C   UNL     1       1.298   2.558  21.698  0.00  0.00    +0.000 C 
ATOM     20  C   UNL     1       0.537   2.400  19.437  0.00  0.00    +0.000 C 
ENDBRANCH  17  18
ENDBRANCH   6  17
TORSDOF 5
ENDMDL
MODEL 3
REMARK VINA RESULT:      -6.3      2.874      5.508
REMARK  Name = 
REMARK  8 active torsions:
REMARK  status: ('A' for Active; 'I' for Inactive)
REMARK    1  A    between atoms: C_1  and  O_2
REMARK    2  A    between atoms: O_2  and  C_3
REMARK    3  A    between atoms: C_3  and  C_4
REMARK    4  A    between atoms: C_8  and  O_9
REMARK    5  A    between atoms: C_15  and  C_16
REMARK    6  A    between atoms: C_16  and  N_17
REMARK    7  A    between atoms: N_17  and  C_18
REMARK    8  A    between atoms: N_17  and  C_19
REMARK                            x       y       z     vdW  Elec       q    Type
REMARK                         _______ _______ _______ _____ _____    ______ ____
ROOT
ATOM      1  C   UNL     1       3.849   5.541  18.538  0.00  0.00    +0.000 C 
ATOM      2  C   UNL     1       3.741   4.523  19.716  0.00  0.00    +0.000 C 
ATOM      3  C   UNL     1       2.408   3.781  19.761  0.00  0.00    +0.000 C 
ATOM      4  C   UNL     1       2.142   3.039  18.459  0.00  0.00    +0.000 C 
ATOM      5  C   UNL     1       2.235   3.971  17.254  0.00  0.00    +0.000 C 
ATOM      6  C   UNL     1       3.567   4.764  17.189  0.00  0.00    +0.000 C 
ENDROOT
BRANCH   1   7
ATOM      7  C   UNL     1       2.942   6.762  18.837  0.00  0.00    +0.000 A 
ATOM      8  C   UNL     1       2.316   6.880  20.097  0.00  0.00    +0.000 A 
ATOM      9  C   UNL     1       1.517   7.982  20.424  0.00  0.00    +0.000 A 
ATOM     10  C   UNL     1       1.327   9.003  19.500  0.00  0.00    +0.000 A 
ATOM     11  C   UNL     1       1.955   8.916  18.265  0.00  0.00    +0.000 A 
ATOM     12  C   UNL     1       2.760   7.826  17.938  0.00  0.00    +0.000 A 
BRANCH  11  13
ATOM     13  O   UNL     1       1.817   9.898  17.328  0.00  0.00    +0.000 OA
ATOM     14  H   UNL     1       1.803   9.485  16.448  0.00  0.00    +0.000 HD
ENDBRANCH  11  13
ENDBRANCH   1   7
BRANCH   1  16
ATOM     15  C   UNL     1       6.104   5.289  19.450  0.00  0.00    +0.000 C 
ATOM     16  O   UNL     1       5.224   6.006  18.590  0.00  0.00    +0.000 OA
ENDBRANCH   1  16
BRANCH   6  17
ATOM     17  C   UNL     1       4.745   3.824  16.775  0.00  0.00    +0.000 C 
BRANCH  17  18
ATOM     18  N   UNL     1       5.583   4.309  15.650  0.00  0.00    +0.000 NA
ATOM     19  C   UNL     1       5.247   5.677  15.244  0.00  0.00    +0.000 C 
ATOM     20  C   UNL     1       6.999   4.257  16.035  0.00  0.00    +0.000 C 
ENDBRANCH  17  18
ENDBRANCH   6  17
TORSDOF 5
ENDMDL
MODEL 4
REMARK VINA RESULT:      -6.3      2.231      4.159
REMARK  Name = 
REMARK  8 active torsions:
REMARK  status: ('A' for Active; 'I' for Inactive)
REMARK    1  A    between atoms: C_1  and  O_2
REMARK    2  A    between atoms: O_2  and  C_3
REMARK    3  A    between atoms: C_3  and  C_4
REMARK    4  A    between atoms: C_8  and  O_9
REMARK    5  A    between atoms: C_15  and  C_16
REMARK    6  A    between atoms: C_16  and  N_17
REMARK    7  A    between atoms: N_17  and  C_18
REMARK    8  A    between atoms: N_17  and  C_19
REMARK                            x       y       z     vdW  Elec       q    Type
REMARK                         _______ _______ _______ _____ _____    ______ ____
ROOT
ATOM      1  C   UNL     1       4.821   5.567  17.239  0.00  0.00    +0.000 C 
ATOM      2  C   UNL     1       4.695   6.229  15.832  0.00  0.00    +0.000 C 
ATOM      3  C   UNL     1       5.668   5.663  14.801  0.00  0.00    +0.000 C 
ATOM      4  C   UNL     1       5.494   4.160  14.641  0.00  0.00    +0.000 C 
ATOM      5  C   UNL     1       5.600   3.438  15.982  0.00  0.00    +0.000 C 
ATOM      6  C   UNL     1       4.644   4.005  17.065  0.00  0.00    +0.000 C 
ENDROOT
BRANCH   1   7
ATOM      7  C   UNL     1       6.134   6.045  17.909  0.00  0.00    +0.000 A 
ATOM      8  C   UNL     1       6.786   7.203  17.431  0.00  0.00    +0.000 A 
ATOM      9  C   UNL     1       7.954   7.691  18.027  0.00  0.00    +0.000 A 
ATOM     10  C   UNL     1       8.501   7.038  19.125  0.00  0.00    +0.000 A 
ATOM     11  C   UNL     1       7.861   5.913  19.624  0.00  0.00    +0.000 A 
ATOM     12  C   UNL     1       6.691   5.428  19.041  0.00  0.00    +0.000 A 
BRANCH  11  13
ATOM     13  O   UNL     1       8.345   5.244  20.710  0.00  0.00    +0.000 OA
ATOM     14  H   UNL     1       7.787   4.462  20.865  0.00  0.00    +0.000 HD
ENDBRANCH  11  13
ENDBRANCH   1   7
BRANCH   1  16
ATOM     15  C   UNL     1       3.285   7.432  17.619  0.00  0.00    +0.000 C 
ATOM     16  O   UNL     1       3.721   6.132  18.002  0.00  0.00    +0.000 OA
ENDBRANCH   1  16
BRANCH   6  17
ATOM     17  C   UNL     1       3.166   3.593  16.761  0.00  0.00    +0.000 C 
BRANCH  17  18
ATOM     18  N   UNL     1       2.546   2.670  17.744  0.00  0.00    +0.000 NA
ATOM     19  C   UNL     1       3.528   2.071  18.654  0.00  0.00    +0.000 C 
ATOM     20  C   UNL     1       1.541   3.396  18.532  0.00  0.00    +0.000 C 
ENDBRANCH  17  18
ENDBRANCH   6  17
TORSDOF 5
ENDMDL
MODEL 5
REMARK VINA RESULT:      -6.3      2.855      5.123
REMARK  Name = 
REMARK  8 active torsions:
REMARK  status: ('A' for Active; 'I' for Inactive)
REMARK    1  A    between atoms: C_1  and  O_2
REMARK    2  A    between atoms: O_2  and  C_3
REMARK    3  A    between atoms: C_3  and  C_4
REMARK    4  A    between atoms: C_8  and  O_9
REMARK    5  A    between atoms: C_15  and  C_16
REMARK    6  A    between atoms: C_16  and  N_17
REMARK    7  A    between atoms: N_17  and  C_18
REMARK    8  A    between atoms: N_17  and  C_19
REMARK                            x       y       z     vdW  Elec       q    Type
REMARK                         _______ _______ _______ _____ _____    ______ ____
ROOT
ATOM      1  C   UNL     1       3.634   5.510  17.929  0.00  0.00    +0.000 C 
ATOM      2  C   UNL     1       4.576   5.928  16.758  0.00  0.00    +0.000 C 
ATOM      3  C   UNL     1       5.785   6.745  17.208  0.00  0.00    +0.000 C 
ATOM      4  C   UNL     1       6.610   5.990  18.241  0.00  0.00    +0.000 C 
ATOM      5  C   UNL     1       5.754   5.541  19.422  0.00  0.00    +0.000 C 
ATOM      6  C   UNL     1       4.499   4.731  19.001  0.00  0.00    +0.000 C 
ENDROOT
BRANCH   1   7
ATOM      7  C   UNL     1       2.866   6.758  18.434  0.00  0.00    +0.000 A 
ATOM      8  C   UNL     1       2.406   6.808  19.768  0.00  0.00    +0.000 A 
ATOM      9  C   UNL     1       1.739   7.927  20.278  0.00  0.00    +0.000 A 
ATOM     10  C   UNL     1       1.518   9.035  19.467  0.00  0.00    +0.000 A 
ATOM     11  C   UNL     1       1.984   9.013  18.160  0.00  0.00    +0.000 A 
ATOM     12  C   UNL     1       2.659   7.905  17.650  0.00  0.00    +0.000 A 
BRANCH  11  13
ATOM     13  O   UNL     1       1.811  10.079  17.326  0.00  0.00    +0.000 OA
ATOM     14  H   UNL     1       1.103   9.865  16.695  0.00  0.00    +0.000 HD
ENDBRANCH  11  13
ENDBRANCH   1   7
BRANCH   1  16
ATOM     15  C   UNL     1       1.465   4.388  18.046  0.00  0.00    +0.000 C 
ATOM     16  O   UNL     1       2.660   4.629  17.310  0.00  0.00    +0.000 OA
ENDBRANCH   1  16
BRANCH   6  17
ATOM     17  C   UNL     1       4.906   3.298  18.524  0.00  0.00    +0.000 C 
BRANCH  17  18
ATOM     18  N   UNL     1       4.329   2.178  19.308  0.00  0.00    +0.000 NA
ATOM     19  C   UNL     1       3.533   2.638  20.450  0.00  0.00    +0.000 C 
ATOM     20  C   UNL     1       3.483   1.353  18.435  0.00  0.00    +0.000 C 
ENDBRANCH  17  18
ENDBRANCH   6  17
TORSDOF 5
ENDMDL
MODEL 6
REMARK VINA RESULT:      -6.2      2.847      5.345
REMARK  Name = 
REMARK  8 active torsions:
REMARK  status: ('A' for Active; 'I' for Inactive)
REMARK    1  A    between atoms: C_1  and  O_2
REMARK    2  A    between atoms: O_2  and  C_3
REMARK    3  A    between atoms: C_3  and  C_4
REMARK    4  A    between atoms: C_8  and  O_9
REMARK    5  A    between atoms: C_15  and  C_16
REMARK    6  A    between atoms: C_16  and  N_17
REMARK    7  A    between atoms: N_17  and  C_18
REMARK    8  A    between atoms: N_17  and  C_19
REMARK                            x       y       z     vdW  Elec       q    Type
REMARK                         _______ _______ _______ _____ _____    ______ ____
ROOT
ATOM      1  C   UNL     1       3.658   5.523  17.933  0.00  0.00    +0.000 C 
ATOM      2  C   UNL     1       4.588   5.931  16.748  0.00  0.00    +0.000 C 
ATOM      3  C   UNL     1       5.809   6.737  17.181  0.00  0.00    +0.000 C 
ATOM      4  C   UNL     1       6.642   5.978  18.204  0.00  0.00    +0.000 C 
ATOM      5  C   UNL     1       5.797   5.538  19.397  0.00  0.00    +0.000 C 
ATOM      6  C   UNL     1       4.530   4.738  18.994  0.00  0.00    +0.000 C 
ENDROOT
BRANCH   1   7
ATOM      7  C   UNL     1       2.907   6.779  18.445  0.00  0.00    +0.000 A 
ATOM      8  C   UNL     1       2.540   7.797  17.538  0.00  0.00    +0.000 A 
ATOM      9  C   UNL     1       1.831   8.931  17.949  0.00  0.00    +0.000 A 
ATOM     10  C   UNL     1       1.462   9.076  19.281  0.00  0.00    +0.000 A 
ATOM     11  C   UNL     1       1.792   8.074  20.182  0.00  0.00    +0.000 A 
ATOM     12  C   UNL     1       2.489   6.937  19.777  0.00  0.00    +0.000 A 
BRANCH  11  13
ATOM     13  O   UNL     1       1.439   8.158  21.497  0.00  0.00    +0.000 OA
ATOM     14  H   UNL     1       1.104   7.290  21.782  0.00  0.00    +0.000 HD
ENDBRANCH  11  13
ENDBRANCH   1   7
BRANCH   1  16
ATOM     15  C   UNL     1       1.486   4.409  18.086  0.00  0.00    +0.000 C 
ATOM     16  O   UNL     1       2.668   4.650  17.328  0.00  0.00    +0.000 OA
ENDBRANCH   1  16
BRANCH   6  17
ATOM     17  C   UNL     1       4.918   3.301  18.515  0.00  0.00    +0.000 C 
BRANCH  17  18
ATOM     18  N   UNL     1       4.337   2.187  19.306  0.00  0.00    +0.000 NA
ATOM     19  C   UNL     1       3.544   2.657  20.447  0.00  0.00    +0.000 C 
ATOM     20  C   UNL     1       3.488   1.360  18.439  0.00  0.00    +0.000 C 
ENDBRANCH  17  18
ENDBRANCH   6  17
TORSDOF 5
ENDMDL
MODEL 7
REMARK VINA RESULT:      -6.1      2.756      4.157
REMARK  Name = 
REMARK  8 active torsions:
REMARK  status: ('A' for Active; 'I' for Inactive)
REMARK    1  A    between atoms: C_1  and  O_2
REMARK    2  A    between atoms: O_2  and  C_3
REMARK    3  A    between atoms: C_3  and  C_4
REMARK    4  A    between atoms: C_8  and  O_9
REMARK    5  A    between atoms: C_15  and  C_16
REMARK    6  A    between atoms: C_16  and  N_17
REMARK    7  A    between atoms: N_17  and  C_18
REMARK    8  A    between atoms: N_17  and  C_19
REMARK                            x       y       z     vdW  Elec       q    Type
REMARK                         _______ _______ _______ _____ _____    ______ ____
ROOT
ATOM      1  C   UNL     1       3.859   4.982  17.942  0.00  0.00    +0.000 C 
ATOM      2  C   UNL     1       3.794   4.149  16.625  0.00  0.00    +0.000 C 
ATOM      3  C   UNL     1       4.501   2.799  16.722  0.00  0.00    +0.000 C 
ATOM      4  C   UNL     1       3.932   1.954  17.852  0.00  0.00    +0.000 C 
ATOM      5  C   UNL     1       3.957   2.706  19.180  0.00  0.00    +0.000 C 
ATOM      6  C   UNL     1       3.271   4.097  19.114  0.00  0.00    +0.000 C 
ENDROOT
BRANCH   1   7
ATOM      7  C   UNL     1       5.302   5.516  18.135  0.00  0.00    +0.000 A 
ATOM      8  C   UNL     1       5.866   6.378  17.170  0.00  0.00    +0.000 A 
ATOM      9  C   UNL     1       7.151   6.913  17.319  0.00  0.00    +0.000 A 
ATOM     10  C   UNL     1       7.907   6.605  18.444  0.00  0.00    +0.000 A 
ATOM     11  C   UNL     1       7.359   5.778  19.415  0.00  0.00    +0.000 A 
ATOM     12  C   UNL     1       6.076   5.252  19.277  0.00  0.00    +0.000 A 
BRANCH  11  13
ATOM     13  O   UNL     1       8.050   5.458  20.547  0.00  0.00    +0.000 OA
ATOM     14  H   UNL     1       8.363   4.540  20.468  0.00  0.00    +0.000 HD
ENDBRANCH  11  13
ENDBRANCH   1   7
BRANCH   1  16
ATOM     15  C   UNL     1       3.069   7.191  18.632  0.00  0.00    +0.000 C 
ATOM     16  O   UNL     1       3.009   6.131  17.683  0.00  0.00    +0.000 OA
ENDBRANCH   1  16
BRANCH   6  17
ATOM     17  C   UNL     1       1.717   3.939  19.031  0.00  0.00    +0.000 C 
BRANCH  17  18
ATOM     18  N   UNL     1       0.990   4.113  20.313  0.00  0.00    +0.000 NA
ATOM     19  C   UNL     1       1.161   2.973  21.220  0.00  0.00    +0.000 C 
ATOM     20  C   UNL     1       1.459   5.333  20.982  0.00  0.00    +0.000 C 
ENDBRANCH  17  18
ENDBRANCH   6  17
TORSDOF 5
ENDMDL
MODEL 8
REMARK VINA RESULT:      -6.1      2.588      5.536
REMARK  Name = 
REMARK  8 active torsions:
REMARK  status: ('A' for Active; 'I' for Inactive)
REMARK    1  A    between atoms: C_1  and  O_2
REMARK    2  A    between atoms: O_2  and  C_3
REMARK    3  A    between atoms: C_3  and  C_4
REMARK    4  A    between atoms: C_8  and  O_9
REMARK    5  A    between atoms: C_15  and  C_16
REMARK    6  A    between atoms: C_16  and  N_17
REMARK    7  A    between atoms: N_17  and  C_18
REMARK    8  A    between atoms: N_17  and  C_19
REMARK                            x       y       z     vdW  Elec       q    Type
REMARK                         _______ _______ _______ _____ _____    ______ ____
ROOT
ATOM      1  C   UNL     1       4.866   5.527  17.670  0.00  0.00    +0.000 C 
ATOM      2  C   UNL     1       5.384   4.621  18.830  0.00  0.00    +0.000 C 
ATOM      3  C   UNL     1       4.368   3.579  19.290  0.00  0.00    +0.000 C 
ATOM      4  C   UNL     1       3.932   2.683  18.140  0.00  0.00    +0.000 C 
ATOM      5  C   UNL     1       3.415   3.499  16.959  0.00  0.00    +0.000 C 
ATOM      6  C   UNL     1       4.411   4.589  16.479  0.00  0.00    +0.000 C 
ENDROOT
BRANCH   1   7
ATOM      7  C   UNL     1       3.802   6.506  18.226  0.00  0.00    +0.000 A 
ATOM      8  C   UNL     1       3.392   7.613  17.451  0.00  0.00    +0.000 A 
ATOM      9  C   UNL     1       2.409   8.504  17.897  0.00  0.00    +0.000 A 
ATOM     10  C   UNL     1       1.802   8.308  19.132  0.00  0.00    +0.000 A 
ATOM     11  C   UNL     1       2.174   7.212  19.897  0.00  0.00    +0.000 A 
ATOM     12  C   UNL     1       3.145   6.315  19.453  0.00  0.00    +0.000 A 
BRANCH  11  13
ATOM     13  O   UNL     1       1.597   6.962  21.108  0.00  0.00    +0.000 OA
ATOM     14  H   UNL     1       1.460   7.809  21.565  0.00  0.00    +0.000 HD
ENDBRANCH  11  13
ENDBRANCH   1   7
BRANCH   1  16
ATOM     15  C   UNL     1       7.171   6.205  18.124  0.00  0.00    +0.000 C 
ATOM     16  O   UNL     1       6.022   6.321  17.291  0.00  0.00    +0.000 OA
ENDBRANCH   1  16
BRANCH   6  17
ATOM     17  C   UNL     1       5.617   3.937  15.727  0.00  0.00    +0.000 C 
BRANCH  17  18
ATOM     18  N   UNL     1       5.958   4.549  14.419  0.00  0.00    +0.000 NA
ATOM     19  C   UNL     1       7.344   5.023  14.360  0.00  0.00    +0.000 C 
ATOM     20  C   UNL     1       5.741   3.568  13.347  0.00  0.00    +0.000 C 
ENDBRANCH  17  18
ENDBRANCH   6  17
TORSDOF 5
ENDMDL
MODEL 9
REMARK VINA RESULT:      -6.1      2.515      5.428
REMARK  Name = 
REMARK  8 active torsions:
REMARK  status: ('A' for Active; 'I' for Inactive)
REMARK    1  A    between atoms: C_1  and  O_2
REMARK    2  A    between atoms: O_2  and  C_3
REMARK    3  A    between atoms: C_3  and  C_4
REMARK    4  A    between atoms: C_8  and  O_9
REMARK    5  A    between atoms: C_15  and  C_16
REMARK    6  A    between atoms: C_16  and  N_17
REMARK    7  A    between atoms: N_17  and  C_18
REMARK    8  A    between atoms: N_17  and  C_19
REMARK                            x       y       z     vdW  Elec       q    Type
REMARK                         _______ _______ _______ _____ _____    ______ ____
ROOT
ATOM      1  C   UNL     1       4.755   5.130  18.101  0.00  0.00    +0.000 C 
ATOM      2  C   UNL     1       4.762   4.090  19.264  0.00  0.00    +0.000 C 
ATOM      3  C   UNL     1       3.496   3.240  19.330  0.00  0.00    +0.000 C 
ATOM      4  C   UNL     1       3.257   2.496  18.023  0.00  0.00    +0.000 C 
ATOM      5  C   UNL     1       3.242   3.450  16.832  0.00  0.00    +0.000 C 
ATOM      6  C   UNL     1       4.502   4.352  16.747  0.00  0.00    +0.000 C 
ENDROOT
BRANCH   1   7
ATOM      7  C   UNL     1       3.759   6.267  18.443  0.00  0.00    +0.000 A 
ATOM      8  C   UNL     1       3.477   7.265  17.485  0.00  0.00    +0.000 A 
ATOM      9  C   UNL     1       2.558   8.291  17.736  0.00  0.00    +0.000 A 
ATOM     10  C   UNL     1       1.889   8.343  18.953  0.00  0.00    +0.000 A 
ATOM     11  C   UNL     1       2.135   7.357  19.898  0.00  0.00    +0.000 A 
ATOM     12  C   UNL     1       3.041   6.327  19.649  0.00  0.00    +0.000 A 
BRANCH  11  13
ATOM     13  O   UNL     1       1.493   7.350  21.102  0.00  0.00    +0.000 OA
ATOM     14  H   UNL     1       1.345   8.271  21.378  0.00  0.00    +0.000 HD
ENDBRANCH  11  13
ENDBRANCH   1   7
BRANCH   1  16
ATOM     15  C   UNL     1       6.846   5.498  19.314  0.00  0.00    +0.000 C 
ATOM     16  O   UNL     1       6.088   5.706  18.127  0.00  0.00    +0.000 OA
ENDBRANCH   1  16
BRANCH   6  17
ATOM     17  C   UNL     1       5.743   3.518  16.288  0.00  0.00    +0.000 C 
BRANCH  17  18
ATOM     18  N   UNL     1       6.293   3.874  14.956  0.00  0.00    +0.000 NA
ATOM     19  C   UNL     1       5.249   4.239  13.992  0.00  0.00    +0.000 C 
ATOM     20  C   UNL     1       7.230   4.997  15.096  0.00  0.00    +0.000 C 
ENDBRANCH  17  18
ENDBRANCH   6  17
TORSDOF 5
ENDMDL
