MODEL 1
REMARK VINA RESULT:      -7.4      0.000      0.000
REMARK  Name = 
REMARK  5 active torsions:
REMARK  status: ('A' for Active; 'I' for Inactive)
REMARK    1  A    between atoms: C_2  and  C_3
REMARK    2  A    between atoms: N_6  and  C_7
REMARK    3  A    between atoms: C_11  and  C_12
REMARK    4  A    between atoms: C_12  and  S_13
REMARK    5  A    between atoms: S_13  and  N_14
REMARK                            x       y       z     vdW  Elec       q    Type
REMARK                         _______ _______ _______ _____ _____    ______ ____
ROOT
ATOM      1  C   UNL     1       2.603   4.987  18.235  0.00  0.00    +0.000 A 
ATOM      2  N   UNL     1       2.276   6.257  18.514  0.00  0.00    +0.000 NA
ATOM      3  C   UNL     1       3.009   7.271  17.999  0.00  0.00    +0.000 A 
ATOM      4  N   UNL     1       2.596   8.589  18.224  0.00  0.00    +0.000 N 
ATOM      5  N   UNL     1       4.127   7.117  17.262  0.00  0.00    +0.000 NA
ATOM      6  C   UNL     1       4.408   5.827  17.027  0.00  0.00    +0.000 A 
ATOM      7  N   UNL     1       5.450   5.333  16.297  0.00  0.00    +0.000 N 
ATOM      8  C   UNL     1       5.332   3.970  16.280  0.00  0.00    +0.000 A 
ATOM      9  N   UNL     1       4.289   3.558  16.969  0.00  0.00    +0.000 NA
ATOM     10  C   UNL     1       3.709   4.710  17.453  0.00  0.00    +0.000 A 
ATOM     11  H   UNL     1       3.253   9.265  17.871  0.00  0.00    +0.000 HD
ATOM     12  H   UNL     1       6.163   5.887  15.848  0.00  0.00    +0.000 HD
ENDROOT
BRANCH   4  13
ATOM     13  C   UNL     1       1.455   9.052  18.893  0.00  0.00    +0.000 A 
ATOM     14  C   UNL     1       1.245   8.799  20.252  0.00  0.00    +0.000 A 
ATOM     15  C   UNL     1       0.217   9.423  20.949  0.00  0.00    +0.000 A 
ATOM     16  C   UNL     1      -0.617  10.330  20.295  0.00  0.00    +0.000 A 
ATOM     17  C   UNL     1      -0.470  10.581  18.923  0.00  0.00    +0.000 A 
ATOM     18  C   UNL     1       0.563   9.917  18.232  0.00  0.00    +0.000 A 
BRANCH  17  19
ATOM     19  C   UNL     1      -1.335  11.645  18.284  0.00  0.00    +0.000 C 
BRANCH  19  20
ATOM     20  S   UNL     1      -2.795  10.994  17.461  0.00  0.00    +0.000 S 
ATOM     21  O   UNL     1      -2.781   9.558  17.590  0.00  0.00    +0.000 OA
ATOM     22  O   UNL     1      -3.956  11.769  17.844  0.00  0.00    +0.000 OA
BRANCH  20  23
ATOM     23  N   UNL     1      -2.527  11.325  15.850  0.00  0.00    +0.000 NA
ATOM     24  H   UNL     1      -1.939  10.679  15.331  0.00  0.00    +0.000 HD
ATOM     25  H   UNL     1      -2.495  12.315  15.620  0.00  0.00    +0.000 HD
ENDBRANCH  20  23
ENDBRANCH  19  20
ENDBRANCH  17  19
ENDBRANCH   4  13
BRANCH   1  27
ATOM     26  C   UNL     1       1.022   3.080  19.107  0.00  0.00    +0.000 C 
ATOM     27  C   UNL     1       1.754   3.956  18.717  0.00  0.00    +0.000 C 
ENDBRANCH   1  27
TORSDOF 5
ENDMDL
MODEL 2
REMARK VINA RESULT:      -7.3      4.589      7.968
REMARK  Name = 
REMARK  5 active torsions:
REMARK  status: ('A' for Active; 'I' for Inactive)
REMARK    1  A    between atoms: C_2  and  C_3
REMARK    2  A    between atoms: N_6  and  C_7
REMARK    3  A    between atoms: C_11  and  C_12
REMARK    4  A    between atoms: C_12  and  S_13
REMARK    5  A    between atoms: S_13  and  N_14
REMARK                            x       y       z     vdW  Elec       q    Type
REMARK                         _______ _______ _______ _____ _____    ______ ____
ROOT
ATOM      1  C   UNL     1       0.310   9.917  20.693  0.00  0.00    +0.000 A 
ATOM      2  N   UNL     1       1.024   9.000  20.025  0.00  0.00    +0.000 NA
ATOM      3  C   UNL     1       1.304   9.187  18.714  0.00  0.00    +0.000 A 
ATOM      4  N   UNL     1       2.129   8.266  18.059  0.00  0.00    +0.000 N 
ATOM      5  N   UNL     1       0.851  10.214  17.967  0.00  0.00    +0.000 NA
ATOM      6  C   UNL     1       0.135  11.090  18.688  0.00  0.00    +0.000 A 
ATOM      7  N   UNL     1      -0.439  12.245  18.243  0.00  0.00    +0.000 N 
ATOM      8  C   UNL     1      -1.034  12.851  19.317  0.00  0.00    +0.000 A 
ATOM      9  N   UNL     1      -0.890  12.147  20.419  0.00  0.00    +0.000 NA
ATOM     10  C   UNL     1      -0.172  11.036  20.037  0.00  0.00    +0.000 A 
ATOM     11  H   UNL     1       2.205   8.450  17.072  0.00  0.00    +0.000 HD
ATOM     12  H   UNL     1      -0.411  12.583  17.293  0.00  0.00    +0.000 HD
ENDROOT
BRANCH   4  13
ATOM     13  C   UNL     1       2.787   7.146  18.582  0.00  0.00    +0.000 A 
ATOM     14  C   UNL     1       2.291   6.449  19.688  0.00  0.00    +0.000 A 
ATOM     15  C   UNL     1       2.839   5.232  20.077  0.00  0.00    +0.000 A 
ATOM     16  C   UNL     1       3.895   4.681  19.352  0.00  0.00    +0.000 A 
ATOM     17  C   UNL     1       4.453   5.365  18.262  0.00  0.00    +0.000 A 
ATOM     18  C   UNL     1       3.897   6.610  17.902  0.00  0.00    +0.000 A 
BRANCH  17  19
ATOM     19  C   UNL     1       5.529   4.681  17.450  0.00  0.00    +0.000 C 
BRANCH  19  20
ATOM     20  S   UNL     1       7.160   5.415  17.642  0.00  0.00    +0.000 S 
ATOM     21  O   UNL     1       7.459   6.164  16.447  0.00  0.00    +0.000 OA
ATOM     22  O   UNL     1       7.269   6.020  18.953  0.00  0.00    +0.000 OA
BRANCH  20  23
ATOM     23  N   UNL     1       8.190   4.105  17.648  0.00  0.00    +0.000 NA
ATOM     24  H   UNL     1       8.263   3.564  16.791  0.00  0.00    +0.000 HD
ATOM     25  H   UNL     1       8.263   3.626  18.541  0.00  0.00    +0.000 HD
ENDBRANCH  20  23
ENDBRANCH  19  20
ENDBRANCH  17  19
ENDBRANCH   4  13
BRANCH   1  27
ATOM     26  C   UNL     1      -0.057   9.552  23.267  0.00  0.00    +0.000 C 
ATOM     27  C   UNL     1       0.117   9.730  22.087  0.00  0.00    +0.000 C 
ENDBRANCH   1  27
TORSDOF 5
ENDMDL
MODEL 3
REMARK VINA RESULT:      -7.2      4.539      7.849
REMARK  Name = 
REMARK  5 active torsions:
REMARK  status: ('A' for Active; 'I' for Inactive)
REMARK    1  A    between atoms: C_2  and  C_3
REMARK    2  A    between atoms: N_6  and  C_7
REMARK    3  A    between atoms: C_11  and  C_12
REMARK    4  A    between atoms: C_12  and  S_13
REMARK    5  A    between atoms: S_13  and  N_14
REMARK                            x       y       z     vdW  Elec       q    Type
REMARK                         _______ _______ _______ _____ _____    ______ ____
ROOT
ATOM      1  C   UNL     1       0.632   9.751  20.368  0.00  0.00    +0.000 A 
ATOM      2  N   UNL     1       1.269   8.826  19.635  0.00  0.00    +0.000 NA
ATOM      3  C   UNL     1       1.772   9.156  18.423  0.00  0.00    +0.000 A 
ATOM      4  N   UNL     1       2.514   8.204  17.715  0.00  0.00    +0.000 N 
ATOM      5  N   UNL     1       1.621  10.355  17.826  0.00  0.00    +0.000 NA
ATOM      6  C   UNL     1       0.967  11.232  18.603  0.00  0.00    +0.000 A 
ATOM      7  N   UNL     1       0.674  12.531  18.308  0.00  0.00    +0.000 N 
ATOM      8  C   UNL     1       0.038  13.067  19.395  0.00  0.00    +0.000 A 
ATOM      9  N   UNL     1      -0.110  12.187  20.361  0.00  0.00    +0.000 NA
ATOM     10  C   UNL     1       0.455  11.030  19.873  0.00  0.00    +0.000 A 
ATOM     11  H   UNL     1       2.769   8.521  16.794  0.00  0.00    +0.000 HD
ATOM     12  H   UNL     1       0.903  13.001  17.445  0.00  0.00    +0.000 HD
ENDROOT
BRANCH   4  13
ATOM     13  C   UNL     1       2.883   6.909  18.102  0.00  0.00    +0.000 A 
ATOM     14  C   UNL     1       1.964   5.856  18.120  0.00  0.00    +0.000 A 
ATOM     15  C   UNL     1       2.378   4.543  18.314  0.00  0.00    +0.000 A 
ATOM     16  C   UNL     1       3.733   4.259  18.483  0.00  0.00    +0.000 A 
ATOM     17  C   UNL     1       4.685   5.288  18.515  0.00  0.00    +0.000 A 
ATOM     18  C   UNL     1       4.238   6.614  18.341  0.00  0.00    +0.000 A 
BRANCH  17  19
ATOM     19  C   UNL     1       6.149   4.920  18.601  0.00  0.00    +0.000 C 
BRANCH  19  20
ATOM     20  S   UNL     1       6.983   4.884  17.008  0.00  0.00    +0.000 S 
ATOM     21  O   UNL     1       8.211   4.144  17.160  0.00  0.00    +0.000 OA
ATOM     22  O   UNL     1       6.031   4.551  15.969  0.00  0.00    +0.000 OA
BRANCH  20  23
ATOM     23  N   UNL     1       7.417   6.471  16.748  0.00  0.00    +0.000 NA
ATOM     24  H   UNL     1       7.128   6.897  15.872  0.00  0.00    +0.000 HD
ATOM     25  H   UNL     1       8.308   6.740  17.156  0.00  0.00    +0.000 HD
ENDBRANCH  20  23
ENDBRANCH  19  20
ENDBRANCH  17  19
ENDBRANCH   4  13
BRANCH   1  27
ATOM     26  C   UNL     1      -0.179   9.100  22.780  0.00  0.00    +0.000 C 
ATOM     27  C   UNL     1       0.203   9.391  21.673  0.00  0.00    +0.000 C 
ENDBRANCH   1  27
TORSDOF 5
ENDMDL
MODEL 4
REMARK VINA RESULT:      -7.2      4.692      7.984
REMARK  Name = 
REMARK  5 active torsions:
REMARK  status: ('A' for Active; 'I' for Inactive)
REMARK    1  A    between atoms: C_2  and  C_3
REMARK    2  A    between atoms: N_6  and  C_7
REMARK    3  A    between atoms: C_11  and  C_12
REMARK    4  A    between atoms: C_12  and  S_13
REMARK    5  A    between atoms: S_13  and  N_14
REMARK                            x       y       z     vdW  Elec       q    Type
REMARK                         _______ _______ _______ _____ _____    ______ ____
ROOT
ATOM      1  C   UNL     1       0.454   9.831  20.694  0.00  0.00    +0.000 A 
ATOM      2  N   UNL     1       1.154   8.900  20.028  0.00  0.00    +0.000 NA
ATOM      3  C   UNL     1       1.455   9.090  18.722  0.00  0.00    +0.000 A 
ATOM      4  N   UNL     1       2.266   8.153  18.071  0.00  0.00    +0.000 N 
ATOM      5  N   UNL     1       1.037  10.133  17.978  0.00  0.00    +0.000 NA
ATOM      6  C   UNL     1       0.334  11.021  18.696  0.00  0.00    +0.000 A 
ATOM      7  N   UNL     1      -0.206  12.193  18.251  0.00  0.00    +0.000 N 
ATOM      8  C   UNL     1      -0.799  12.805  19.322  0.00  0.00    +0.000 A 
ATOM      9  N   UNL     1      -0.687  12.091  20.421  0.00  0.00    +0.000 NA
ATOM     10  C   UNL     1       0.008  10.965  20.041  0.00  0.00    +0.000 A 
ATOM     11  H   UNL     1       2.358   8.342  17.086  0.00  0.00    +0.000 HD
ATOM     12  H   UNL     1      -0.158  12.537  17.305  0.00  0.00    +0.000 HD
ENDROOT
BRANCH   4  13
ATOM     13  C   UNL     1       2.890   7.014  18.594  0.00  0.00    +0.000 A 
ATOM     14  C   UNL     1       2.346   6.303  19.668  0.00  0.00    +0.000 A 
ATOM     15  C   UNL     1       2.863   5.071  20.052  0.00  0.00    +0.000 A 
ATOM     16  C   UNL     1       3.935   4.519  19.353  0.00  0.00    +0.000 A 
ATOM     17  C   UNL     1       4.541   5.215  18.296  0.00  0.00    +0.000 A 
ATOM     18  C   UNL     1       4.014   6.474  17.942  0.00  0.00    +0.000 A 
BRANCH  17  19
ATOM     19  C   UNL     1       5.635   4.531  17.508  0.00  0.00    +0.000 C 
BRANCH  19  20
ATOM     20  S   UNL     1       7.294   5.041  17.977  0.00  0.00    +0.000 S 
ATOM     21  O   UNL     1       7.293   5.328  19.390  0.00  0.00    +0.000 OA
ATOM     22  O   UNL     1       8.263   4.135  17.397  0.00  0.00    +0.000 OA
BRANCH  20  23
ATOM     23  N   UNL     1       7.499   6.500  17.199  0.00  0.00    +0.000 NA
ATOM     24  H   UNL     1       7.493   6.492  16.183  0.00  0.00    +0.000 HD
ATOM     25  H   UNL     1       8.103   7.158  17.683  0.00  0.00    +0.000 HD
ENDBRANCH  20  23
ENDBRANCH  19  20
ENDBRANCH  17  19
ENDBRANCH   4  13
BRANCH   1  27
ATOM     26  C   UNL     1       0.036   9.472  23.262  0.00  0.00    +0.000 C 
ATOM     27  C   UNL     1       0.240   9.639  22.084  0.00  0.00    +0.000 C 
ENDBRANCH   1  27
TORSDOF 5
ENDMDL
MODEL 5
REMARK VINA RESULT:      -7.2      4.540      7.891
REMARK  Name = 
REMARK  5 active torsions:
REMARK  status: ('A' for Active; 'I' for Inactive)
REMARK    1  A    between atoms: C_2  and  C_3
REMARK    2  A    between atoms: N_6  and  C_7
REMARK    3  A    between atoms: C_11  and  C_12
REMARK    4  A    between atoms: C_12  and  S_13
REMARK    5  A    between atoms: S_13  and  N_14
REMARK                            x       y       z     vdW  Elec       q    Type
REMARK                         _______ _______ _______ _____ _____    ______ ____
ROOT
ATOM      1  C   UNL     1       0.823   9.763  20.435  0.00  0.00    +0.000 A 
ATOM      2  N   UNL     1       1.385   8.802  19.687  0.00  0.00    +0.000 NA
ATOM      3  C   UNL     1       1.806   9.086  18.432  0.00  0.00    +0.000 A 
ATOM      4  N   UNL     1       2.474   8.097  17.702  0.00  0.00    +0.000 N 
ATOM      5  N   UNL     1       1.639  10.270  17.811  0.00  0.00    +0.000 NA
ATOM      6  C   UNL     1       1.062  11.184  18.606  0.00  0.00    +0.000 A 
ATOM      7  N   UNL     1       0.778  12.482  18.294  0.00  0.00    +0.000 N 
ATOM      8  C   UNL     1       0.234  13.064  19.407  0.00  0.00    +0.000 A 
ATOM      9  N   UNL     1       0.137  12.215  20.407  0.00  0.00    +0.000 NA
ATOM     10  C   UNL     1       0.639  11.031  19.916  0.00  0.00    +0.000 A 
ATOM     11  H   UNL     1       2.668   8.380  16.755  0.00  0.00    +0.000 HD
ATOM     12  H   UNL     1       0.953  12.920  17.403  0.00  0.00    +0.000 HD
ENDROOT
BRANCH   4  13
ATOM     13  C   UNL     1       2.841   6.804  18.100  0.00  0.00    +0.000 A 
ATOM     14  C   UNL     1       1.926   5.748  18.109  0.00  0.00    +0.000 A 
ATOM     15  C   UNL     1       2.341   4.438  18.316  0.00  0.00    +0.000 A 
ATOM     16  C   UNL     1       3.694   4.159  18.507  0.00  0.00    +0.000 A 
ATOM     17  C   UNL     1       4.643   5.192  18.549  0.00  0.00    +0.000 A 
ATOM     18  C   UNL     1       4.194   6.515  18.362  0.00  0.00    +0.000 A 
BRANCH  17  19
ATOM     19  C   UNL     1       6.106   4.829  18.660  0.00  0.00    +0.000 C 
BRANCH  19  20
ATOM     20  S   UNL     1       6.960   4.771  17.078  0.00  0.00    +0.000 S 
ATOM     21  O   UNL     1       6.822   6.059  16.446  0.00  0.00    +0.000 OA
ATOM     22  O   UNL     1       8.260   4.156  17.250  0.00  0.00    +0.000 OA
BRANCH  20  23
ATOM     23  N   UNL     1       6.057   3.702  16.174  0.00  0.00    +0.000 NA
ATOM     24  H   UNL     1       6.200   3.704  15.168  0.00  0.00    +0.000 HD
ATOM     25  H   UNL     1       5.127   3.517  16.540  0.00  0.00    +0.000 HD
ENDBRANCH  20  23
ENDBRANCH  19  20
ENDBRANCH  17  19
ENDBRANCH   4  13
BRANCH   1  27
ATOM     26  C   UNL     1       0.183   9.207  22.921  0.00  0.00    +0.000 C 
ATOM     27  C   UNL     1       0.482   9.451  21.778  0.00  0.00    +0.000 C 
ENDBRANCH   1  27
TORSDOF 5
ENDMDL
MODEL 6
REMARK VINA RESULT:      -7.1      1.504      1.802
REMARK  Name = 
REMARK  5 active torsions:
REMARK  status: ('A' for Active; 'I' for Inactive)
REMARK    1  A    between atoms: C_2  and  C_3
REMARK    2  A    between atoms: N_6  and  C_7
REMARK    3  A    between atoms: C_11  and  C_12
REMARK    4  A    between atoms: C_12  and  S_13
REMARK    5  A    between atoms: S_13  and  N_14
REMARK                            x       y       z     vdW  Elec       q    Type
REMARK                         _______ _______ _______ _____ _____    ______ ____
ROOT
ATOM      1  C   UNL     1       4.190   4.520  17.235  0.00  0.00    +0.000 A 
ATOM      2  N   UNL     1       3.706   5.700  17.651  0.00  0.00    +0.000 NA
ATOM      3  C   UNL     1       4.109   6.843  17.048  0.00  0.00    +0.000 A 
ATOM      4  N   UNL     1       3.522   8.054  17.431  0.00  0.00    +0.000 N 
ATOM      5  N   UNL     1       5.044   6.917  16.080  0.00  0.00    +0.000 NA
ATOM      6  C   UNL     1       5.496   5.707  15.716  0.00  0.00    +0.000 A 
ATOM      7  N   UNL     1       6.422   5.432  14.752  0.00  0.00    +0.000 N 
ATOM      8  C   UNL     1       6.554   4.072  14.683  0.00  0.00    +0.000 A 
ATOM      9  N   UNL     1       5.783   3.459  15.556  0.00  0.00    +0.000 NA
ATOM     10  C   UNL     1       5.126   4.471  16.218  0.00  0.00    +0.000 A 
ATOM     11  H   UNL     1       3.950   8.849  16.984  0.00  0.00    +0.000 HD
ATOM     12  H   UNL     1       6.903   6.119  14.192  0.00  0.00    +0.000 HD
ENDROOT
BRANCH   4  13
ATOM     13  C   UNL     1       2.495   8.281  18.356  0.00  0.00    +0.000 A 
ATOM     14  C   UNL     1       2.327   7.473  19.485  0.00  0.00    +0.000 A 
ATOM     15  C   UNL     1       1.435   7.821  20.492  0.00  0.00    +0.000 A 
ATOM     16  C   UNL     1       0.697   9.000  20.392  0.00  0.00    +0.000 A 
ATOM     17  C   UNL     1       0.800   9.819  19.258  0.00  0.00    +0.000 A 
ATOM     18  C   UNL     1       1.694   9.433  18.238  0.00  0.00    +0.000 A 
BRANCH  17  19
ATOM     19  C   UNL     1       0.055  11.134  19.242  0.00  0.00    +0.000 C 
BRANCH  19  20
ATOM     20  S   UNL     1      -1.458  11.099  18.271  0.00  0.00    +0.000 S 
ATOM     21  O   UNL     1      -1.454   9.895  17.477  0.00  0.00    +0.000 OA
ATOM     22  O   UNL     1      -2.586  11.436  19.114  0.00  0.00    +0.000 OA
BRANCH  20  23
ATOM     23  N   UNL     1      -1.280  12.368  17.206  0.00  0.00    +0.000 NA
ATOM     24  H   UNL     1      -1.689  12.263  16.282  0.00  0.00    +0.000 HD
ATOM     25  H   UNL     1      -0.411  12.886  17.304  0.00  0.00    +0.000 HD
ENDBRANCH  20  23
ENDBRANCH  19  20
ENDBRANCH  17  19
ENDBRANCH   4  13
BRANCH   1  27
ATOM     26  C   UNL     1       3.222   2.348  18.350  0.00  0.00    +0.000 C 
ATOM     27  C   UNL     1       3.673   3.339  17.830  0.00  0.00    +0.000 C 
ENDBRANCH   1  27
TORSDOF 5
ENDMDL
MODEL 7
REMARK VINA RESULT:      -7.0      4.522      8.068
REMARK  Name = 
REMARK  5 active torsions:
REMARK  status: ('A' for Active; 'I' for Inactive)
REMARK    1  A    between atoms: C_2  and  C_3
REMARK    2  A    between atoms: N_6  and  C_7
REMARK    3  A    between atoms: C_11  and  C_12
REMARK    4  A    between atoms: C_12  and  S_13
REMARK    5  A    between atoms: S_13  and  N_14
REMARK                            x       y       z     vdW  Elec       q    Type
REMARK                         _______ _______ _______ _____ _____    ______ ____
ROOT
ATOM      1  C   UNL     1       0.089   9.953  19.996  0.00  0.00    +0.000 A 
ATOM      2  N   UNL     1       0.971   8.968  19.773  0.00  0.00    +0.000 NA
ATOM      3  C   UNL     1       1.404   8.205  20.804  0.00  0.00    +0.000 A 
ATOM      4  N   UNL     1       2.250   7.122  20.537  0.00  0.00    +0.000 N 
ATOM      5  N   UNL     1       1.077   8.397  22.097  0.00  0.00    +0.000 NA
ATOM      6  C   UNL     1       0.202   9.403  22.256  0.00  0.00    +0.000 A 
ATOM      7  N   UNL     1      -0.347   9.835  23.428  0.00  0.00    +0.000 N 
ATOM      8  C   UNL     1      -1.214  10.850  23.126  0.00  0.00    +0.000 A 
ATOM      9  N   UNL     1      -1.242  11.105  21.836  0.00  0.00    +0.000 NA
ATOM     10  C   UNL     1      -0.350  10.216  21.281  0.00  0.00    +0.000 A 
ATOM     11  H   UNL     1       2.580   6.674  21.376  0.00  0.00    +0.000 HD
ATOM     12  H   UNL     1      -0.147   9.458  24.341  0.00  0.00    +0.000 HD
ENDROOT
BRANCH   4  13
ATOM     13  C   UNL     1       2.707   6.646  19.301  0.00  0.00    +0.000 A 
ATOM     14  C   UNL     1       3.417   7.461  18.414  0.00  0.00    +0.000 A 
ATOM     15  C   UNL     1       4.032   6.931  17.286  0.00  0.00    +0.000 A 
ATOM     16  C   UNL     1       3.959   5.562  17.032  0.00  0.00    +0.000 A 
ATOM     17  C   UNL     1       3.222   4.713  17.871  0.00  0.00    +0.000 A 
ATOM     18  C   UNL     1       2.585   5.278  18.995  0.00  0.00    +0.000 A 
BRANCH  17  19
ATOM     19  C   UNL     1       3.255   3.224  17.607  0.00  0.00    +0.000 C 
BRANCH  19  20
ATOM     20  S   UNL     1       3.661   2.240  19.056  0.00  0.00    +0.000 S 
ATOM     21  O   UNL     1       4.871   2.771  19.635  0.00  0.00    +0.000 OA
ATOM     22  O   UNL     1       2.472   2.041  19.858  0.00  0.00    +0.000 OA
BRANCH  20  23
ATOM     23  N   UNL     1       4.053   0.747  18.429  0.00  0.00    +0.000 NA
ATOM     24  H   UNL     1       4.467   0.069  19.062  0.00  0.00    +0.000 HD
ATOM     25  H   UNL     1       4.350   0.759  17.457  0.00  0.00    +0.000 HD
ENDBRANCH  20  23
ENDBRANCH  19  20
ENDBRANCH  17  19
ENDBRANCH   4  13
BRANCH   1  27
ATOM     26  C   UNL     1      -0.817  11.274  17.915  0.00  0.00    +0.000 C 
ATOM     27  C   UNL     1      -0.412  10.669  18.877  0.00  0.00    +0.000 C 
ENDBRANCH   1  27
TORSDOF 5
ENDMDL
MODEL 8
REMARK VINA RESULT:      -7.0      3.810      7.697
REMARK  Name = 
REMARK  5 active torsions:
REMARK  status: ('A' for Active; 'I' for Inactive)
REMARK    1  A    between atoms: C_2  and  C_3
REMARK    2  A    between atoms: N_6  and  C_7
REMARK    3  A    between atoms: C_11  and  C_12
REMARK    4  A    between atoms: C_12  and  S_13
REMARK    5  A    between atoms: S_13  and  N_14
REMARK                            x       y       z     vdW  Elec       q    Type
REMARK                         _______ _______ _______ _____ _____    ______ ____
ROOT
ATOM      1  C   UNL     1      -1.328  10.325  18.079  0.00  0.00    +0.000 A 
ATOM      2  N   UNL     1      -0.200   9.645  18.334  0.00  0.00    +0.000 NA
ATOM      3  C   UNL     1       0.421   9.794  19.527  0.00  0.00    +0.000 A 
ATOM      4  N   UNL     1       1.543   9.007  19.810  0.00  0.00    +0.000 N 
ATOM      5  N   UNL     1       0.039  10.651  20.494  0.00  0.00    +0.000 NA
ATOM      6  C   UNL     1      -1.087  11.308  20.176  0.00  0.00    +0.000 A 
ATOM      7  N   UNL     1      -1.748  12.223  20.943  0.00  0.00    +0.000 N 
ATOM      8  C   UNL     1      -2.865  12.608  20.252  0.00  0.00    +0.000 A 
ATOM      9  N   UNL     1      -2.951  12.010  19.083  0.00  0.00    +0.000 NA
ATOM     10  C   UNL     1      -1.837  11.204  19.017  0.00  0.00    +0.000 A 
ATOM     11  H   UNL     1       1.978   9.254  20.684  0.00  0.00    +0.000 HD
ATOM     12  H   UNL     1      -1.460  12.538  21.856  0.00  0.00    +0.000 HD
ENDROOT
BRANCH   4  13
ATOM     13  C   UNL     1       2.130   7.999  19.034  0.00  0.00    +0.000 A 
ATOM     14  C   UNL     1       2.914   8.294  17.915  0.00  0.00    +0.000 A 
ATOM     15  C   UNL     1       3.649   7.305  17.270  0.00  0.00    +0.000 A 
ATOM     16  C   UNL     1       3.621   5.995  17.747  0.00  0.00    +0.000 A 
ATOM     17  C   UNL     1       2.815   5.645  18.840  0.00  0.00    +0.000 A 
ATOM     18  C   UNL     1       2.059   6.660  19.462  0.00  0.00    +0.000 A 
BRANCH  17  19
ATOM     19  C   UNL     1       2.895   4.234  19.379  0.00  0.00    +0.000 C 
BRANCH  19  20
ATOM     20  S   UNL     1       1.586   3.155  18.784  0.00  0.00    +0.000 S 
ATOM     21  O   UNL     1       0.688   2.891  19.881  0.00  0.00    +0.000 OA
ATOM     22  O   UNL     1       1.092   3.644  17.513  0.00  0.00    +0.000 OA
BRANCH  20  23
ATOM     23  N   UNL     1       2.367   1.720  18.457  0.00  0.00    +0.000 NA
ATOM     24  H   UNL     1       2.841   1.639  17.562  0.00  0.00    +0.000 HD
ATOM     25  H   UNL     1       1.927   0.896  18.858  0.00  0.00    +0.000 HD
ENDBRANCH  20  23
ENDBRANCH  19  20
ENDBRANCH  17  19
ENDBRANCH   4  13
BRANCH   1  27
ATOM     26  C   UNL     1      -2.551   9.845  15.805  0.00  0.00    +0.000 C 
ATOM     27  C   UNL     1      -1.999  10.070  16.854  0.00  0.00    +0.000 C 
ENDBRANCH   1  27
TORSDOF 5
ENDMDL
MODEL 9
REMARK VINA RESULT:      -7.0      2.683      3.318
REMARK  Name = 
REMARK  5 active torsions:
REMARK  status: ('A' for Active; 'I' for Inactive)
REMARK    1  A    between atoms: C_2  and  C_3
REMARK    2  A    between atoms: N_6  and  C_7
REMARK    3  A    between atoms: C_11  and  C_12
REMARK    4  A    between atoms: C_12  and  S_13
REMARK    5  A    between atoms: S_13  and  N_14
REMARK                            x       y       z     vdW  Elec       q    Type
REMARK                         _______ _______ _______ _____ _____    ______ ____
ROOT
ATOM      1  C   UNL     1       2.687   5.741  19.099  0.00  0.00    +0.000 A 
ATOM      2  N   UNL     1       2.241   6.987  18.885  0.00  0.00    +0.000 NA
ATOM      3  C   UNL     1       2.846   7.770  17.962  0.00  0.00    +0.000 A 
ATOM      4  N   UNL     1       2.307   9.032  17.686  0.00  0.00    +0.000 N 
ATOM      5  N   UNL     1       3.945   7.428  17.261  0.00  0.00    +0.000 NA
ATOM      6  C   UNL     1       4.349   6.177  17.527  0.00  0.00    +0.000 A 
ATOM      7  N   UNL     1       5.408   5.520  16.971  0.00  0.00    +0.000 N 
ATOM      8  C   UNL     1       5.431   4.256  17.496  0.00  0.00    +0.000 A 
ATOM      9  N   UNL     1       4.462   4.068  18.367  0.00  0.00    +0.000 NA
ATOM     10  C   UNL     1       3.786   5.267  18.406  0.00  0.00    +0.000 A 
ATOM     11  H   UNL     1       2.878   9.564  17.049  0.00  0.00    +0.000 HD
ATOM     12  H   UNL     1       6.042   5.906  16.289  0.00  0.00    +0.000 HD
ENDROOT
BRANCH   4  13
ATOM     13  C   UNL     1       1.151   9.629  18.206  0.00  0.00    +0.000 A 
ATOM     14  C   UNL     1      -0.042   9.680  17.479  0.00  0.00    +0.000 A 
ATOM     15  C   UNL     1      -1.228  10.095  18.073  0.00  0.00    +0.000 A 
ATOM     16  C   UNL     1      -1.243  10.457  19.419  0.00  0.00    +0.000 A 
ATOM     17  C   UNL     1      -0.062  10.462  20.176  0.00  0.00    +0.000 A 
ATOM     18  C   UNL     1       1.133  10.061  19.545  0.00  0.00    +0.000 A 
BRANCH  17  19
ATOM     19  C   UNL     1      -0.149  10.766  21.654  0.00  0.00    +0.000 C 
BRANCH  19  20
ATOM     20  S   UNL     1       0.114   9.332  22.706  0.00  0.00    +0.000 S 
ATOM     21  O   UNL     1       0.202   9.786  24.072  0.00  0.00    +0.000 OA
ATOM     22  O   UNL     1      -0.801   8.275  22.326  0.00  0.00    +0.000 OA
BRANCH  20  23
ATOM     23  N   UNL     1       1.636   8.800  22.286  0.00  0.00    +0.000 NA
ATOM     24  H   UNL     1       1.960   7.933  22.705  0.00  0.00    +0.000 HD
ATOM     25  H   UNL     1       2.308   9.540  22.102  0.00  0.00    +0.000 HD
ENDBRANCH  20  23
ENDBRANCH  19  20
ENDBRANCH  17  19
ENDBRANCH   4  13
BRANCH   1  27
ATOM     26  C   UNL     1       1.338   4.235  20.776  0.00  0.00    +0.000 C 
ATOM     27  C   UNL     1       1.968   4.920  20.008  0.00  0.00    +0.000 C 
ENDBRANCH   1  27
TORSDOF 5
ENDMDL
