MODEL 1
REMARK VINA RESULT:      -6.1      0.000      0.000
REMARK  Name = 
REMARK  15 active torsions:
REMARK  status: ('A' for Active; 'I' for Inactive)
REMARK    1  A    between atoms: C_2  and  C_3
REMARK    2  A    between atoms: C_6  and  O_7
REMARK    3  A    between atoms: O_7  and  C_8
REMARK    4  A    between atoms: C_8  and  C_9
REMARK    5  A    between atoms: C_9  and  C_10
REMARK    6  A    between atoms: C_10  and  C_11
REMARK    7  A    between atoms: C_11  and  C_12
REMARK    8  A    between atoms: C_12  and  C_13
REMARK    9  A    between atoms: C_13  and  C_14
REMARK   10  A    between atoms: C_14  and  C_15
REMARK   11  A    between atoms: C_15  and  C_16
REMARK   12  A    between atoms: C_16  and  C_17
REMARK   13  A    between atoms: C_17  and  O_18
REMARK   14  A    between atoms: O_18  and  C_19
REMARK   15  A    between atoms: C_22  and  C_23
REMARK                            x       y       z     vdW  Elec       q    Type
REMARK                         _______ _______ _______ _____ _____    ______ ____
ROOT
ATOM      1  C   UNL     1       5.792   6.634  17.121  0.00  0.00    +0.000 C 
ENDROOT
BRANCH   1   2
ATOM      2  C   UNL     1       5.308   6.719  15.681  0.00  0.00    +0.000 C 
BRANCH   2   3
ATOM      3  C   UNL     1       5.493   5.397  14.935  0.00  0.00    +0.000 C 
BRANCH   3   4
ATOM      4  C   UNL     1       6.201   4.341  15.787  0.00  0.00    +0.000 C 
BRANCH   4   5
ATOM      5  C   UNL     1       5.239   3.273  16.299  0.00  0.00    +0.000 C 
BRANCH   5   6
ATOM      6  O   UNL     1       3.917   3.805  16.357  0.00  0.00    +0.000 OA
BRANCH   6  10
ATOM      7  C   UNL     1       2.116   2.999  20.022  0.00  0.00    +0.000 A 
ATOM      8  C   UNL     1       3.486   2.808  19.820  0.00  0.00    +0.000 A 
ATOM      9  C   UNL     1       4.051   3.100  18.577  0.00  0.00    +0.000 A 
ATOM     10  C   UNL     1       3.254   3.561  17.530  0.00  0.00    +0.000 A 
ATOM     11  C   UNL     1       1.884   3.765  17.744  0.00  0.00    +0.000 A 
ATOM     12  C   UNL     1       1.313   3.481  18.986  0.00  0.00    +0.000 A 
BRANCH   7  14
ATOM     13  O   UNL     1       1.982   3.070  22.380  0.00  0.00    +0.000 OA
ATOM     14  C   UNL     1       1.499   2.689  21.325  0.00  0.00    +0.000 C 
ENDBRANCH   7  14
ENDBRANCH   6  10
ENDBRANCH   5   6
ENDBRANCH   4   5
ENDBRANCH   3   4
ENDBRANCH   2   3
ENDBRANCH   1   2
BRANCH   1  15
ATOM     15  C   UNL     1       4.605   6.736  18.080  0.00  0.00    +0.000 C 
BRANCH  15  16
ATOM     16  C   UNL     1       3.503   7.585  17.465  0.00  0.00    +0.000 C 
BRANCH  16  17
ATOM     17  C   UNL     1       2.270   7.662  18.367  0.00  0.00    +0.000 C 
BRANCH  17  18
ATOM     18  C   UNL     1       2.450   6.882  19.670  0.00  0.00    +0.000 C 
BRANCH  18  19
ATOM     19  C   UNL     1       1.344   7.184  20.677  0.00  0.00    +0.000 C 
BRANCH  19  20
ATOM     20  O   UNL     1       1.730   8.284  21.497  0.00  0.00    +0.000 OA
BRANCH  20  21
ATOM     21  C   UNL     1       0.777   9.260  21.631  0.00  0.00    +0.000 A 
ATOM     22  C   UNL     1       0.249   9.394  22.916  0.00  0.00    +0.000 A 
ATOM     23  C   UNL     1      -0.733  10.350  23.181  0.00  0.00    +0.000 A 
ATOM     24  C   UNL     1      -1.176  11.188  22.157  0.00  0.00    +0.000 A 
ATOM     25  C   UNL     1      -0.639  11.078  20.873  0.00  0.00    +0.000 A 
ATOM     26  C   UNL     1       0.339  10.113  20.614  0.00  0.00    +0.000 A 
BRANCH  24  27
ATOM     27  C   UNL     1      -2.210  12.208  22.416  0.00  0.00    +0.000 C 
ATOM     28  O   UNL     1      -2.486  13.075  21.596  0.00  0.00    +0.000 OA
ENDBRANCH  24  27
ENDBRANCH  20  21
ENDBRANCH  19  20
ENDBRANCH  18  19
ENDBRANCH  17  18
ENDBRANCH  16  17
ENDBRANCH  15  16
ENDBRANCH   1  15
TORSDOF 15
ENDMDL
MODEL 2
REMARK VINA RESULT:      -6.0      2.721      8.654
REMARK  Name = 
REMARK  15 active torsions:
REMARK  status: ('A' for Active; 'I' for Inactive)
REMARK    1  A    between atoms: C_2  and  C_3
REMARK    2  A    between atoms: C_6  and  O_7
REMARK    3  A    between atoms: O_7  and  C_8
REMARK    4  A    between atoms: C_8  and  C_9
REMARK    5  A    between atoms: C_9  and  C_10
REMARK    6  A    between atoms: C_10  and  C_11
REMARK    7  A    between atoms: C_11  and  C_12
REMARK    8  A    between atoms: C_12  and  C_13
REMARK    9  A    between atoms: C_13  and  C_14
REMARK   10  A    between atoms: C_14  and  C_15
REMARK   11  A    between atoms: C_15  and  C_16
REMARK   12  A    between atoms: C_16  and  C_17
REMARK   13  A    between atoms: C_17  and  O_18
REMARK   14  A    between atoms: O_18  and  C_19
REMARK   15  A    between atoms: C_22  and  C_23
REMARK                            x       y       z     vdW  Elec       q    Type
REMARK                         _______ _______ _______ _____ _____    ______ ____
ROOT
ATOM      1  C   UNL     1       1.997   5.691  20.072  0.00  0.00    +0.000 C 
ENDROOT
BRANCH   1   2
ATOM      2  C   UNL     1       1.055   6.773  20.578  0.00  0.00    +0.000 C 
BRANCH   2   3
ATOM      3  C   UNL     1       1.757   8.125  20.719  0.00  0.00    +0.000 C 
BRANCH   3   4
ATOM      4  C   UNL     1       1.176   8.966  21.859  0.00  0.00    +0.000 C 
BRANCH   4   5
ATOM      5  C   UNL     1      -0.160   9.601  21.483  0.00  0.00    +0.000 C 
BRANCH   5   6
ATOM      6  O   UNL     1       0.060  10.687  20.585  0.00  0.00    +0.000 OA
BRANCH   6  10
ATOM      7  C   UNL     1      -2.705  11.019  17.491  0.00  0.00    +0.000 A 
ATOM      8  C   UNL     1      -2.805  11.795  18.650  0.00  0.00    +0.000 A 
ATOM      9  C   UNL     1      -1.850  11.658  19.660  0.00  0.00    +0.000 A 
ATOM     10  C   UNL     1      -0.810  10.738  19.528  0.00  0.00    +0.000 A 
ATOM     11  C   UNL     1      -0.708   9.975  18.357  0.00  0.00    +0.000 A 
ATOM     12  C   UNL     1      -1.655  10.111  17.341  0.00  0.00    +0.000 A 
BRANCH   7  14
ATOM     13  O   UNL     1      -3.739  10.380  15.464  0.00  0.00    +0.000 OA
ATOM     14  C   UNL     1      -3.708  11.144  16.417  0.00  0.00    +0.000 C 
ENDBRANCH   7  14
ENDBRANCH   6  10
ENDBRANCH   5   6
ENDBRANCH   4   5
ENDBRANCH   3   4
ENDBRANCH   2   3
ENDBRANCH   1   2
BRANCH   1  15
ATOM     15  C   UNL     1       2.250   4.658  21.171  0.00  0.00    +0.000 C 
BRANCH  15  16
ATOM     16  C   UNL     1       1.478   3.380  20.880  0.00  0.00    +0.000 C 
BRANCH  16  17
ATOM     17  C   UNL     1       1.307   3.145  19.378  0.00  0.00    +0.000 C 
BRANCH  17  18
ATOM     18  C   UNL     1       2.062   1.907  18.891  0.00  0.00    +0.000 C 
BRANCH  18  19
ATOM     19  C   UNL     1       3.286   2.272  18.056  0.00  0.00    +0.000 C 
BRANCH  19  20
ATOM     20  O   UNL     1       3.148   3.600  17.559  0.00  0.00    +0.000 OA
BRANCH  20  21
ATOM     21  C   UNL     1       4.278   4.369  17.655  0.00  0.00    +0.000 A 
ATOM     22  C   UNL     1       4.421   5.332  16.656  0.00  0.00    +0.000 A 
ATOM     23  C   UNL     1       5.535   6.175  16.640  0.00  0.00    +0.000 A 
ATOM     24  C   UNL     1       6.500   6.063  17.642  0.00  0.00    +0.000 A 
ATOM     25  C   UNL     1       6.356   5.118  18.659  0.00  0.00    +0.000 A 
ATOM     26  C   UNL     1       5.242   4.273  18.663  0.00  0.00    +0.000 A 
BRANCH  24  27
ATOM     27  C   UNL     1       7.682   6.946  17.647  0.00  0.00    +0.000 C 
ATOM     28  O   UNL     1       8.236   7.284  18.686  0.00  0.00    +0.000 OA
ENDBRANCH  24  27
ENDBRANCH  20  21
ENDBRANCH  19  20
ENDBRANCH  18  19
ENDBRANCH  17  18
ENDBRANCH  16  17
ENDBRANCH  15  16
ENDBRANCH   1  15
TORSDOF 15
ENDMDL
MODEL 3
REMARK VINA RESULT:      -6.0      3.296      9.457
REMARK  Name = 
REMARK  15 active torsions:
REMARK  status: ('A' for Active; 'I' for Inactive)
REMARK    1  A    between atoms: C_2  and  C_3
REMARK    2  A    between atoms: C_6  and  O_7
REMARK    3  A    between atoms: O_7  and  C_8
REMARK    4  A    between atoms: C_8  and  C_9
REMARK    5  A    between atoms: C_9  and  C_10
REMARK    6  A    between atoms: C_10  and  C_11
REMARK    7  A    between atoms: C_11  and  C_12
REMARK    8  A    between atoms: C_12  and  C_13
REMARK    9  A    between atoms: C_13  and  C_14
REMARK   10  A    between atoms: C_14  and  C_15
REMARK   11  A    between atoms: C_15  and  C_16
REMARK   12  A    between atoms: C_16  and  C_17
REMARK   13  A    between atoms: C_17  and  O_18
REMARK   14  A    between atoms: O_18  and  C_19
REMARK   15  A    between atoms: C_22  and  C_23
REMARK                            x       y       z     vdW  Elec       q    Type
REMARK                         _______ _______ _______ _____ _____    ______ ____
ROOT
ATOM      1  C   UNL     1       2.916   6.999  18.534  0.00  0.00    +0.000 C 
ENDROOT
BRANCH   1   2
ATOM      2  C   UNL     1       2.223   8.161  17.836  0.00  0.00    +0.000 C 
BRANCH   2   3
ATOM      3  C   UNL     1       1.573   9.123  18.831  0.00  0.00    +0.000 C 
BRANCH   3   4
ATOM      4  C   UNL     1       0.545  10.043  18.166  0.00  0.00    +0.000 C 
BRANCH   4   5
ATOM      5  C   UNL     1      -0.102  11.000  19.163  0.00  0.00    +0.000 C 
BRANCH   5   6
ATOM      6  O   UNL     1       0.909  11.678  19.904  0.00  0.00    +0.000 OA
BRANCH   6  10
ATOM      7  C   UNL     1       1.745  15.608  18.813  0.00  0.00    +0.000 A 
ATOM      8  C   UNL     1       2.762  14.705  19.139  0.00  0.00    +0.000 A 
ATOM      9  C   UNL     1       2.438  13.393  19.491  0.00  0.00    +0.000 A 
ATOM     10  C   UNL     1       1.105  12.984  19.539  0.00  0.00    +0.000 A 
ATOM     11  C   UNL     1       0.092  13.890  19.196  0.00  0.00    +0.000 A 
ATOM     12  C   UNL     1       0.410  15.202  18.838  0.00  0.00    +0.000 A 
BRANCH   7  14
ATOM     13  O   UNL     1       2.658  17.280  17.416  0.00  0.00    +0.000 OA
ATOM     14  C   UNL     1       2.068  16.999  18.447  0.00  0.00    +0.000 C 
ENDBRANCH   7  14
ENDBRANCH   6  10
ENDBRANCH   5   6
ENDBRANCH   4   5
ENDBRANCH   3   4
ENDBRANCH   2   3
ENDBRANCH   1   2
BRANCH   1  15
ATOM     15  C   UNL     1       1.956   5.816  18.662  0.00  0.00    +0.000 C 
BRANCH  15  16
ATOM     16  C   UNL     1       1.991   5.261  20.079  0.00  0.00    +0.000 C 
BRANCH  16  17
ATOM     17  C   UNL     1       0.948   4.162  20.288  0.00  0.00    +0.000 C 
BRANCH  17  18
ATOM     18  C   UNL     1       1.582   2.785  20.494  0.00  0.00    +0.000 C 
BRANCH  18  19
ATOM     19  C   UNL     1       1.980   2.133  19.173  0.00  0.00    +0.000 C 
BRANCH  19  20
ATOM     20  O   UNL     1       3.382   1.881  19.166  0.00  0.00    +0.000 OA
BRANCH  20  21
ATOM     21  C   UNL     1       4.141   2.880  18.615  0.00  0.00    +0.000 A 
ATOM     22  C   UNL     1       3.940   3.087  17.250  0.00  0.00    +0.000 A 
ATOM     23  C   UNL     1       4.659   4.074  16.571  0.00  0.00    +0.000 A 
ATOM     24  C   UNL     1       5.570   4.868  17.268  0.00  0.00    +0.000 A 
ATOM     25  C   UNL     1       5.763   4.684  18.638  0.00  0.00    +0.000 A 
ATOM     26  C   UNL     1       5.046   3.689  19.309  0.00  0.00    +0.000 A 
BRANCH  24  27
ATOM     27  C   UNL     1       6.336   5.918  16.571  0.00  0.00    +0.000 C 
ATOM     28  O   UNL     1       7.260   5.653  15.812  0.00  0.00    +0.000 OA
ENDBRANCH  24  27
ENDBRANCH  20  21
ENDBRANCH  19  20
ENDBRANCH  18  19
ENDBRANCH  17  18
ENDBRANCH  16  17
ENDBRANCH  15  16
ENDBRANCH   1  15
TORSDOF 15
ENDMDL
MODEL 4
REMARK VINA RESULT:      -5.9      3.377      9.145
REMARK  Name = 
REMARK  15 active torsions:
REMARK  status: ('A' for Active; 'I' for Inactive)
REMARK    1  A    between atoms: C_2  and  C_3
REMARK    2  A    between atoms: C_6  and  O_7
REMARK    3  A    between atoms: O_7  and  C_8
REMARK    4  A    between atoms: C_8  and  C_9
REMARK    5  A    between atoms: C_9  and  C_10
REMARK    6  A    between atoms: C_10  and  C_11
REMARK    7  A    between atoms: C_11  and  C_12
REMARK    8  A    between atoms: C_12  and  C_13
REMARK    9  A    between atoms: C_13  and  C_14
REMARK   10  A    between atoms: C_14  and  C_15
REMARK   11  A    between atoms: C_15  and  C_16
REMARK   12  A    between atoms: C_16  and  C_17
REMARK   13  A    between atoms: C_17  and  O_18
REMARK   14  A    between atoms: O_18  and  C_19
REMARK   15  A    between atoms: C_22  and  C_23
REMARK                            x       y       z     vdW  Elec       q    Type
REMARK                         _______ _______ _______ _____ _____    ______ ____
ROOT
ATOM      1  C   UNL     1       2.373   6.552  20.182  0.00  0.00    +0.000 C 
ENDROOT
BRANCH   1   2
ATOM      2  C   UNL     1       2.829   6.715  18.740  0.00  0.00    +0.000 C 
BRANCH   2   3
ATOM      3  C   UNL     1       2.020   7.781  17.999  0.00  0.00    +0.000 C 
BRANCH   3   4
ATOM      4  C   UNL     1       1.665   8.971  18.895  0.00  0.00    +0.000 C 
BRANCH   4   5
ATOM      5  C   UNL     1       1.748  10.299  18.149  0.00  0.00    +0.000 C 
BRANCH   5   6
ATOM      6  O   UNL     1       0.959  11.278  18.822  0.00  0.00    +0.000 OA
BRANCH   6  10
ATOM      7  C   UNL     1       2.088  15.269  18.464  0.00  0.00    +0.000 A 
ATOM      8  C   UNL     1       0.813  14.904  18.910  0.00  0.00    +0.000 A 
ATOM      9  C   UNL     1       0.479  13.553  19.024  0.00  0.00    +0.000 A 
ATOM     10  C   UNL     1       1.402  12.567  18.676  0.00  0.00    +0.000 A 
ATOM     11  C   UNL     1       2.682  12.939  18.245  0.00  0.00    +0.000 A 
ATOM     12  C   UNL     1       3.025  14.288  18.134  0.00  0.00    +0.000 A 
BRANCH   7  14
ATOM     13  O   UNL     1       3.613  17.073  18.416  0.00  0.00    +0.000 OA
ATOM     14  C   UNL     1       2.457  16.690  18.329  0.00  0.00    +0.000 C 
ENDBRANCH   7  14
ENDBRANCH   6  10
ENDBRANCH   5   6
ENDBRANCH   4   5
ENDBRANCH   3   4
ENDBRANCH   2   3
ENDBRANCH   1   2
BRANCH   1  15
ATOM     15  C   UNL     1       2.279   5.068  20.539  0.00  0.00    +0.000 C 
BRANCH  15  16
ATOM     16  C   UNL     1       1.112   4.423  19.805  0.00  0.00    +0.000 C 
BRANCH  16  17
ATOM     17  C   UNL     1       1.051   2.914  20.045  0.00  0.00    +0.000 C 
BRANCH  17  18
ATOM     18  C   UNL     1       2.072   2.147  19.202  0.00  0.00    +0.000 C 
BRANCH  18  19
ATOM     19  C   UNL     1       2.409   2.876  17.905  0.00  0.00    +0.000 C 
BRANCH  19  20
ATOM     20  O   UNL     1       3.757   2.597  17.535  0.00  0.00    +0.000 OA
BRANCH  20  21
ATOM     21  C   UNL     1       4.585   3.688  17.519  0.00  0.00    +0.000 A 
ATOM     22  C   UNL     1       5.264   3.929  18.714  0.00  0.00    +0.000 A 
ATOM     23  C   UNL     1       6.134   5.015  18.827  0.00  0.00    +0.000 A 
ATOM     24  C   UNL     1       6.339   5.853  17.730  0.00  0.00    +0.000 A 
ATOM     25  C   UNL     1       5.682   5.609  16.522  0.00  0.00    +0.000 A 
ATOM     26  C   UNL     1       4.807   4.524  16.421  0.00  0.00    +0.000 A 
BRANCH  24  27
ATOM     27  C   UNL     1       7.257   7.003  17.826  0.00  0.00    +0.000 C 
ATOM     28  O   UNL     1       7.643   7.611  16.835  0.00  0.00    +0.000 OA
ENDBRANCH  24  27
ENDBRANCH  20  21
ENDBRANCH  19  20
ENDBRANCH  18  19
ENDBRANCH  17  18
ENDBRANCH  16  17
ENDBRANCH  15  16
ENDBRANCH   1  15
TORSDOF 15
ENDMDL
MODEL 5
REMARK VINA RESULT:      -5.9      2.041      8.908
REMARK  Name = 
REMARK  15 active torsions:
REMARK  status: ('A' for Active; 'I' for Inactive)
REMARK    1  A    between atoms: C_2  and  C_3
REMARK    2  A    between atoms: C_6  and  O_7
REMARK    3  A    between atoms: O_7  and  C_8
REMARK    4  A    between atoms: C_8  and  C_9
REMARK    5  A    between atoms: C_9  and  C_10
REMARK    6  A    between atoms: C_10  and  C_11
REMARK    7  A    between atoms: C_11  and  C_12
REMARK    8  A    between atoms: C_12  and  C_13
REMARK    9  A    between atoms: C_13  and  C_14
REMARK   10  A    between atoms: C_14  and  C_15
REMARK   11  A    between atoms: C_15  and  C_16
REMARK   12  A    between atoms: C_16  and  C_17
REMARK   13  A    between atoms: C_17  and  O_18
REMARK   14  A    between atoms: O_18  and  C_19
REMARK   15  A    between atoms: C_22  and  C_23
REMARK                            x       y       z     vdW  Elec       q    Type
REMARK                         _______ _______ _______ _____ _____    ______ ____
ROOT
ATOM      1  C   UNL     1       2.719   8.216  18.046  0.00  0.00    +0.000 C 
ENDROOT
BRANCH   1   2
ATOM      2  C   UNL     1       1.391   8.829  17.627  0.00  0.00    +0.000 C 
BRANCH   2   3
ATOM      3  C   UNL     1       0.884   9.852  18.646  0.00  0.00    +0.000 C 
BRANCH   3   4
ATOM      4  C   UNL     1      -0.511  10.379  18.298  0.00  0.00    +0.000 C 
BRANCH   4   5
ATOM      5  C   UNL     1      -0.734  11.800  18.808  0.00  0.00    +0.000 C 
BRANCH   5   6
ATOM      6  O   UNL     1      -0.242  11.914  20.141  0.00  0.00    +0.000 OA
BRANCH   6  10
ATOM      7  C   UNL     1      -3.023  12.377  23.204  0.00  0.00    +0.000 A 
ATOM      8  C   UNL     1      -1.724  11.925  23.455  0.00  0.00    +0.000 A 
ATOM      9  C   UNL     1      -0.820  11.793  22.399  0.00  0.00    +0.000 A 
ATOM     10  C   UNL     1      -1.211  12.089  21.094  0.00  0.00    +0.000 A 
ATOM     11  C   UNL     1      -2.510  12.557  20.852  0.00  0.00    +0.000 A 
ATOM     12  C   UNL     1      -3.418  12.696  21.903  0.00  0.00    +0.000 A 
BRANCH   7  14
ATOM     13  O   UNL     1      -5.129  12.067  24.231  0.00  0.00    +0.000 OA
ATOM     14  C   UNL     1      -3.995  12.515  24.304  0.00  0.00    +0.000 C 
ENDBRANCH   7  14
ENDBRANCH   6  10
ENDBRANCH   5   6
ENDBRANCH   4   5
ENDBRANCH   3   4
ENDBRANCH   2   3
ENDBRANCH   1   2
BRANCH   1  15
ATOM     15  C   UNL     1       2.516   6.761  18.471  0.00  0.00    +0.000 C 
BRANCH  15  16
ATOM     16  C   UNL     1       2.051   6.696  19.918  0.00  0.00    +0.000 C 
BRANCH  16  17
ATOM     17  C   UNL     1       1.919   5.255  20.411  0.00  0.00    +0.000 C 
BRANCH  17  18
ATOM     18  C   UNL     1       1.818   4.250  19.261  0.00  0.00    +0.000 C 
BRANCH  18  19
ATOM     19  C   UNL     1       2.665   3.005  19.510  0.00  0.00    +0.000 C 
BRANCH  19  20
ATOM     20  O   UNL     1       3.451   2.722  18.356  0.00  0.00    +0.000 OA
BRANCH  20  21
ATOM     21  C   UNL     1       4.353   3.698  18.023  0.00  0.00    +0.000 A 
ATOM     22  C   UNL     1       5.159   4.139  19.074  0.00  0.00    +0.000 A 
ATOM     23  C   UNL     1       6.114   5.135  18.863  0.00  0.00    +0.000 A 
ATOM     24  C   UNL     1       6.275   5.680  17.588  0.00  0.00    +0.000 A 
ATOM     25  C   UNL     1       5.489   5.231  16.525  0.00  0.00    +0.000 A 
ATOM     26  C   UNL     1       4.530   4.239  16.746  0.00  0.00    +0.000 A 
BRANCH  24  27
ATOM     27  C   UNL     1       7.281   6.730  17.343  0.00  0.00    +0.000 C 
ATOM     28  O   UNL     1       7.789   7.370  18.255  0.00  0.00    +0.000 OA
ENDBRANCH  24  27
ENDBRANCH  20  21
ENDBRANCH  19  20
ENDBRANCH  18  19
ENDBRANCH  17  18
ENDBRANCH  16  17
ENDBRANCH  15  16
ENDBRANCH   1  15
TORSDOF 15
ENDMDL
MODEL 6
REMARK VINA RESULT:      -5.9      2.663      8.261
REMARK  Name = 
REMARK  15 active torsions:
REMARK  status: ('A' for Active; 'I' for Inactive)
REMARK    1  A    between atoms: C_2  and  C_3
REMARK    2  A    between atoms: C_6  and  O_7
REMARK    3  A    between atoms: O_7  and  C_8
REMARK    4  A    between atoms: C_8  and  C_9
REMARK    5  A    between atoms: C_9  and  C_10
REMARK    6  A    between atoms: C_10  and  C_11
REMARK    7  A    between atoms: C_11  and  C_12
REMARK    8  A    between atoms: C_12  and  C_13
REMARK    9  A    between atoms: C_13  and  C_14
REMARK   10  A    between atoms: C_14  and  C_15
REMARK   11  A    between atoms: C_15  and  C_16
REMARK   12  A    between atoms: C_16  and  C_17
REMARK   13  A    between atoms: C_17  and  O_18
REMARK   14  A    between atoms: O_18  and  C_19
REMARK   15  A    between atoms: C_22  and  C_23
REMARK                            x       y       z     vdW  Elec       q    Type
REMARK                         _______ _______ _______ _____ _____    ______ ____
ROOT
ATOM      1  C   UNL     1       2.333   6.430  20.084  0.00  0.00    +0.000 C 
ENDROOT
BRANCH   1   2
ATOM      2  C   UNL     1       2.355   6.376  18.564  0.00  0.00    +0.000 C 
BRANCH   2   3
ATOM      3  C   UNL     1       2.851   7.686  17.950  0.00  0.00    +0.000 C 
BRANCH   3   4
ATOM      4  C   UNL     1       1.725   8.705  17.762  0.00  0.00    +0.000 C 
BRANCH   4   5
ATOM      5  C   UNL     1       1.961   9.980  18.567  0.00  0.00    +0.000 C 
BRANCH   5   6
ATOM      6  O   UNL     1       0.871  10.192  19.462  0.00  0.00    +0.000 OA
BRANCH   6  10
ATOM      7  C   UNL     1      -2.712  11.136  17.565  0.00  0.00    +0.000 A 
ATOM      8  C   UNL     1      -1.706  12.089  17.748  0.00  0.00    +0.000 A 
ATOM      9  C   UNL     1      -0.515  11.727  18.382  0.00  0.00    +0.000 A 
ATOM     10  C   UNL     1      -0.332  10.427  18.851  0.00  0.00    +0.000 A 
ATOM     11  C   UNL     1      -1.339   9.472  18.650  0.00  0.00    +0.000 A 
ATOM     12  C   UNL     1      -2.529   9.825  18.012  0.00  0.00    +0.000 A 
BRANCH   7  14
ATOM     13  O   UNL     1      -4.305  11.039  15.822  0.00  0.00    +0.000 OA
ATOM     14  C   UNL     1      -3.979  11.501  16.905  0.00  0.00    +0.000 C 
ENDBRANCH   7  14
ENDBRANCH   6  10
ENDBRANCH   5   6
ENDBRANCH   4   5
ENDBRANCH   3   4
ENDBRANCH   2   3
ENDBRANCH   1   2
BRANCH   1  15
ATOM     15  C   UNL     1       2.235   5.017  20.659  0.00  0.00    +0.000 C 
BRANCH  15  16
ATOM     16  C   UNL     1       0.918   4.373  20.251  0.00  0.00    +0.000 C 
BRANCH  16  17
ATOM     17  C   UNL     1       1.125   3.224  19.264  0.00  0.00    +0.000 C 
BRANCH  17  18
ATOM     18  C   UNL     1       1.962   2.088  19.856  0.00  0.00    +0.000 C 
BRANCH  18  19
ATOM     19  C   UNL     1       3.460   2.334  19.694  0.00  0.00    +0.000 C 
BRANCH  19  20
ATOM     20  O   UNL     1       3.772   2.492  18.313  0.00  0.00    +0.000 OA
BRANCH  20  21
ATOM     21  C   UNL     1       4.541   3.588  18.021  0.00  0.00    +0.000 A 
ATOM     22  C   UNL     1       5.227   4.132  19.108  0.00  0.00    +0.000 A 
ATOM     23  C   UNL     1       6.040   5.255  18.940  0.00  0.00    +0.000 A 
ATOM     24  C   UNL     1       6.181   5.824  17.674  0.00  0.00    +0.000 A 
ATOM     25  C   UNL     1       5.517   5.275  16.576  0.00  0.00    +0.000 A 
ATOM     26  C   UNL     1       4.699   4.156  16.753  0.00  0.00    +0.000 A 
BRANCH  24  27
ATOM     27  C   UNL     1       7.039   7.007  17.475  0.00  0.00    +0.000 C 
ATOM     28  O   UNL     1       7.819   7.093  16.535  0.00  0.00    +0.000 OA
ENDBRANCH  24  27
ENDBRANCH  20  21
ENDBRANCH  19  20
ENDBRANCH  18  19
ENDBRANCH  17  18
ENDBRANCH  16  17
ENDBRANCH  15  16
ENDBRANCH   1  15
TORSDOF 15
ENDMDL
MODEL 7
REMARK VINA RESULT:      -5.9      1.991      4.288
REMARK  Name = 
REMARK  15 active torsions:
REMARK  status: ('A' for Active; 'I' for Inactive)
REMARK    1  A    between atoms: C_2  and  C_3
REMARK    2  A    between atoms: C_6  and  O_7
REMARK    3  A    between atoms: O_7  and  C_8
REMARK    4  A    between atoms: C_8  and  C_9
REMARK    5  A    between atoms: C_9  and  C_10
REMARK    6  A    between atoms: C_10  and  C_11
REMARK    7  A    between atoms: C_11  and  C_12
REMARK    8  A    between atoms: C_12  and  C_13
REMARK    9  A    between atoms: C_13  and  C_14
REMARK   10  A    between atoms: C_14  and  C_15
REMARK   11  A    between atoms: C_15  and  C_16
REMARK   12  A    between atoms: C_16  and  C_17
REMARK   13  A    between atoms: C_17  and  O_18
REMARK   14  A    between atoms: O_18  and  C_19
REMARK   15  A    between atoms: C_22  and  C_23
REMARK                            x       y       z     vdW  Elec       q    Type
REMARK                         _______ _______ _______ _____ _____    ______ ____
ROOT
ATOM      1  C   UNL     1       2.556   6.499  17.910  0.00  0.00    +0.000 C 
ENDROOT
BRANCH   1   2
ATOM      2  C   UNL     1       1.926   5.360  18.698  0.00  0.00    +0.000 C 
BRANCH   2   3
ATOM      3  C   UNL     1       1.625   4.148  17.814  0.00  0.00    +0.000 C 
BRANCH   3   4
ATOM      4  C   UNL     1       2.091   2.835  18.448  0.00  0.00    +0.000 C 
BRANCH   4   5
ATOM      5  C   UNL     1       3.595   2.822  18.709  0.00  0.00    +0.000 C 
BRANCH   5   6
ATOM      6  O   UNL     1       4.297   2.992  17.479  0.00  0.00    +0.000 OA
BRANCH   6  10
ATOM      7  C   UNL     1       6.710   6.383  17.528  0.00  0.00    +0.000 A 
ATOM      8  C   UNL     1       6.489   5.624  18.681  0.00  0.00    +0.000 A 
ATOM      9  C   UNL     1       5.679   4.488  18.618  0.00  0.00    +0.000 A 
ATOM     10  C   UNL     1       5.074   4.118  17.417  0.00  0.00    +0.000 A 
ATOM     11  C   UNL     1       5.313   4.875  16.262  0.00  0.00    +0.000 A 
ATOM     12  C   UNL     1       6.126   6.009  16.316  0.00  0.00    +0.000 A 
BRANCH   7  14
ATOM     13  O   UNL     1       8.388   7.767  18.452  0.00  0.00    +0.000 OA
ATOM     14  C   UNL     1       7.555   7.591  17.576  0.00  0.00    +0.000 C 
ENDBRANCH   7  14
ENDBRANCH   6  10
ENDBRANCH   5   6
ENDBRANCH   4   5
ENDBRANCH   3   4
ENDBRANCH   2   3
ENDBRANCH   1   2
BRANCH   1  15
ATOM     15  C   UNL     1       2.174   7.842  18.533  0.00  0.00    +0.000 C 
BRANCH  15  16
ATOM     16  C   UNL     1       2.064   7.709  20.045  0.00  0.00    +0.000 C 
BRANCH  16  17
ATOM     17  C   UNL     1       1.020   8.662  20.628  0.00  0.00    +0.000 C 
BRANCH  17  18
ATOM     18  C   UNL     1       1.170   8.839  22.140  0.00  0.00    +0.000 C 
BRANCH  18  19
ATOM     19  C   UNL     1      -0.092   9.414  22.779  0.00  0.00    +0.000 C 
BRANCH  19  20
ATOM     20  O   UNL     1       0.003  10.834  22.832  0.00  0.00    +0.000 OA
BRANCH  20  21
ATOM     21  C   UNL     1      -1.124  11.500  22.428  0.00  0.00    +0.000 A 
ATOM     22  C   UNL     1      -1.147  11.855  21.079  0.00  0.00    +0.000 A 
ATOM     23  C   UNL     1      -2.240  12.542  20.546  0.00  0.00    +0.000 A 
ATOM     24  C   UNL     1      -3.323  12.859  21.367  0.00  0.00    +0.000 A 
ATOM     25  C   UNL     1      -3.321  12.489  22.713  0.00  0.00    +0.000 A 
ATOM     26  C   UNL     1      -2.219  11.808  23.240  0.00  0.00    +0.000 A 
BRANCH  24  27
ATOM     27  C   UNL     1      -4.489  13.580  20.824  0.00  0.00    +0.000 C 
ATOM     28  O   UNL     1      -5.071  13.207  19.812  0.00  0.00    +0.000 OA
ENDBRANCH  24  27
ENDBRANCH  20  21
ENDBRANCH  19  20
ENDBRANCH  18  19
ENDBRANCH  17  18
ENDBRANCH  16  17
ENDBRANCH  15  16
ENDBRANCH   1  15
TORSDOF 15
ENDMDL
MODEL 8
REMARK VINA RESULT:      -5.9      2.941      9.017
REMARK  Name = 
REMARK  15 active torsions:
REMARK  status: ('A' for Active; 'I' for Inactive)
REMARK    1  A    between atoms: C_2  and  C_3
REMARK    2  A    between atoms: C_6  and  O_7
REMARK    3  A    between atoms: O_7  and  C_8
REMARK    4  A    between atoms: C_8  and  C_9
REMARK    5  A    between atoms: C_9  and  C_10
REMARK    6  A    between atoms: C_10  and  C_11
REMARK    7  A    between atoms: C_11  and  C_12
REMARK    8  A    between atoms: C_12  and  C_13
REMARK    9  A    between atoms: C_13  and  C_14
REMARK   10  A    between atoms: C_14  and  C_15
REMARK   11  A    between atoms: C_15  and  C_16
REMARK   12  A    between atoms: C_16  and  C_17
REMARK   13  A    between atoms: C_17  and  O_18
REMARK   14  A    between atoms: O_18  and  C_19
REMARK   15  A    between atoms: C_22  and  C_23
REMARK                            x       y       z     vdW  Elec       q    Type
REMARK                         _______ _______ _______ _____ _____    ______ ____
ROOT
ATOM      1  C   UNL     1       3.116   6.914  18.141  0.00  0.00    +0.000 C 
ENDROOT
BRANCH   1   2
ATOM      2  C   UNL     1       2.650   8.332  17.845  0.00  0.00    +0.000 C 
BRANCH   2   3
ATOM      3  C   UNL     1       1.590   8.807  18.840  0.00  0.00    +0.000 C 
BRANCH   3   4
ATOM      4  C   UNL     1       1.140  10.245  18.570  0.00  0.00    +0.000 C 
BRANCH   4   5
ATOM      5  C   UNL     1      -0.349  10.333  18.250  0.00  0.00    +0.000 C 
BRANCH   5   6
ATOM      6  O   UNL     1      -0.907  11.490  18.870  0.00  0.00    +0.000 OA
BRANCH   6  10
ATOM      7  C   UNL     1      -5.005  12.096  18.468  0.00  0.00    +0.000 A 
ATOM      8  C   UNL     1      -4.321  12.458  19.633  0.00  0.00    +0.000 A 
ATOM      9  C   UNL     1      -2.944  12.245  19.722  0.00  0.00    +0.000 A 
ATOM     10  C   UNL     1      -2.251  11.655  18.665  0.00  0.00    +0.000 A 
ATOM     11  C   UNL     1      -2.941  11.310  17.495  0.00  0.00    +0.000 A 
ATOM     12  C   UNL     1      -4.316  11.525  17.396  0.00  0.00    +0.000 A 
BRANCH   7  14
ATOM     13  O   UNL     1      -7.237  11.384  18.155  0.00  0.00    +0.000 OA
ATOM     14  C   UNL     1      -6.461  12.305  18.358  0.00  0.00    +0.000 C 
ENDBRANCH   7  14
ENDBRANCH   6  10
ENDBRANCH   5   6
ENDBRANCH   4   5
ENDBRANCH   3   4
ENDBRANCH   2   3
ENDBRANCH   1   2
BRANCH   1  15
ATOM     15  C   UNL     1       1.944   6.069  18.642  0.00  0.00    +0.000 C 
BRANCH  15  16
ATOM     16  C   UNL     1       2.187   5.634  20.080  0.00  0.00    +0.000 C 
BRANCH  16  17
ATOM     17  C   UNL     1       1.161   4.600  20.545  0.00  0.00    +0.000 C 
BRANCH  17  18
ATOM     18  C   UNL     1       1.769   3.205  20.706  0.00  0.00    +0.000 C 
BRANCH  18  19
ATOM     19  C   UNL     1       1.900   2.479  19.370  0.00  0.00    +0.000 C 
BRANCH  19  20
ATOM     20  O   UNL     1       3.248   2.055  19.186  0.00  0.00    +0.000 OA
BRANCH  20  21
ATOM     21  C   UNL     1       4.030   2.926  18.473  0.00  0.00    +0.000 A 
ATOM     22  C   UNL     1       5.013   3.579  19.217  0.00  0.00    +0.000 A 
ATOM     23  C   UNL     1       5.871   4.495  18.606  0.00  0.00    +0.000 A 
ATOM     24  C   UNL     1       5.755   4.746  17.238  0.00  0.00    +0.000 A 
ATOM     25  C   UNL     1       4.789   4.082  16.479  0.00  0.00    +0.000 A 
ATOM     26  C   UNL     1       3.929   3.171  17.101  0.00  0.00    +0.000 A 
BRANCH  24  27
ATOM     27  C   UNL     1       6.653   5.706  16.572  0.00  0.00    +0.000 C 
ATOM     28  O   UNL     1       6.426   6.910  16.563  0.00  0.00    +0.000 OA
ENDBRANCH  24  27
ENDBRANCH  20  21
ENDBRANCH  19  20
ENDBRANCH  18  19
ENDBRANCH  17  18
ENDBRANCH  16  17
ENDBRANCH  15  16
ENDBRANCH   1  15
TORSDOF 15
ENDMDL
MODEL 9
REMARK VINA RESULT:      -5.8      1.856      8.848
REMARK  Name = 
REMARK  15 active torsions:
REMARK  status: ('A' for Active; 'I' for Inactive)
REMARK    1  A    between atoms: C_2  and  C_3
REMARK    2  A    between atoms: C_6  and  O_7
REMARK    3  A    between atoms: O_7  and  C_8
REMARK    4  A    between atoms: C_8  and  C_9
REMARK    5  A    between atoms: C_9  and  C_10
REMARK    6  A    between atoms: C_10  and  C_11
REMARK    7  A    between atoms: C_11  and  C_12
REMARK    8  A    between atoms: C_12  and  C_13
REMARK    9  A    between atoms: C_13  and  C_14
REMARK   10  A    between atoms: C_14  and  C_15
REMARK   11  A    between atoms: C_15  and  C_16
REMARK   12  A    between atoms: C_16  and  C_17
REMARK   13  A    between atoms: C_17  and  O_18
REMARK   14  A    between atoms: O_18  and  C_19
REMARK   15  A    between atoms: C_22  and  C_23
REMARK                            x       y       z     vdW  Elec       q    Type
REMARK                         _______ _______ _______ _____ _____    ______ ____
ROOT
ATOM      1  C   UNL     1       2.921   7.703  17.854  0.00  0.00    +0.000 C 
ENDROOT
BRANCH   1   2
ATOM      2  C   UNL     1       1.722   8.631  17.723  0.00  0.00    +0.000 C 
BRANCH   2   3
ATOM      3  C   UNL     1       1.515   9.482  18.977  0.00  0.00    +0.000 C 
BRANCH   3   4
ATOM      4  C   UNL     1       1.389  10.973  18.655  0.00  0.00    +0.000 C 
BRANCH   4   5
ATOM      5  C   UNL     1       1.141  11.814  19.905  0.00  0.00    +0.000 C 
BRANCH   5   6
ATOM      6  O   UNL     1       0.492  11.020  20.896  0.00  0.00    +0.000 OA
BRANCH   6  10
ATOM      7  C   UNL     1      -3.079  12.472  22.468  0.00  0.00    +0.000 A 
ATOM      8  C   UNL     1      -2.172  11.751  23.252  0.00  0.00    +0.000 A 
ATOM      9  C   UNL     1      -0.981  11.290  22.686  0.00  0.00    +0.000 A 
ATOM     10  C   UNL     1      -0.701  11.527  21.340  0.00  0.00    +0.000 A 
ATOM     11  C   UNL     1      -1.608  12.264  20.566  0.00  0.00    +0.000 A 
ATOM     12  C   UNL     1      -2.797  12.732  21.126  0.00  0.00    +0.000 A 
BRANCH   7  14
ATOM     13  O   UNL     1      -4.680  14.133  22.982  0.00  0.00    +0.000 OA
ATOM     14  C   UNL     1      -4.345  12.960  23.046  0.00  0.00    +0.000 C 
ENDBRANCH   7  14
ENDBRANCH   6  10
ENDBRANCH   5   6
ENDBRANCH   4   5
ENDBRANCH   3   4
ENDBRANCH   2   3
ENDBRANCH   1   2
BRANCH   1  15
ATOM     15  C   UNL     1       2.879   6.976  19.198  0.00  0.00    +0.000 C 
BRANCH  15  16
ATOM     16  C   UNL     1       1.870   5.838  19.149  0.00  0.00    +0.000 C 
BRANCH  16  17
ATOM     17  C   UNL     1       1.703   5.164  20.512  0.00  0.00    +0.000 C 
BRANCH  17  18
ATOM     18  C   UNL     1       1.518   3.650  20.396  0.00  0.00    +0.000 C 
BRANCH  18  19
ATOM     19  C   UNL     1       2.816   2.892  20.662  0.00  0.00    +0.000 C 
BRANCH  19  20
ATOM     20  O   UNL     1       3.275   2.289  19.456  0.00  0.00    +0.000 OA
BRANCH  20  21
ATOM     21  C   UNL     1       3.980   3.124  18.630  0.00  0.00    +0.000 A 
ATOM     22  C   UNL     1       5.021   3.820  19.246  0.00  0.00    +0.000 A 
ATOM     23  C   UNL     1       5.810   4.707  18.511  0.00  0.00    +0.000 A 
ATOM     24  C   UNL     1       5.568   4.884  17.148  0.00  0.00    +0.000 A 
ATOM     25  C   UNL     1       4.543   4.176  16.517  0.00  0.00    +0.000 A 
ATOM     26  C   UNL     1       3.752   3.296  17.261  0.00  0.00    +0.000 A 
BRANCH  24  27
ATOM     27  C   UNL     1       6.392   5.812  16.353  0.00  0.00    +0.000 C 
ATOM     28  O   UNL     1       6.778   6.885  16.801  0.00  0.00    +0.000 OA
ENDBRANCH  24  27
ENDBRANCH  20  21
ENDBRANCH  19  20
ENDBRANCH  18  19
ENDBRANCH  17  18
ENDBRANCH  16  17
ENDBRANCH  15  16
ENDBRANCH   1  15
TORSDOF 15
ENDMDL
