MODEL 1
REMARK VINA RESULT:      -8.2      0.000      0.000
REMARK  Name = 
REMARK  4 active torsions:
REMARK  status: ('A' for Active; 'I' for Inactive)
REMARK    1  A    between atoms: C_2  and  C_3
REMARK    2  A    between atoms: C_11  and  O_12
REMARK    3  A    between atoms: C_13  and  C_14
REMARK    4  A    between atoms: C_14  and  C_15
REMARK                            x       y       z     vdW  Elec       q    Type
REMARK                         _______ _______ _______ _____ _____    ______ ____
ROOT
ATOM      1  O   UNL     1       3.737   2.895  17.529  0.00  0.00    +0.000 OA
ATOM      2  C   UNL     1       4.157   3.714  18.354  0.00  0.00    +0.000 C 
ATOM      3  N   UNL     1       5.291   4.459  18.098  0.00  0.00    +0.000 N 
ATOM      4  C   UNL     1       5.926   5.410  19.002  0.00  0.00    +0.000 C 
ATOM      5  C   UNL     1       7.045   6.041  18.183  0.00  0.00    +0.000 C 
ATOM      6  C   UNL     1       7.435   4.926  17.219  0.00  0.00    +0.000 C 
ATOM      7  C   UNL     1       6.081   4.266  16.870  0.00  0.00    +0.000 C 
ENDROOT
BRANCH   2   8
ATOM      8  C   UNL     1       3.430   3.975  19.693  0.00  0.00    +0.000 C 
ATOM      9  C   UNL     1       2.110   4.712  19.514  0.00  0.00    +0.000 C 
ATOM     10  C   UNL     1       1.120   3.582  19.384  0.00  0.00    +0.000 C 
ATOM     11  C   UNL     1       1.692   2.549  20.327  0.00  0.00    +0.000 C 
ATOM     12  O   UNL     1       3.114   2.739  20.354  0.00  0.00    +0.000 OA
ENDBRANCH   2   8
BRANCH   6  13
ATOM     13  O   UNL     1       8.294   4.006  17.906  0.00  0.00    +0.000 OA
ATOM     14  H   UNL     1       8.002   3.104  17.685  0.00  0.00    +0.000 HD
ENDBRANCH   6  13
BRANCH   7  15
ATOM     15  C   UNL     1       5.376   4.901  15.650  0.00  0.00    +0.000 C 
BRANCH  15  16
ATOM     16  C   UNL     1       6.030   4.515  14.344  0.00  0.00    +0.000 A 
ATOM     17  C   UNL     1       7.220   5.132  13.934  0.00  0.00    +0.000 A 
ATOM     18  C   UNL     1       7.736   4.890  12.662  0.00  0.00    +0.000 A 
ATOM     19  C   UNL     1       7.084   4.009  11.800  0.00  0.00    +0.000 A 
ATOM     20  C   UNL     1       5.931   3.350  12.220  0.00  0.00    +0.000 A 
ATOM     21  C   UNL     1       5.407   3.597  13.489  0.00  0.00    +0.000 A 
ENDBRANCH  15  16
ENDBRANCH   7  15
TORSDOF 4
ENDMDL
MODEL 2
REMARK VINA RESULT:      -8.1      0.232      1.105
REMARK  Name = 
REMARK  4 active torsions:
REMARK  status: ('A' for Active; 'I' for Inactive)
REMARK    1  A    between atoms: C_2  and  C_3
REMARK    2  A    between atoms: C_11  and  O_12
REMARK    3  A    between atoms: C_13  and  C_14
REMARK    4  A    between atoms: C_14  and  C_15
REMARK                            x       y       z     vdW  Elec       q    Type
REMARK                         _______ _______ _______ _____ _____    ______ ____
ROOT
ATOM      1  O   UNL     1       3.785   2.825  17.687  0.00  0.00    +0.000 OA
ATOM      2  C   UNL     1       4.261   3.621  18.504  0.00  0.00    +0.000 C 
ATOM      3  N   UNL     1       5.364   4.387  18.188  0.00  0.00    +0.000 N 
ATOM      4  C   UNL     1       6.059   5.314  19.073  0.00  0.00    +0.000 C 
ATOM      5  C   UNL     1       7.104   5.986  18.193  0.00  0.00    +0.000 C 
ATOM      6  C   UNL     1       7.429   4.910  17.163  0.00  0.00    +0.000 C 
ATOM      7  C   UNL     1       6.058   4.246  16.897  0.00  0.00    +0.000 C 
ENDROOT
BRANCH   2   8
ATOM      8  C   UNL     1       3.638   3.826  19.904  0.00  0.00    +0.000 C 
ATOM      9  C   UNL     1       2.450   4.779  19.888  0.00  0.00    +0.000 C 
ATOM     10  C   UNL     1       1.284   3.844  19.685  0.00  0.00    +0.000 C 
ATOM     11  C   UNL     1       1.715   2.625  20.469  0.00  0.00    +0.000 C 
ATOM     12  O   UNL     1       3.149   2.583  20.435  0.00  0.00    +0.000 OA
ENDBRANCH   2   8
BRANCH   6  13
ATOM     13  O   UNL     1       8.347   3.977  17.748  0.00  0.00    +0.000 OA
ATOM     14  H   UNL     1       9.142   4.470  18.017  0.00  0.00    +0.000 HD
ENDBRANCH   6  13
BRANCH   7  15
ATOM     15  C   UNL     1       5.255   4.914  15.758  0.00  0.00    +0.000 C 
BRANCH  15  16
ATOM     16  C   UNL     1       5.834   4.616  14.396  0.00  0.00    +0.000 A 
ATOM     17  C   UNL     1       5.207   3.701  13.540  0.00  0.00    +0.000 A 
ATOM     18  C   UNL     1       5.824   3.310  12.352  0.00  0.00    +0.000 A 
ATOM     19  C   UNL     1       7.059   3.852  11.997  0.00  0.00    +0.000 A 
ATOM     20  C   UNL     1       7.663   4.804  12.814  0.00  0.00    +0.000 A 
ATOM     21  C   UNL     1       7.052   5.190  14.008  0.00  0.00    +0.000 A 
ENDBRANCH  15  16
ENDBRANCH   7  15
TORSDOF 4
ENDMDL
MODEL 3
REMARK VINA RESULT:      -6.7      3.321      6.998
REMARK  Name = 
REMARK  4 active torsions:
REMARK  status: ('A' for Active; 'I' for Inactive)
REMARK    1  A    between atoms: C_2  and  C_3
REMARK    2  A    between atoms: C_11  and  O_12
REMARK    3  A    between atoms: C_13  and  C_14
REMARK    4  A    between atoms: C_14  and  C_15
REMARK                            x       y       z     vdW  Elec       q    Type
REMARK                         _______ _______ _______ _____ _____    ______ ____
ROOT
ATOM      1  O   UNL     1       5.259   6.690  17.776  0.00  0.00    +0.000 OA
ATOM      2  C   UNL     1       4.817   5.537  17.817  0.00  0.00    +0.000 C 
ATOM      3  N   UNL     1       3.629   5.256  18.461  0.00  0.00    +0.000 N 
ATOM      4  C   UNL     1       3.028   3.940  18.637  0.00  0.00    +0.000 C 
ATOM      5  C   UNL     1       1.678   4.210  19.287  0.00  0.00    +0.000 C 
ATOM      6  C   UNL     1       1.933   5.479  20.092  0.00  0.00    +0.000 C 
ATOM      7  C   UNL     1       2.875   6.298  19.179  0.00  0.00    +0.000 C 
ENDROOT
BRANCH   2   8
ATOM      8  C   UNL     1       5.543   4.357  17.131  0.00  0.00    +0.000 C 
ATOM      9  C   UNL     1       5.002   4.059  15.739  0.00  0.00    +0.000 C 
ATOM     10  C   UNL     1       5.886   4.904  14.857  0.00  0.00    +0.000 C 
ATOM     11  C   UNL     1       7.217   4.819  15.569  0.00  0.00    +0.000 C 
ATOM     12  O   UNL     1       6.942   4.642  16.966  0.00  0.00    +0.000 OA
ENDBRANCH   2   8
BRANCH   6  13
ATOM     13  O   UNL     1       2.587   5.122  21.317  0.00  0.00    +0.000 OA
ATOM     14  H   UNL     1       2.098   4.378  21.710  0.00  0.00    +0.000 HD
ENDBRANCH   6  13
BRANCH   7  15
ATOM     15  C   UNL     1       2.131   7.225  18.191  0.00  0.00    +0.000 C 
BRANCH  15  16
ATOM     16  C   UNL     1       1.780   8.558  18.808  0.00  0.00    +0.000 A 
ATOM     17  C   UNL     1       1.291   8.628  20.119  0.00  0.00    +0.000 A 
ATOM     18  C   UNL     1       0.820   9.837  20.631  0.00  0.00    +0.000 A 
ATOM     19  C   UNL     1       0.860  10.989  19.848  0.00  0.00    +0.000 A 
ATOM     20  C   UNL     1       1.395  10.940  18.562  0.00  0.00    +0.000 A 
ATOM     21  C   UNL     1       1.859   9.730  18.045  0.00  0.00    +0.000 A 
ENDBRANCH  15  16
ENDBRANCH   7  15
TORSDOF 4
ENDMDL
MODEL 4
REMARK VINA RESULT:      -6.7      2.498      6.623
REMARK  Name = 
REMARK  4 active torsions:
REMARK  status: ('A' for Active; 'I' for Inactive)
REMARK    1  A    between atoms: C_2  and  C_3
REMARK    2  A    between atoms: C_11  and  O_12
REMARK    3  A    between atoms: C_13  and  C_14
REMARK    4  A    between atoms: C_14  and  C_15
REMARK                            x       y       z     vdW  Elec       q    Type
REMARK                         _______ _______ _______ _____ _____    ______ ____
ROOT
ATOM      1  O   UNL     1       5.564   6.102  17.687  0.00  0.00    +0.000 OA
ATOM      2  C   UNL     1       5.388   4.902  17.446  0.00  0.00    +0.000 C 
ATOM      3  N   UNL     1       4.269   4.243  17.912  0.00  0.00    +0.000 N 
ATOM      4  C   UNL     1       3.969   2.825  17.754  0.00  0.00    +0.000 C 
ATOM      5  C   UNL     1       2.569   2.654  18.327  0.00  0.00    +0.000 C 
ATOM      6  C   UNL     1       2.504   3.736  19.399  0.00  0.00    +0.000 C 
ATOM      7  C   UNL     1       3.274   4.916  18.764  0.00  0.00    +0.000 C 
ENDROOT
BRANCH   2   8
ATOM      8  C   UNL     1       6.385   4.084  16.593  0.00  0.00    +0.000 C 
ATOM      9  C   UNL     1       5.754   3.520  15.327  0.00  0.00    +0.000 C 
ATOM     10  C   UNL     1       6.027   4.603  14.315  0.00  0.00    +0.000 C 
ATOM     11  C   UNL     1       7.387   5.104  14.746  0.00  0.00    +0.000 C 
ATOM     12  O   UNL     1       7.485   4.903  16.163  0.00  0.00    +0.000 OA
ENDBRANCH   2   8
BRANCH   6  13
ATOM     13  O   UNL     1       3.173   3.258  20.574  0.00  0.00    +0.000 OA
ATOM     14  H   UNL     1       2.492   2.984  21.214  0.00  0.00    +0.000 HD
ENDBRANCH   6  13
BRANCH   7  15
ATOM     15  C   UNL     1       2.382   5.865  17.932  0.00  0.00    +0.000 C 
BRANCH  15  16
ATOM     16  C   UNL     1       2.076   7.151  18.662  0.00  0.00    +0.000 A 
ATOM     17  C   UNL     1       1.897   7.157  20.052  0.00  0.00    +0.000 A 
ATOM     18  C   UNL     1       1.461   8.311  20.702  0.00  0.00    +0.000 A 
ATOM     19  C   UNL     1       1.227   9.476  19.972  0.00  0.00    +0.000 A 
ATOM     20  C   UNL     1       1.455   9.495  18.598  0.00  0.00    +0.000 A 
ATOM     21  C   UNL     1       1.883   8.339  17.944  0.00  0.00    +0.000 A 
ENDBRANCH  15  16
ENDBRANCH   7  15
TORSDOF 4
ENDMDL
MODEL 5
REMARK VINA RESULT:      -6.6      1.298      1.377
REMARK  Name = 
REMARK  4 active torsions:
REMARK  status: ('A' for Active; 'I' for Inactive)
REMARK    1  A    between atoms: C_2  and  C_3
REMARK    2  A    between atoms: C_11  and  O_12
REMARK    3  A    between atoms: C_13  and  C_14
REMARK    4  A    between atoms: C_14  and  C_15
REMARK                            x       y       z     vdW  Elec       q    Type
REMARK                         _______ _______ _______ _____ _____    ______ ____
ROOT
ATOM      1  O   UNL     1       4.410   2.806  18.561  0.00  0.00    +0.000 OA
ATOM      2  C   UNL     1       3.954   3.946  18.699  0.00  0.00    +0.000 C 
ATOM      3  N   UNL     1       4.386   4.984  17.897  0.00  0.00    +0.000 N 
ATOM      4  C   UNL     1       3.978   6.380  17.992  0.00  0.00    +0.000 C 
ATOM      5  C   UNL     1       4.639   7.062  16.802  0.00  0.00    +0.000 C 
ATOM      6  C   UNL     1       5.907   6.240  16.597  0.00  0.00    +0.000 C 
ATOM      7  C   UNL     1       5.448   4.794  16.895  0.00  0.00    +0.000 C 
ENDROOT
BRANCH   2   8
ATOM      8  C   UNL     1       2.862   4.270  19.744  0.00  0.00    +0.000 C 
ATOM      9  C   UNL     1       1.452   4.127  19.188  0.00  0.00    +0.000 C 
ATOM     10  C   UNL     1       1.114   2.695  19.519  0.00  0.00    +0.000 C 
ATOM     11  C   UNL     1       1.804   2.506  20.851  0.00  0.00    +0.000 C 
ATOM     12  O   UNL     1       2.944   3.376  20.866  0.00  0.00    +0.000 OA
ENDBRANCH   2   8
BRANCH   6  13
ATOM     13  O   UNL     1       6.892   6.672  17.545  0.00  0.00    +0.000 OA
ATOM     14  H   UNL     1       7.745   6.280  17.289  0.00  0.00    +0.000 HD
ENDBRANCH   6  13
BRANCH   7  15
ATOM     15  C   UNL     1       4.913   4.045  15.654  0.00  0.00    +0.000 C 
BRANCH  15  16
ATOM     16  C   UNL     1       5.861   4.126  14.481  0.00  0.00    +0.000 A 
ATOM     17  C   UNL     1       7.005   4.933  14.545  0.00  0.00    +0.000 A 
ATOM     18  C   UNL     1       7.792   5.131  13.410  0.00  0.00    +0.000 A 
ATOM     19  C   UNL     1       7.458   4.501  12.212  0.00  0.00    +0.000 A 
ATOM     20  C   UNL     1       6.355   3.653  12.154  0.00  0.00    +0.000 A 
ATOM     21  C   UNL     1       5.560   3.461  13.285  0.00  0.00    +0.000 A 
ENDBRANCH  15  16
ENDBRANCH   7  15
TORSDOF 4
ENDMDL
MODEL 6
REMARK VINA RESULT:      -6.5      3.223      7.012
REMARK  Name = 
REMARK  4 active torsions:
REMARK  status: ('A' for Active; 'I' for Inactive)
REMARK    1  A    between atoms: C_2  and  C_3
REMARK    2  A    between atoms: C_11  and  O_12
REMARK    3  A    between atoms: C_13  and  C_14
REMARK    4  A    between atoms: C_14  and  C_15
REMARK                            x       y       z     vdW  Elec       q    Type
REMARK                         _______ _______ _______ _____ _____    ______ ____
ROOT
ATOM      1  O   UNL     1       5.532   6.652  17.808  0.00  0.00    +0.000 OA
ATOM      2  C   UNL     1       5.021   5.528  17.757  0.00  0.00    +0.000 C 
ATOM      3  N   UNL     1       3.785   5.285  18.321  0.00  0.00    +0.000 N 
ATOM      4  C   UNL     1       3.098   4.001  18.386  0.00  0.00    +0.000 C 
ATOM      5  C   UNL     1       1.732   4.317  18.979  0.00  0.00    +0.000 C 
ATOM      6  C   UNL     1       2.016   5.521  19.870  0.00  0.00    +0.000 C 
ATOM      7  C   UNL     1       3.054   6.330  19.058  0.00  0.00    +0.000 C 
ENDROOT
BRANCH   2   8
ATOM      8  C   UNL     1       5.714   4.345  17.041  0.00  0.00    +0.000 C 
ATOM      9  C   UNL     1       5.104   4.040  15.680  0.00  0.00    +0.000 C 
ATOM     10  C   UNL     1       5.941   4.882  14.751  0.00  0.00    +0.000 C 
ATOM     11  C   UNL     1       7.306   4.803  15.395  0.00  0.00    +0.000 C 
ATOM     12  O   UNL     1       7.102   4.632  16.805  0.00  0.00    +0.000 OA
ENDBRANCH   2   8
BRANCH   6  13
ATOM     13  O   UNL     1       2.577   5.056  21.104  0.00  0.00    +0.000 OA
ATOM     14  H   UNL     1       2.288   4.136  21.236  0.00  0.00    +0.000 HD
ENDBRANCH   6  13
BRANCH   7  15
ATOM     15  C   UNL     1       2.422   7.355  18.089  0.00  0.00    +0.000 C 
BRANCH  15  16
ATOM     16  C   UNL     1       1.755   8.497  18.817  0.00  0.00    +0.000 A 
ATOM     17  C   UNL     1       1.481   9.701  18.155  0.00  0.00    +0.000 A 
ATOM     18  C   UNL     1       1.011  10.805  18.865  0.00  0.00    +0.000 A 
ATOM     19  C   UNL     1       0.784  10.707  20.237  0.00  0.00    +0.000 A 
ATOM     20  C   UNL     1       1.000   9.498  20.894  0.00  0.00    +0.000 A 
ATOM     21  C   UNL     1       1.480   8.394  20.187  0.00  0.00    +0.000 A 
ENDBRANCH  15  16
ENDBRANCH   7  15
TORSDOF 4
ENDMDL
MODEL 7
REMARK VINA RESULT:      -6.5      1.487      1.907
REMARK  Name = 
REMARK  4 active torsions:
REMARK  status: ('A' for Active; 'I' for Inactive)
REMARK    1  A    between atoms: C_2  and  C_3
REMARK    2  A    between atoms: C_11  and  O_12
REMARK    3  A    between atoms: C_13  and  C_14
REMARK    4  A    between atoms: C_14  and  C_15
REMARK                            x       y       z     vdW  Elec       q    Type
REMARK                         _______ _______ _______ _____ _____    ______ ____
ROOT
ATOM      1  O   UNL     1       4.534   3.006  19.090  0.00  0.00    +0.000 OA
ATOM      2  C   UNL     1       3.937   4.087  19.115  0.00  0.00    +0.000 C 
ATOM      3  N   UNL     1       4.222   5.076  18.194  0.00  0.00    +0.000 N 
ATOM      4  C   UNL     1       3.640   6.411  18.147  0.00  0.00    +0.000 C 
ATOM      5  C   UNL     1       4.194   7.035  16.873  0.00  0.00    +0.000 C 
ATOM      6  C   UNL     1       5.554   6.362  16.726  0.00  0.00    +0.000 C 
ATOM      7  C   UNL     1       5.288   4.912  17.191  0.00  0.00    +0.000 C 
ENDROOT
BRANCH   2   8
ATOM      8  C   UNL     1       2.825   4.385  20.146  0.00  0.00    +0.000 C 
ATOM      9  C   UNL     1       1.429   4.348  19.538  0.00  0.00    +0.000 C 
ATOM     10  C   UNL     1       1.019   2.912  19.751  0.00  0.00    +0.000 C 
ATOM     11  C   UNL     1       1.653   2.596  21.086  0.00  0.00    +0.000 C 
ATOM     12  O   UNL     1       2.830   3.409  21.201  0.00  0.00    +0.000 OA
ENDBRANCH   2   8
BRANCH   6  13
ATOM     13  O   UNL     1       6.487   7.018  17.595  0.00  0.00    +0.000 OA
ATOM     14  H   UNL     1       6.592   7.934  17.284  0.00  0.00    +0.000 HD
ENDBRANCH   6  13
BRANCH   7  15
ATOM     15  C   UNL     1       4.839   3.967  16.053  0.00  0.00    +0.000 C 
BRANCH  15  16
ATOM     16  C   UNL     1       5.624   4.187  14.781  0.00  0.00    +0.000 A 
ATOM     17  C   UNL     1       5.164   3.672  13.562  0.00  0.00    +0.000 A 
ATOM     18  C   UNL     1       5.964   3.738  12.422  0.00  0.00    +0.000 A 
ATOM     19  C   UNL     1       7.217   4.345  12.484  0.00  0.00    +0.000 A 
ATOM     20  C   UNL     1       7.660   4.909  13.679  0.00  0.00    +0.000 A 
ATOM     21  C   UNL     1       6.866   4.835  14.823  0.00  0.00    +0.000 A 
ENDBRANCH  15  16
ENDBRANCH   7  15
TORSDOF 4
ENDMDL
MODEL 8
REMARK VINA RESULT:      -6.5      1.970      6.315
REMARK  Name = 
REMARK  4 active torsions:
REMARK  status: ('A' for Active; 'I' for Inactive)
REMARK    1  A    between atoms: C_2  and  C_3
REMARK    2  A    between atoms: C_11  and  O_12
REMARK    3  A    between atoms: C_13  and  C_14
REMARK    4  A    between atoms: C_14  and  C_15
REMARK                            x       y       z     vdW  Elec       q    Type
REMARK                         _______ _______ _______ _____ _____    ______ ____
ROOT
ATOM      1  O   UNL     1       5.719   6.642  15.385  0.00  0.00    +0.000 OA
ATOM      2  C   UNL     1       6.068   5.533  15.802  0.00  0.00    +0.000 C 
ATOM      3  N   UNL     1       5.654   5.078  17.038  0.00  0.00    +0.000 N 
ATOM      4  C   UNL     1       6.038   3.823  17.673  0.00  0.00    +0.000 C 
ATOM      5  C   UNL     1       5.203   3.757  18.944  0.00  0.00    +0.000 C 
ATOM      6  C   UNL     1       5.015   5.226  19.308  0.00  0.00    +0.000 C 
ATOM      7  C   UNL     1       4.839   5.914  17.935  0.00  0.00    +0.000 C 
ENDROOT
BRANCH   2   8
ATOM      8  C   UNL     1       6.954   4.584  14.962  0.00  0.00    +0.000 C 
ATOM      9  C   UNL     1       6.143   3.589  14.143  0.00  0.00    +0.000 C 
ATOM     10  C   UNL     1       5.962   4.315  12.834  0.00  0.00    +0.000 C 
ATOM     11  C   UNL     1       7.273   5.053  12.696  0.00  0.00    +0.000 C 
ATOM     12  O   UNL     1       7.750   5.324  14.022  0.00  0.00    +0.000 OA
ENDBRANCH   2   8
BRANCH   6  13
ATOM     13  O   UNL     1       6.200   5.690  19.968  0.00  0.00    +0.000 OA
ATOM     14  H   UNL     1       6.905   5.760  19.300  0.00  0.00    +0.000 HD
ENDBRANCH   6  13
BRANCH   7  15
ATOM     15  C   UNL     1       3.371   5.976  17.455  0.00  0.00    +0.000 C 
BRANCH  15  16
ATOM     16  C   UNL     1       2.434   5.228  18.373  0.00  0.00    +0.000 A 
ATOM     17  C   UNL     1       2.162   5.711  19.660  0.00  0.00    +0.000 A 
ATOM     18  C   UNL     1       1.426   4.942  20.560  0.00  0.00    +0.000 A 
ATOM     19  C   UNL     1       0.931   3.698  20.173  0.00  0.00    +0.000 A 
ATOM     20  C   UNL     1       1.150   3.234  18.877  0.00  0.00    +0.000 A 
ATOM     21  C   UNL     1       1.894   3.997  17.978  0.00  0.00    +0.000 A 
ENDBRANCH  15  16
ENDBRANCH   7  15
TORSDOF 4
ENDMDL
MODEL 9
REMARK VINA RESULT:      -6.4      4.181      5.469
REMARK  Name = 
REMARK  4 active torsions:
REMARK  status: ('A' for Active; 'I' for Inactive)
REMARK    1  A    between atoms: C_2  and  C_3
REMARK    2  A    between atoms: C_11  and  O_12
REMARK    3  A    between atoms: C_13  and  C_14
REMARK    4  A    between atoms: C_14  and  C_15
REMARK                            x       y       z     vdW  Elec       q    Type
REMARK                         _______ _______ _______ _____ _____    ______ ____
ROOT
ATOM      1  O   UNL     1       1.987   9.420  17.444  0.00  0.00    +0.000 OA
ATOM      2  C   UNL     1       1.795   8.907  18.551  0.00  0.00    +0.000 C 
ATOM      3  N   UNL     1       2.263   7.640  18.836  0.00  0.00    +0.000 N 
ATOM      4  C   UNL     1       2.055   6.896  20.072  0.00  0.00    +0.000 C 
ATOM      5  C   UNL     1       2.886   5.630  19.912  0.00  0.00    +0.000 C 
ATOM      6  C   UNL     1       2.865   5.396  18.406  0.00  0.00    +0.000 C 
ATOM      7  C   UNL     1       2.950   6.824  17.821  0.00  0.00    +0.000 C 
ENDROOT
BRANCH   2   8
ATOM      8  C   UNL     1       1.054   9.655  19.683  0.00  0.00    +0.000 C 
ATOM      9  C   UNL     1       1.280  11.160  19.643  0.00  0.00    +0.000 C 
ATOM     10  C   UNL     1       0.131  11.641  18.793  0.00  0.00    +0.000 C 
ATOM     11  C   UNL     1      -0.979  10.699  19.199  0.00  0.00    +0.000 C 
ATOM     12  O   UNL     1      -0.367   9.460  19.582  0.00  0.00    +0.000 OA
ENDBRANCH   2   8
BRANCH   6  13
ATOM     13  O   UNL     1       1.624   4.769  18.056  0.00  0.00    +0.000 OA
ATOM     14  H   UNL     1       1.567   4.742  17.085  0.00  0.00    +0.000 HD
ENDBRANCH   6  13
BRANCH   7  15
ATOM     15  C   UNL     1       4.397   7.319  17.596  0.00  0.00    +0.000 C 
BRANCH  15  16
ATOM     16  C   UNL     1       5.289   6.243  17.026  0.00  0.00    +0.000 A 
ATOM     17  C   UNL     1       6.265   5.630  17.824  0.00  0.00    +0.000 A 
ATOM     18  C   UNL     1       7.190   4.753  17.257  0.00  0.00    +0.000 A 
ATOM     19  C   UNL     1       7.129   4.460  15.896  0.00  0.00    +0.000 A 
ATOM     20  C   UNL     1       6.128   5.021  15.106  0.00  0.00    +0.000 A 
ATOM     21  C   UNL     1       5.208   5.906  15.668  0.00  0.00    +0.000 A 
ENDBRANCH  15  16
ENDBRANCH   7  15
TORSDOF 4
ENDMDL
