MODEL 1
REMARK VINA RESULT:      -7.1      0.000      0.000
REMARK  Name = 
REMARK  2 active torsions:
REMARK  status: ('A' for Active; 'I' for Inactive)
REMARK    1  A    between atoms: N_3  and  C_4
REMARK    2  A    between atoms: N_12  and  C_13
REMARK                            x       y       z     vdW  Elec       q    Type
REMARK                         _______ _______ _______ _____ _____    ______ ____
ROOT
ATOM      1  O   UNL     1       4.109   4.939  16.915  0.00  0.00    +0.000 OA
ATOM      2  C   UNL     1       4.881   4.107  17.378  0.00  0.00    +0.000 C 
ATOM      3  N   UNL     1       6.006   3.634  16.724  0.00  0.00    +0.000 N 
ATOM      4  N   UNL     1       4.704   3.495  18.605  0.00  0.00    +0.000 N 
ATOM      5  H   UNL     1       6.431   2.807  17.119  0.00  0.00    +0.000 HD
ATOM      6  H   UNL     1       5.525   3.165  19.093  0.00  0.00    +0.000 HD
ENDROOT
BRANCH   3   7
ATOM      7  C   UNL     1       6.416   4.005  15.420  0.00  0.00    +0.000 A 
ATOM      8  C   UNL     1       7.381   4.987  15.165  0.00  0.00    +0.000 A 
ATOM      9  C   UNL     1       7.696   5.362  13.857  0.00  0.00    +0.000 A 
ATOM     10  C   UNL     1       7.057   4.753  12.780  0.00  0.00    +0.000 A 
ATOM     11 CL   UNL     1       7.473   5.285  11.191  0.00  0.00    +0.000 Cl
ATOM     12  C   UNL     1       6.114   3.749  13.019  0.00  0.00    +0.000 A 
ATOM     13 CL   UNL     1       5.279   2.946  11.736  0.00  0.00    +0.000 Cl
ATOM     14  C   UNL     1       5.803   3.372  14.334  0.00  0.00    +0.000 A 
ENDBRANCH   3   7
BRANCH   4  15
ATOM     15  C   UNL     1       3.519   3.573  19.383  0.00  0.00    +0.000 A 
ATOM     16  C   UNL     1       3.167   4.702  20.131  0.00  0.00    +0.000 A 
ATOM     17  C   UNL     1       1.977   4.728  20.867  0.00  0.00    +0.000 A 
ATOM     18  C   UNL     1       1.123   3.628  20.858  0.00  0.00    +0.000 A 
ATOM     19  C   UNL     1       1.456   2.500  20.109  0.00  0.00    +0.000 A 
ATOM     20  C   UNL     1       2.642   2.484  19.376  0.00  0.00    +0.000 A 
ATOM     21  F   UNL     1       2.947   1.392  18.659  0.00  0.00    +0.000 F 
ENDBRANCH   4  15
TORSDOF 2
ENDMDL
MODEL 2
REMARK VINA RESULT:      -7.0      6.045      8.416
REMARK  Name = 
REMARK  2 active torsions:
REMARK  status: ('A' for Active; 'I' for Inactive)
REMARK    1  A    between atoms: N_3  and  C_4
REMARK    2  A    between atoms: N_12  and  C_13
REMARK                            x       y       z     vdW  Elec       q    Type
REMARK                         _______ _______ _______ _____ _____    ______ ____
ROOT
ATOM      1  O   UNL     1       1.637   5.907  20.896  0.00  0.00    +0.000 OA
ATOM      2  C   UNL     1       2.174   6.543  19.998  0.00  0.00    +0.000 C 
ATOM      3  N   UNL     1       2.030   7.907  19.810  0.00  0.00    +0.000 N 
ATOM      4  N   UNL     1       2.966   5.970  19.020  0.00  0.00    +0.000 N 
ATOM      5  H   UNL     1       2.349   8.266  18.921  0.00  0.00    +0.000 HD
ATOM      6  H   UNL     1       3.679   6.544  18.590  0.00  0.00    +0.000 HD
ENDROOT
BRANCH   3   7
ATOM      7  C   UNL     1       1.221   8.764  20.596  0.00  0.00    +0.000 A 
ATOM      8  C   UNL     1       1.208   8.743  21.995  0.00  0.00    +0.000 A 
ATOM      9  C   UNL     1       0.337   9.562  22.718  0.00  0.00    +0.000 A 
ATOM     10  C   UNL     1      -0.529  10.426  22.051  0.00  0.00    +0.000 A 
ATOM     11 CL   UNL     1      -1.597  11.389  23.004  0.00  0.00    +0.000 Cl
ATOM     12  C   UNL     1      -0.503  10.480  20.654  0.00  0.00    +0.000 A 
ATOM     13 CL   UNL     1      -1.545  11.526  19.754  0.00  0.00    +0.000 Cl
ATOM     14  C   UNL     1       0.376   9.658  19.932  0.00  0.00    +0.000 A 
ENDBRANCH   3   7
BRANCH   4  15
ATOM     15  C   UNL     1       3.085   4.574  18.791  0.00  0.00    +0.000 A 
ATOM     16  C   UNL     1       4.054   3.776  19.408  0.00  0.00    +0.000 A 
ATOM     17  C   UNL     1       4.112   2.401  19.157  0.00  0.00    +0.000 A 
ATOM     18  C   UNL     1       3.197   1.807  18.290  0.00  0.00    +0.000 A 
ATOM     19  C   UNL     1       2.220   2.588  17.676  0.00  0.00    +0.000 A 
ATOM     20  C   UNL     1       2.166   3.957  17.935  0.00  0.00    +0.000 A 
ATOM     21  F   UNL     1       1.218   4.695  17.337  0.00  0.00    +0.000 F 
ENDBRANCH   4  15
TORSDOF 2
ENDMDL
MODEL 3
REMARK VINA RESULT:      -7.0      1.056      1.527
REMARK  Name = 
REMARK  2 active torsions:
REMARK  status: ('A' for Active; 'I' for Inactive)
REMARK    1  A    between atoms: N_3  and  C_4
REMARK    2  A    between atoms: N_12  and  C_13
REMARK                            x       y       z     vdW  Elec       q    Type
REMARK                         _______ _______ _______ _____ _____    ______ ____
ROOT
ATOM      1  O   UNL     1       4.036   4.855  16.821  0.00  0.00    +0.000 OA
ATOM      2  C   UNL     1       4.806   4.025  17.288  0.00  0.00    +0.000 C 
ATOM      3  N   UNL     1       5.944   3.565  16.648  0.00  0.00    +0.000 N 
ATOM      4  N   UNL     1       4.616   3.402  18.508  0.00  0.00    +0.000 N 
ATOM      5  H   UNL     1       6.369   2.738  17.042  0.00  0.00    +0.000 HD
ATOM      6  H   UNL     1       5.432   3.073  19.005  0.00  0.00    +0.000 HD
ENDROOT
BRANCH   3   7
ATOM      7  C   UNL     1       6.370   3.950  15.353  0.00  0.00    +0.000 A 
ATOM      8  C   UNL     1       7.332   4.941  15.121  0.00  0.00    +0.000 A 
ATOM      9  C   UNL     1       7.663   5.329  13.821  0.00  0.00    +0.000 A 
ATOM     10  C   UNL     1       7.045   4.724  12.729  0.00  0.00    +0.000 A 
ATOM     11 CL   UNL     1       7.482   5.272  11.151  0.00  0.00    +0.000 Cl
ATOM     12  C   UNL     1       6.107   3.710  12.946  0.00  0.00    +0.000 A 
ATOM     13 CL   UNL     1       5.298   2.911  11.643  0.00  0.00    +0.000 Cl
ATOM     14  C   UNL     1       5.780   3.320  14.253  0.00  0.00    +0.000 A 
ENDBRANCH   3   7
BRANCH   4  15
ATOM     15  C   UNL     1       3.419   3.465  19.269  0.00  0.00    +0.000 A 
ATOM     16  C   UNL     1       2.491   2.420  19.326  0.00  0.00    +0.000 A 
ATOM     17  C   UNL     1       1.336   2.532  20.108  0.00  0.00    +0.000 A 
ATOM     18  C   UNL     1       1.100   3.688  20.847  0.00  0.00    +0.000 A 
ATOM     19  C   UNL     1       2.021   4.734  20.809  0.00  0.00    +0.000 A 
ATOM     20  C   UNL     1       3.171   4.612  20.030  0.00  0.00    +0.000 A 
ATOM     21  F   UNL     1       4.049   5.627  20.005  0.00  0.00    +0.000 F 
ENDBRANCH   4  15
TORSDOF 2
ENDMDL
MODEL 4
REMARK VINA RESULT:      -6.8      6.248      8.649
REMARK  Name = 
REMARK  2 active torsions:
REMARK  status: ('A' for Active; 'I' for Inactive)
REMARK    1  A    between atoms: N_3  and  C_4
REMARK    2  A    between atoms: N_12  and  C_13
REMARK                            x       y       z     vdW  Elec       q    Type
REMARK                         _______ _______ _______ _____ _____    ______ ____
ROOT
ATOM      1  O   UNL     1       1.644   6.165  20.751  0.00  0.00    +0.000 OA
ATOM      2  C   UNL     1       2.107   6.863  19.857  0.00  0.00    +0.000 C 
ATOM      3  N   UNL     1       1.896   8.226  19.739  0.00  0.00    +0.000 N 
ATOM      4  N   UNL     1       2.872   6.370  18.816  0.00  0.00    +0.000 N 
ATOM      5  H   UNL     1       2.153   8.638  18.854  0.00  0.00    +0.000 HD
ATOM      6  H   UNL     1       3.536   6.994  18.379  0.00  0.00    +0.000 HD
ENDROOT
BRANCH   3   7
ATOM      7  C   UNL     1       1.091   9.011  20.602  0.00  0.00    +0.000 A 
ATOM      8  C   UNL     1       1.092   8.872  21.995  0.00  0.00    +0.000 A 
ATOM      9  C   UNL     1       0.227   9.624  22.793  0.00  0.00    +0.000 A 
ATOM     10  C   UNL     1      -0.648  10.537  22.209  0.00  0.00    +0.000 A 
ATOM     11 CL   UNL     1      -1.710  11.413  23.251  0.00  0.00    +0.000 Cl
ATOM     12  C   UNL     1      -0.637  10.709  20.822  0.00  0.00    +0.000 A 
ATOM     13 CL   UNL     1      -1.692  11.823  20.024  0.00  0.00    +0.000 Cl
ATOM     14  C   UNL     1       0.237   9.955  20.025  0.00  0.00    +0.000 A 
ENDBRANCH   3   7
BRANCH   4  15
ATOM     15  C   UNL     1       3.038   4.992  18.517  0.00  0.00    +0.000 A 
ATOM     16  C   UNL     1       2.121   4.257  17.758  0.00  0.00    +0.000 A 
ATOM     17  C   UNL     1       2.346   2.904  17.480  0.00  0.00    +0.000 A 
ATOM     18  C   UNL     1       3.493   2.273  17.955  0.00  0.00    +0.000 A 
ATOM     19  C   UNL     1       4.421   2.995  18.703  0.00  0.00    +0.000 A 
ATOM     20  C   UNL     1       4.191   4.344  18.972  0.00  0.00    +0.000 A 
ATOM     21  F   UNL     1       5.094   5.026  19.693  0.00  0.00    +0.000 F 
ENDBRANCH   4  15
TORSDOF 2
ENDMDL
MODEL 5
REMARK VINA RESULT:      -6.7      6.213      8.161
REMARK  Name = 
REMARK  2 active torsions:
REMARK  status: ('A' for Active; 'I' for Inactive)
REMARK    1  A    between atoms: N_3  and  C_4
REMARK    2  A    between atoms: N_12  and  C_13
REMARK                            x       y       z     vdW  Elec       q    Type
REMARK                         _______ _______ _______ _____ _____    ______ ____
ROOT
ATOM      1  O   UNL     1       1.519   5.808  20.463  0.00  0.00    +0.000 OA
ATOM      2  C   UNL     1       2.295   6.374  19.703  0.00  0.00    +0.000 C 
ATOM      3  N   UNL     1       2.280   7.733  19.439  0.00  0.00    +0.000 N 
ATOM      4  N   UNL     1       3.266   5.719  18.968  0.00  0.00    +0.000 N 
ATOM      5  H   UNL     1       2.825   8.034  18.643  0.00  0.00    +0.000 HD
ATOM      6  H   UNL     1       4.094   6.237  18.707  0.00  0.00    +0.000 HD
ENDROOT
BRANCH   3   7
ATOM      7  C   UNL     1       1.355   8.664  19.972  0.00  0.00    +0.000 A 
ATOM      8  C   UNL     1       0.693   9.623  19.197  0.00  0.00    +0.000 A 
ATOM      9  C   UNL     1      -0.156  10.562  19.787  0.00  0.00    +0.000 A 
ATOM     10  C   UNL     1      -0.365  10.550  21.165  0.00  0.00    +0.000 A 
ATOM     11 CL   UNL     1      -1.404  11.757  21.831  0.00  0.00    +0.000 Cl
ATOM     12  C   UNL     1       0.265   9.577  21.947  0.00  0.00    +0.000 A 
ATOM     13 CL   UNL     1       0.056   9.497  23.661  0.00  0.00    +0.000 Cl
ATOM     14  C   UNL     1       1.114   8.633  21.349  0.00  0.00    +0.000 A 
ENDBRANCH   3   7
BRANCH   4  15
ATOM     15  C   UNL     1       3.355   4.309  18.823  0.00  0.00    +0.000 A 
ATOM     16  C   UNL     1       4.262   3.521  19.539  0.00  0.00    +0.000 A 
ATOM     17  C   UNL     1       4.293   2.132  19.368  0.00  0.00    +0.000 A 
ATOM     18  C   UNL     1       3.413   1.516  18.481  0.00  0.00    +0.000 A 
ATOM     19  C   UNL     1       2.497   2.288  17.768  0.00  0.00    +0.000 A 
ATOM     20  C   UNL     1       2.470   3.670  17.948  0.00  0.00    +0.000 A 
ATOM     21  F   UNL     1       1.581   4.399  17.255  0.00  0.00    +0.000 F 
ENDBRANCH   4  15
TORSDOF 2
ENDMDL
MODEL 6
REMARK VINA RESULT:      -6.7      5.766      8.267
REMARK  Name = 
REMARK  2 active torsions:
REMARK  status: ('A' for Active; 'I' for Inactive)
REMARK    1  A    between atoms: N_3  and  C_4
REMARK    2  A    between atoms: N_12  and  C_13
REMARK                            x       y       z     vdW  Elec       q    Type
REMARK                         _______ _______ _______ _____ _____    ______ ____
ROOT
ATOM      1  O   UNL     1       3.279   7.406  17.806  0.00  0.00    +0.000 OA
ATOM      2  C   UNL     1       3.197   6.639  18.757  0.00  0.00    +0.000 C 
ATOM      3  N   UNL     1       2.435   6.875  19.889  0.00  0.00    +0.000 N 
ATOM      4  N   UNL     1       3.893   5.448  18.846  0.00  0.00    +0.000 N 
ATOM      5  H   UNL     1       2.619   6.273  20.679  0.00  0.00    +0.000 HD
ATOM      6  H   UNL     1       3.495   4.706  19.406  0.00  0.00    +0.000 HD
ENDROOT
BRANCH   3   7
ATOM      7  C   UNL     1       1.670   8.042  20.136  0.00  0.00    +0.000 A 
ATOM      8  C   UNL     1       1.422   9.021  19.167  0.00  0.00    +0.000 A 
ATOM      9  C   UNL     1       0.721  10.186  19.486  0.00  0.00    +0.000 A 
ATOM     10  C   UNL     1       0.244  10.385  20.780  0.00  0.00    +0.000 A 
ATOM     11 CL   UNL     1      -0.590  11.860  21.112  0.00  0.00    +0.000 Cl
ATOM     12  C   UNL     1       0.456   9.400  21.749  0.00  0.00    +0.000 A 
ATOM     13 CL   UNL     1      -0.105   9.574  23.376  0.00  0.00    +0.000 Cl
ATOM     14  C   UNL     1       1.158   8.230  21.424  0.00  0.00    +0.000 A 
ENDBRANCH   3   7
BRANCH   4  15
ATOM     15  C   UNL     1       4.945   5.061  17.976  0.00  0.00    +0.000 A 
ATOM     16  C   UNL     1       4.731   4.600  16.672  0.00  0.00    +0.000 A 
ATOM     17  C   UNL     1       5.809   4.248  15.853  0.00  0.00    +0.000 A 
ATOM     18  C   UNL     1       7.115   4.359  16.326  0.00  0.00    +0.000 A 
ATOM     19  C   UNL     1       7.344   4.826  17.619  0.00  0.00    +0.000 A 
ATOM     20  C   UNL     1       6.264   5.178  18.427  0.00  0.00    +0.000 A 
ATOM     21  F   UNL     1       6.502   5.628  19.669  0.00  0.00    +0.000 F 
ENDBRANCH   4  15
TORSDOF 2
ENDMDL
MODEL 7
REMARK VINA RESULT:      -6.7      6.453      8.231
REMARK  Name = 
REMARK  2 active torsions:
REMARK  status: ('A' for Active; 'I' for Inactive)
REMARK    1  A    between atoms: N_3  and  C_4
REMARK    2  A    between atoms: N_12  and  C_13
REMARK                            x       y       z     vdW  Elec       q    Type
REMARK                         _______ _______ _______ _____ _____    ______ ____
ROOT
ATOM      1  O   UNL     1       0.314   9.033  19.741  0.00  0.00    +0.000 OA
ATOM      2  C   UNL     1       1.066   8.951  20.704  0.00  0.00    +0.000 C 
ATOM      3  N   UNL     1       1.956   7.912  20.916  0.00  0.00    +0.000 N 
ATOM      4  N   UNL     1       1.094   9.870  21.737  0.00  0.00    +0.000 N 
ATOM      5  H   UNL     1       2.358   7.856  21.841  0.00  0.00    +0.000 HD
ATOM      6  H   UNL     1       1.959   9.982  22.249  0.00  0.00    +0.000 HD
ENDROOT
BRANCH   3   7
ATOM      7  C   UNL     1       2.108   6.777  20.082  0.00  0.00    +0.000 A 
ATOM      8  C   UNL     1       2.683   6.830  18.806  0.00  0.00    +0.000 A 
ATOM      9  C   UNL     1       2.744   5.692  17.998  0.00  0.00    +0.000 A 
ATOM     10  C   UNL     1       2.241   4.477  18.458  0.00  0.00    +0.000 A 
ATOM     11 CL   UNL     1       2.323   3.118  17.397  0.00  0.00    +0.000 Cl
ATOM     12  C   UNL     1       1.693   4.403  19.743  0.00  0.00    +0.000 A 
ATOM     13 CL   UNL     1       1.049   2.933  20.385  0.00  0.00    +0.000 Cl
ATOM     14  C   UNL     1       1.637   5.548  20.553  0.00  0.00    +0.000 A 
ENDBRANCH   3   7
BRANCH   4  15
ATOM     15  C   UNL     1       0.128  10.891  21.936  0.00  0.00    +0.000 A 
ATOM     16  C   UNL     1       0.115  12.086  21.209  0.00  0.00    +0.000 A 
ATOM     17  C   UNL     1      -0.873  13.050  21.437  0.00  0.00    +0.000 A 
ATOM     18  C   UNL     1      -1.863  12.827  22.391  0.00  0.00    +0.000 A 
ATOM     19  C   UNL     1      -1.869  11.636  23.116  0.00  0.00    +0.000 A 
ATOM     20  C   UNL     1      -0.883  10.679  22.879  0.00  0.00    +0.000 A 
ATOM     21  F   UNL     1      -0.903   9.537  23.585  0.00  0.00    +0.000 F 
ENDBRANCH   4  15
TORSDOF 2
ENDMDL
MODEL 8
REMARK VINA RESULT:      -6.6      6.382      8.180
REMARK  Name = 
REMARK  2 active torsions:
REMARK  status: ('A' for Active; 'I' for Inactive)
REMARK    1  A    between atoms: N_3  and  C_4
REMARK    2  A    between atoms: N_12  and  C_13
REMARK                            x       y       z     vdW  Elec       q    Type
REMARK                         _______ _______ _______ _____ _____    ______ ____
ROOT
ATOM      1  O   UNL     1       0.506   8.992  19.841  0.00  0.00    +0.000 OA
ATOM      2  C   UNL     1       1.119   8.767  20.877  0.00  0.00    +0.000 C 
ATOM      3  N   UNL     1       1.924   7.661  21.085  0.00  0.00    +0.000 N 
ATOM      4  N   UNL     1       1.052   9.572  21.999  0.00  0.00    +0.000 N 
ATOM      5  H   UNL     1       2.197   7.487  22.042  0.00  0.00    +0.000 HD
ATOM      6  H   UNL     1       1.845   9.580  22.626  0.00  0.00    +0.000 HD
ENDROOT
BRANCH   3   7
ATOM      7  C   UNL     1       2.134   6.611  20.158  0.00  0.00    +0.000 A 
ATOM      8  C   UNL     1       2.832   6.773  18.955  0.00  0.00    +0.000 A 
ATOM      9  C   UNL     1       2.948   5.719  18.045  0.00  0.00    +0.000 A 
ATOM     10  C   UNL     1       2.377   4.481  18.329  0.00  0.00    +0.000 A 
ATOM     11 CL   UNL     1       2.535   3.232  17.148  0.00  0.00    +0.000 Cl
ATOM     12  C   UNL     1       1.705   4.296  19.541  0.00  0.00    +0.000 A 
ATOM     13 CL   UNL     1       0.970   2.790  19.966  0.00  0.00    +0.000 Cl
ATOM     14  C   UNL     1       1.594   5.356  20.455  0.00  0.00    +0.000 A 
ENDBRANCH   3   7
BRANCH   4  15
ATOM     15  C   UNL     1       0.115  10.623  22.185  0.00  0.00    +0.000 A 
ATOM     16  C   UNL     1      -0.995  10.519  23.030  0.00  0.00    +0.000 A 
ATOM     17  C   UNL     1      -1.876  11.595  23.187  0.00  0.00    +0.000 A 
ATOM     18  C   UNL     1      -1.653  12.789  22.505  0.00  0.00    +0.000 A 
ATOM     19  C   UNL     1      -0.546  12.910  21.667  0.00  0.00    +0.000 A 
ATOM     20  C   UNL     1       0.329  11.835  21.520  0.00  0.00    +0.000 A 
ATOM     21  F   UNL     1       1.392  11.968  20.710  0.00  0.00    +0.000 F 
ENDBRANCH   4  15
TORSDOF 2
ENDMDL
MODEL 9
REMARK VINA RESULT:      -6.6      6.303      7.997
REMARK  Name = 
REMARK  2 active torsions:
REMARK  status: ('A' for Active; 'I' for Inactive)
REMARK    1  A    between atoms: N_3  and  C_4
REMARK    2  A    between atoms: N_12  and  C_13
REMARK                            x       y       z     vdW  Elec       q    Type
REMARK                         _______ _______ _______ _____ _____    ______ ____
ROOT
ATOM      1  O   UNL     1       7.485   9.042  17.696  0.00  0.00    +0.000 OA
ATOM      2  C   UNL     1       8.299   8.500  18.433  0.00  0.00    +0.000 C 
ATOM      3  N   UNL     1       8.268   7.162  18.784  0.00  0.00    +0.000 N 
ATOM      4  N   UNL     1       9.340   9.168  19.051  0.00  0.00    +0.000 N 
ATOM      5  H   UNL     1       8.862   6.893  19.556  0.00  0.00    +0.000 HD
ATOM      6  H   UNL     1      10.170   8.641  19.285  0.00  0.00    +0.000 HD
ENDROOT
BRANCH   3   7
ATOM      7  C   UNL     1       7.280   6.229  18.381  0.00  0.00    +0.000 A 
ATOM      8  C   UNL     1       6.405   5.598  19.273  0.00  0.00    +0.000 A 
ATOM      9  C   UNL     1       5.498   4.633  18.827  0.00  0.00    +0.000 A 
ATOM     10  C   UNL     1       5.444   4.292  17.478  0.00  0.00    +0.000 A 
ATOM     11 CL   UNL     1       4.319   3.072  17.001  0.00  0.00    +0.000 Cl
ATOM     12  C   UNL     1       6.290   4.938  16.571  0.00  0.00    +0.000 A 
ATOM     13 CL   UNL     1       6.281   4.571  14.882  0.00  0.00    +0.000 Cl
ATOM     14  C   UNL     1       7.197   5.909  17.022  0.00  0.00    +0.000 A 
ENDBRANCH   3   7
BRANCH   4  15
ATOM     15  C   UNL     1       9.478  10.581  19.099  0.00  0.00    +0.000 A 
ATOM     16  C   UNL     1       9.680  11.369  17.961  0.00  0.00    +0.000 A 
ATOM     17  C   UNL     1       9.792  12.760  18.067  0.00  0.00    +0.000 A 
ATOM     18  C   UNL     1       9.697  13.378  19.311  0.00  0.00    +0.000 A 
ATOM     19  C   UNL     1       9.485  12.606  20.452  0.00  0.00    +0.000 A 
ATOM     20  C   UNL     1       9.371  11.221  20.337  0.00  0.00    +0.000 A 
ATOM     21  F   UNL     1       9.166  10.492  21.446  0.00  0.00    +0.000 F 
ENDBRANCH   4  15
TORSDOF 2
ENDMDL
