MODEL 1
REMARK VINA RESULT:      -6.1      0.000      0.000
REMARK  Name = 
REMARK  5 active torsions:
REMARK  status: ('A' for Active; 'I' for Inactive)
REMARK    1  A    between atoms: C_1  and  C_2
REMARK    2  A    between atoms: C_2  and  C_5
REMARK    3  A    between atoms: N_3  and  O_4
REMARK    4  A    between atoms: C_8  and  C_9
REMARK    5  A    between atoms: C_9  and  O_11
REMARK                            x       y       z     vdW  Elec       q    Type
REMARK                         _______ _______ _______ _____ _____    ______ ____
ROOT
ATOM      1  C   UNL     1       3.359   4.319  18.767  0.00  0.00    +0.000 A 
ATOM      2  C   UNL     1       3.587   3.848  17.468  0.00  0.00    +0.000 A 
ATOM      3  C   UNL     1       4.825   4.052  16.848  0.00  0.00    +0.000 A 
ATOM      4  C   UNL     1       5.851   4.728  17.518  0.00  0.00    +0.000 A 
ATOM      5  C   UNL     1       5.622   5.230  18.803  0.00  0.00    +0.000 A 
ATOM      6  C   UNL     1       4.384   5.018  19.424  0.00  0.00    +0.000 A 
ENDROOT
BRANCH   1   8
ATOM      7  C   UNL     1       1.645   5.100  20.542  0.00  0.00    +0.000 C 
ATOM      8  C   UNL     1       2.044   4.104  19.467  0.00  0.00    +0.000 C 
ATOM      9  N   UNL     1       1.314   3.083  19.117  0.00  0.00    +0.000 NA
BRANCH   9  10
ATOM     10  O   UNL     1       0.125   3.005  19.846  0.00  0.00    +0.000 OA
ATOM     11  H   UNL     1       0.362   2.401  20.574  0.00  0.00    +0.000 HD
ENDBRANCH   9  10
ENDBRANCH   1   8
BRANCH   4  12
ATOM     12  C   UNL     1       7.138   4.920  16.799  0.00  0.00    +0.000 C 
ATOM     13  O   UNL     1       7.261   5.688  15.862  0.00  0.00    +0.000 OA
BRANCH  12  14
ATOM     14  O   UNL     1       8.141   4.133  17.242  0.00  0.00    +0.000 OA
ATOM     15  H   UNL     1       8.215   3.264  16.809  0.00  0.00    +0.000 HD
ENDBRANCH  12  14
ENDBRANCH   4  12
TORSDOF 4
ENDMDL
MODEL 2
REMARK VINA RESULT:      -6.0      1.006      1.774
REMARK  Name = 
REMARK  5 active torsions:
REMARK  status: ('A' for Active; 'I' for Inactive)
REMARK    1  A    between atoms: C_1  and  C_2
REMARK    2  A    between atoms: C_2  and  C_5
REMARK    3  A    between atoms: N_3  and  O_4
REMARK    4  A    between atoms: C_8  and  C_9
REMARK    5  A    between atoms: C_9  and  O_11
REMARK                            x       y       z     vdW  Elec       q    Type
REMARK                         _______ _______ _______ _____ _____    ______ ____
ROOT
ATOM      1  C   UNL     1       3.442   3.661  18.710  0.00  0.00    +0.000 A 
ATOM      2  C   UNL     1       4.542   4.114  19.449  0.00  0.00    +0.000 A 
ATOM      3  C   UNL     1       5.717   4.509  18.799  0.00  0.00    +0.000 A 
ATOM      4  C   UNL     1       5.808   4.458  17.404  0.00  0.00    +0.000 A 
ATOM      5  C   UNL     1       4.726   3.977  16.660  0.00  0.00    +0.000 A 
ATOM      6  C   UNL     1       3.548   3.589  17.312  0.00  0.00    +0.000 A 
ENDROOT
BRANCH   1   8
ATOM      7  C   UNL     1       1.066   2.657  18.501  0.00  0.00    +0.000 C 
ATOM      8  C   UNL     1       2.160   3.242  19.377  0.00  0.00    +0.000 C 
ATOM      9  N   UNL     1       2.051   3.396  20.667  0.00  0.00    +0.000 NA
BRANCH   9  10
ATOM     10  O   UNL     1       0.814   2.968  21.151  0.00  0.00    +0.000 OA
ATOM     11  H   UNL     1       0.938   3.008  22.118  0.00  0.00    +0.000 HD
ENDBRANCH   9  10
ENDBRANCH   1   8
BRANCH   4  12
ATOM     12  C   UNL     1       7.087   4.883  16.777  0.00  0.00    +0.000 C 
ATOM     13  O   UNL     1       7.155   5.791  15.969  0.00  0.00    +0.000 OA
BRANCH  12  14
ATOM     14  O   UNL     1       8.154   4.142  17.143  0.00  0.00    +0.000 OA
ATOM     15  H   UNL     1       8.280   3.313  16.647  0.00  0.00    +0.000 HD
ENDBRANCH  12  14
ENDBRANCH   4  12
TORSDOF 4
ENDMDL
MODEL 3
REMARK VINA RESULT:      -6.0      0.460      1.657
REMARK  Name = 
REMARK  5 active torsions:
REMARK  status: ('A' for Active; 'I' for Inactive)
REMARK    1  A    between atoms: C_1  and  C_2
REMARK    2  A    between atoms: C_2  and  C_5
REMARK    3  A    between atoms: N_3  and  O_4
REMARK    4  A    between atoms: C_8  and  C_9
REMARK    5  A    between atoms: C_9  and  O_11
REMARK                            x       y       z     vdW  Elec       q    Type
REMARK                         _______ _______ _______ _____ _____    ______ ____
ROOT
ATOM      1  C   UNL     1       3.330   3.959  18.543  0.00  0.00    +0.000 A 
ATOM      2  C   UNL     1       4.393   4.415  19.331  0.00  0.00    +0.000 A 
ATOM      3  C   UNL     1       5.642   4.676  18.755  0.00  0.00    +0.000 A 
ATOM      4  C   UNL     1       5.843   4.486  17.383  0.00  0.00    +0.000 A 
ATOM      5  C   UNL     1       4.796   4.001  16.593  0.00  0.00    +0.000 A 
ATOM      6  C   UNL     1       3.545   3.747  17.171  0.00  0.00    +0.000 A 
ENDROOT
BRANCH   1   8
ATOM      7  C   UNL     1       1.505   4.564  20.275  0.00  0.00    +0.000 C 
ATOM      8  C   UNL     1       1.972   3.682  19.130  0.00  0.00    +0.000 C 
ATOM      9  N   UNL     1       1.265   2.709  18.628  0.00  0.00    +0.000 NA
BRANCH   9  10
ATOM     10  O   UNL     1       0.032   2.564  19.266  0.00  0.00    +0.000 OA
ATOM     11  H   UNL     1      -0.201   1.637  19.072  0.00  0.00    +0.000 HD
ENDBRANCH   9  10
ENDBRANCH   1   8
BRANCH   4  12
ATOM     12  C   UNL     1       7.195   4.772  16.836  0.00  0.00    +0.000 C 
ATOM     13  O   UNL     1       8.201   4.219  17.243  0.00  0.00    +0.000 OA
BRANCH  12  14
ATOM     14  O   UNL     1       7.216   5.732  15.887  0.00  0.00    +0.000 OA
ATOM     15  H   UNL     1       7.603   6.583  16.160  0.00  0.00    +0.000 HD
ENDBRANCH  12  14
ENDBRANCH   4  12
TORSDOF 4
ENDMDL
MODEL 4
REMARK VINA RESULT:      -6.0      2.909      5.700
REMARK  Name = 
REMARK  5 active torsions:
REMARK  status: ('A' for Active; 'I' for Inactive)
REMARK    1  A    between atoms: C_1  and  C_2
REMARK    2  A    between atoms: C_2  and  C_5
REMARK    3  A    between atoms: N_3  and  O_4
REMARK    4  A    between atoms: C_8  and  C_9
REMARK    5  A    between atoms: C_9  and  O_11
REMARK                            x       y       z     vdW  Elec       q    Type
REMARK                         _______ _______ _______ _____ _____    ______ ____
ROOT
ATOM      1  C   UNL     1       5.278   5.000  16.202  0.00  0.00    +0.000 A 
ATOM      2  C   UNL     1       4.688   3.849  16.737  0.00  0.00    +0.000 A 
ATOM      3  C   UNL     1       3.754   3.948  17.775  0.00  0.00    +0.000 A 
ATOM      4  C   UNL     1       3.397   5.199  18.290  0.00  0.00    +0.000 A 
ATOM      5  C   UNL     1       4.004   6.353  17.783  0.00  0.00    +0.000 A 
ATOM      6  C   UNL     1       4.933   6.251  16.739  0.00  0.00    +0.000 A 
ENDROOT
BRANCH   1   8
ATOM      7  C   UNL     1       5.968   3.990  13.921  0.00  0.00    +0.000 C 
ATOM      8  C   UNL     1       6.274   4.928  15.077  0.00  0.00    +0.000 C 
ATOM      9  N   UNL     1       7.343   5.671  15.144  0.00  0.00    +0.000 NA
BRANCH   9  10
ATOM     10  O   UNL     1       8.178   5.504  14.038  0.00  0.00    +0.000 OA
ATOM     11  H   UNL     1       9.063   5.668  14.413  0.00  0.00    +0.000 HD
ENDBRANCH   9  10
ENDBRANCH   1   8
BRANCH   4  12
ATOM     12  C   UNL     1       2.407   5.235  19.399  0.00  0.00    +0.000 C 
ATOM     13  O   UNL     1       1.505   4.425  19.501  0.00  0.00    +0.000 OA
BRANCH  12  14
ATOM     14  O   UNL     1       2.567   6.270  20.249  0.00  0.00    +0.000 OA
ATOM     15  H   UNL     1       2.415   6.068  21.190  0.00  0.00    +0.000 HD
ENDBRANCH  12  14
ENDBRANCH   4  12
TORSDOF 4
ENDMDL
MODEL 5
REMARK VINA RESULT:      -6.0      3.034      5.811
REMARK  Name = 
REMARK  5 active torsions:
REMARK  status: ('A' for Active; 'I' for Inactive)
REMARK    1  A    between atoms: C_1  and  C_2
REMARK    2  A    between atoms: C_2  and  C_5
REMARK    3  A    between atoms: N_3  and  O_4
REMARK    4  A    between atoms: C_8  and  C_9
REMARK    5  A    between atoms: C_9  and  O_11
REMARK                            x       y       z     vdW  Elec       q    Type
REMARK                         _______ _______ _______ _____ _____    ______ ____
ROOT
ATOM      1  C   UNL     1       5.331   5.032  16.014  0.00  0.00    +0.000 A 
ATOM      2  C   UNL     1       4.985   6.274  16.559  0.00  0.00    +0.000 A 
ATOM      3  C   UNL     1       4.085   6.353  17.628  0.00  0.00    +0.000 A 
ATOM      4  C   UNL     1       3.521   5.192  18.168  0.00  0.00    +0.000 A 
ATOM      5  C   UNL     1       3.836   3.949  17.609  0.00  0.00    +0.000 A 
ATOM      6  C   UNL     1       4.743   3.872  16.544  0.00  0.00    +0.000 A 
ENDROOT
BRANCH   1   8
ATOM      7  C   UNL     1       5.945   3.978  13.732  0.00  0.00    +0.000 C 
ATOM      8  C   UNL     1       6.306   4.912  14.874  0.00  0.00    +0.000 C 
ATOM      9  N   UNL     1       7.403   5.614  14.918  0.00  0.00    +0.000 NA
BRANCH   9  10
ATOM     10  O   UNL     1       8.213   5.406  13.800  0.00  0.00    +0.000 OA
ATOM     11  H   UNL     1       8.781   4.666  14.084  0.00  0.00    +0.000 HD
ENDBRANCH   9  10
ENDBRANCH   1   8
BRANCH   4  12
ATOM     12  C   UNL     1       2.565   5.346  19.295  0.00  0.00    +0.000 C 
ATOM     13  O   UNL     1       1.612   4.606  19.455  0.00  0.00    +0.000 OA
BRANCH  12  14
ATOM     14  O   UNL     1       2.818   6.404  20.093  0.00  0.00    +0.000 OA
ATOM     15  H   UNL     1       3.497   6.262  20.777  0.00  0.00    +0.000 HD
ENDBRANCH  12  14
ENDBRANCH   4  12
TORSDOF 4
ENDMDL
MODEL 6
REMARK VINA RESULT:      -6.0      2.330      5.716
REMARK  Name = 
REMARK  5 active torsions:
REMARK  status: ('A' for Active; 'I' for Inactive)
REMARK    1  A    between atoms: C_1  and  C_2
REMARK    2  A    between atoms: C_2  and  C_5
REMARK    3  A    between atoms: N_3  and  O_4
REMARK    4  A    between atoms: C_8  and  C_9
REMARK    5  A    between atoms: C_9  and  O_11
REMARK                            x       y       z     vdW  Elec       q    Type
REMARK                         _______ _______ _______ _____ _____    ______ ____
ROOT
ATOM      1  C   UNL     1       4.325   4.858  17.132  0.00  0.00    +0.000 A 
ATOM      2  C   UNL     1       3.392   5.641  17.822  0.00  0.00    +0.000 A 
ATOM      3  C   UNL     1       2.281   5.047  18.433  0.00  0.00    +0.000 A 
ATOM      4  C   UNL     1       2.089   3.663  18.362  0.00  0.00    +0.000 A 
ATOM      5  C   UNL     1       2.998   2.876  17.648  0.00  0.00    +0.000 A 
ATOM      6  C   UNL     1       4.114   3.473  17.044  0.00  0.00    +0.000 A 
ENDROOT
BRANCH   1   8
ATOM      7  C   UNL     1       5.693   5.284  14.978  0.00  0.00    +0.000 C 
ATOM      8  C   UNL     1       5.537   5.464  16.478  0.00  0.00    +0.000 C 
ATOM      9  N   UNL     1       6.386   6.114  17.223  0.00  0.00    +0.000 NA
BRANCH   9  10
ATOM     10  O   UNL     1       7.459   6.620  16.488  0.00  0.00    +0.000 OA
ATOM     11  H   UNL     1       8.139   5.930  16.600  0.00  0.00    +0.000 HD
ENDBRANCH   9  10
ENDBRANCH   1   8
BRANCH   4  12
ATOM     12  C   UNL     1       0.884   3.097  19.022  0.00  0.00    +0.000 C 
ATOM     13  O   UNL     1       0.227   2.197  18.532  0.00  0.00    +0.000 OA
BRANCH  12  14
ATOM     14  O   UNL     1       0.555   3.700  20.184  0.00  0.00    +0.000 OA
ATOM     15  H   UNL     1       1.283   4.163  20.637  0.00  0.00    +0.000 HD
ENDBRANCH  12  14
ENDBRANCH   4  12
TORSDOF 4
ENDMDL
MODEL 7
REMARK VINA RESULT:      -6.0      2.295      5.623
REMARK  Name = 
REMARK  5 active torsions:
REMARK  status: ('A' for Active; 'I' for Inactive)
REMARK    1  A    between atoms: C_1  and  C_2
REMARK    2  A    between atoms: C_2  and  C_5
REMARK    3  A    between atoms: N_3  and  O_4
REMARK    4  A    between atoms: C_8  and  C_9
REMARK    5  A    between atoms: C_9  and  O_11
REMARK                            x       y       z     vdW  Elec       q    Type
REMARK                         _______ _______ _______ _____ _____    ______ ____
ROOT
ATOM      1  C   UNL     1       4.331   4.716  17.136  0.00  0.00    +0.000 A 
ATOM      2  C   UNL     1       4.089   3.338  17.094  0.00  0.00    +0.000 A 
ATOM      3  C   UNL     1       2.955   2.799  17.712  0.00  0.00    +0.000 A 
ATOM      4  C   UNL     1       2.048   3.630  18.379  0.00  0.00    +0.000 A 
ATOM      5  C   UNL     1       2.298   5.004  18.453  0.00  0.00    +0.000 A 
ATOM      6  C   UNL     1       3.430   5.542  17.827  0.00  0.00    +0.000 A 
ENDROOT
BRANCH   1   8
ATOM      7  C   UNL     1       5.703   5.107  14.976  0.00  0.00    +0.000 C 
ATOM      8  C   UNL     1       5.534   5.328  16.470  0.00  0.00    +0.000 C 
ATOM      9  N   UNL     1       6.366   6.017  17.200  0.00  0.00    +0.000 NA
BRANCH   9  10
ATOM     10  O   UNL     1       7.432   6.524  16.455  0.00  0.00    +0.000 OA
ATOM     11  H   UNL     1       7.739   7.270  17.004  0.00  0.00    +0.000 HD
ENDBRANCH   9  10
ENDBRANCH   1   8
BRANCH   4  12
ATOM     12  C   UNL     1       0.870   2.993  19.022  0.00  0.00    +0.000 C 
ATOM     13  O   UNL     1       0.240   2.091  18.499  0.00  0.00    +0.000 OA
BRANCH  12  14
ATOM     14  O   UNL     1       0.529   3.534  20.211  0.00  0.00    +0.000 OA
ATOM     15  H   UNL     1       0.401   2.900  20.939  0.00  0.00    +0.000 HD
ENDBRANCH  12  14
ENDBRANCH   4  12
TORSDOF 4
ENDMDL
MODEL 8
REMARK VINA RESULT:      -6.0      2.298      5.619
REMARK  Name = 
REMARK  5 active torsions:
REMARK  status: ('A' for Active; 'I' for Inactive)
REMARK    1  A    between atoms: C_1  and  C_2
REMARK    2  A    between atoms: C_2  and  C_5
REMARK    3  A    between atoms: N_3  and  O_4
REMARK    4  A    between atoms: C_8  and  C_9
REMARK    5  A    between atoms: C_9  and  O_11
REMARK                            x       y       z     vdW  Elec       q    Type
REMARK                         _______ _______ _______ _____ _____    ______ ____
ROOT
ATOM      1  C   UNL     1       4.321   4.823  17.233  0.00  0.00    +0.000 A 
ATOM      2  C   UNL     1       3.287   5.570  17.811  0.00  0.00    +0.000 A 
ATOM      3  C   UNL     1       2.180   4.927  18.377  0.00  0.00    +0.000 A 
ATOM      4  C   UNL     1       2.091   3.531  18.374  0.00  0.00    +0.000 A 
ATOM      5  C   UNL     1       3.104   2.777  17.770  0.00  0.00    +0.000 A 
ATOM      6  C   UNL     1       4.215   3.423  17.211  0.00  0.00    +0.000 A 
ENDROOT
BRANCH   1   8
ATOM      7  C   UNL     1       5.862   6.895  17.078  0.00  0.00    +0.000 C 
ATOM      8  C   UNL     1       5.530   5.483  16.629  0.00  0.00    +0.000 C 
ATOM      9  N   UNL     1       6.233   4.814  15.758  0.00  0.00    +0.000 NA
BRANCH   9  10
ATOM     10  O   UNL     1       7.322   5.545  15.280  0.00  0.00    +0.000 OA
ATOM     11  H   UNL     1       8.076   4.960  15.483  0.00  0.00    +0.000 HD
ENDBRANCH   9  10
ENDBRANCH   1   8
BRANCH   4  12
ATOM     12  C   UNL     1       0.885   2.912  18.982  0.00  0.00    +0.000 C 
ATOM     13  O   UNL     1       0.226   2.059  18.415  0.00  0.00    +0.000 OA
BRANCH  12  14
ATOM     14  O   UNL     1       0.557   3.412  20.191  0.00  0.00    +0.000 OA
ATOM     15  H   UNL     1       1.228   3.984  20.605  0.00  0.00    +0.000 HD
ENDBRANCH  12  14
ENDBRANCH   4  12
TORSDOF 4
ENDMDL
MODEL 9
REMARK VINA RESULT:      -5.9      2.235      2.506
REMARK  Name = 
REMARK  5 active torsions:
REMARK  status: ('A' for Active; 'I' for Inactive)
REMARK    1  A    between atoms: C_1  and  C_2
REMARK    2  A    between atoms: C_2  and  C_5
REMARK    3  A    between atoms: N_3  and  O_4
REMARK    4  A    between atoms: C_8  and  C_9
REMARK    5  A    between atoms: C_9  and  O_11
REMARK                            x       y       z     vdW  Elec       q    Type
REMARK                         _______ _______ _______ _____ _____    ______ ____
ROOT
ATOM      1  C   UNL     1       3.802   5.217  17.694  0.00  0.00    +0.000 A 
ATOM      2  C   UNL     1       4.180   3.938  17.269  0.00  0.00    +0.000 A 
ATOM      3  C   UNL     1       5.126   3.780  16.250  0.00  0.00    +0.000 A 
ATOM      4  C   UNL     1       5.708   4.898  15.642  0.00  0.00    +0.000 A 
ATOM      5  C   UNL     1       5.313   6.181  16.037  0.00  0.00    +0.000 A 
ATOM      6  C   UNL     1       4.371   6.336  17.063  0.00  0.00    +0.000 A 
ENDROOT
BRANCH   1   8
ATOM      7  C   UNL     1       1.672   4.409  18.921  0.00  0.00    +0.000 C 
ATOM      8  C   UNL     1       2.799   5.421  18.796  0.00  0.00    +0.000 C 
ATOM      9  N   UNL     1       2.944   6.446  19.588  0.00  0.00    +0.000 NA
BRANCH   9  10
ATOM     10  O   UNL     1       1.945   6.512  20.561  0.00  0.00    +0.000 OA
ATOM     11  H   UNL     1       2.421   6.256  21.372  0.00  0.00    +0.000 HD
ENDBRANCH   9  10
ENDBRANCH   1   8
BRANCH   4  12
ATOM     12  C   UNL     1       6.697   4.662  14.559  0.00  0.00    +0.000 C 
ATOM     13  O   UNL     1       7.636   5.409  14.351  0.00  0.00    +0.000 OA
BRANCH  12  14
ATOM     14  O   UNL     1       6.436   3.579  13.798  0.00  0.00    +0.000 OA
ATOM     15  H   UNL     1       6.969   2.788  13.997  0.00  0.00    +0.000 HD
ENDBRANCH  12  14
ENDBRANCH   4  12
TORSDOF 4
ENDMDL
