MODEL 1
REMARK VINA RESULT:      -7.2      0.000      0.000
REMARK  Name = 
REMARK  5 active torsions:
REMARK  status: ('A' for Active; 'I' for Inactive)
REMARK    1  A    between atoms: C_1  and  O_2
REMARK    2  A    between atoms: O_2  and  C_3
REMARK    3  A    between atoms: C_5  and  C_6
REMARK    4  A    between atoms: N_7  and  N_8
REMARK    5  A    between atoms: C_20  and  O_21
REMARK                            x       y       z     vdW  Elec       q    Type
REMARK                         _______ _______ _______ _____ _____    ______ ____
ROOT
ATOM      1  N   UNL     1       2.924   5.755  20.181  0.00  0.00    +0.000 N 
ATOM      2  C   UNL     1       2.000   6.785  20.264  0.00  0.00    +0.000 C 
ATOM      3  O   UNL     1       1.118   6.768  21.113  0.00  0.00    +0.000 OA
ATOM      4  N   UNL     1       2.187   7.730  19.278  0.00  0.00    +0.000 N 
ATOM      5  C   UNL     1       1.526   8.897  19.036  0.00  0.00    +0.000 A 
ATOM      6  N   UNL     1       1.600   9.476  17.880  0.00  0.00    +0.000 NA
ATOM      7  N   UNL     1       0.816  10.595  17.900  0.00  0.00    +0.000 N 
ATOM      8  C   UNL     1       0.154  10.882  19.065  0.00  0.00    +0.000 A 
ATOM      9  S   UNL     1      -0.875  12.164  19.261  0.00  0.00    +0.000 S 
ATOM     10  S   UNL     1       0.568   9.680  20.250  0.00  0.00    +0.000 S 
ATOM     11  H   UNL     1       2.846   5.003  20.856  0.00  0.00    +0.000 HD
ATOM     12  H   UNL     1       2.823   7.413  18.559  0.00  0.00    +0.000 HD
ATOM     13  H   UNL     1       0.691  11.133  17.048  0.00  0.00    +0.000 HD
ENDROOT
BRANCH   1  15
ATOM     14  C   UNL     1       3.773   5.186  18.174  0.00  0.00    +0.000 C 
ATOM     15  N   UNL     1       3.950   5.819  19.289  0.00  0.00    +0.000 NA
BRANCH  14  18
ATOM     16  C   UNL     1       6.934   6.063  16.299  0.00  0.00    +0.000 A 
ATOM     17  C   UNL     1       5.903   6.071  17.240  0.00  0.00    +0.000 A 
ATOM     18  C   UNL     1       4.847   5.156  17.163  0.00  0.00    +0.000 A 
ATOM     19  C   UNL     1       4.814   4.209  16.141  0.00  0.00    +0.000 A 
ATOM     20  C   UNL     1       5.838   4.193  15.193  0.00  0.00    +0.000 A 
ATOM     21  C   UNL     1       6.890   5.116  15.271  0.00  0.00    +0.000 A 
BRANCH  16  23
ATOM     22  C   UNL     1       7.590   8.014  17.522  0.00  0.00    +0.000 C 
ATOM     23  O   UNL     1       7.871   7.030  16.540  0.00  0.00    +0.000 OA
ENDBRANCH  16  23
BRANCH  21  24
ATOM     24  O   UNL     1       7.868   5.064  14.315  0.00  0.00    +0.000 OA
ATOM     25  H   UNL     1       8.734   5.203  14.728  0.00  0.00    +0.000 HD
ENDBRANCH  21  24
ENDBRANCH  14  18
ENDBRANCH   1  15
TORSDOF 4
ENDMDL
MODEL 2
REMARK VINA RESULT:      -7.1      3.324      4.673
REMARK  Name = 
REMARK  5 active torsions:
REMARK  status: ('A' for Active; 'I' for Inactive)
REMARK    1  A    between atoms: C_1  and  O_2
REMARK    2  A    between atoms: O_2  and  C_3
REMARK    3  A    between atoms: C_5  and  C_6
REMARK    4  A    between atoms: N_7  and  N_8
REMARK    5  A    between atoms: C_20  and  O_21
REMARK                            x       y       z     vdW  Elec       q    Type
REMARK                         _______ _______ _______ _____ _____    ______ ____
ROOT
ATOM      1  N   UNL     1       2.298   8.917  17.761  0.00  0.00    +0.000 N 
ATOM      2  C   UNL     1       1.682   9.837  18.595  0.00  0.00    +0.000 C 
ATOM      3  O   UNL     1       1.760  11.037  18.370  0.00  0.00    +0.000 OA
ATOM      4  N   UNL     1       1.063   9.230  19.668  0.00  0.00    +0.000 N 
ATOM      5  C   UNL     1       0.327   9.766  20.682  0.00  0.00    +0.000 A 
ATOM      6  N   UNL     1       0.123   9.105  21.777  0.00  0.00    +0.000 NA
ATOM      7  N   UNL     1      -0.603   9.887  22.630  0.00  0.00    +0.000 N 
ATOM      8  C   UNL     1      -0.966  11.134  22.193  0.00  0.00    +0.000 A 
ATOM      9  S   UNL     1      -1.802  12.235  23.102  0.00  0.00    +0.000 S 
ATOM     10  S   UNL     1      -0.387  11.342  20.566  0.00  0.00    +0.000 S 
ATOM     11  H   UNL     1       2.798   9.279  16.957  0.00  0.00    +0.000 HD
ATOM     12  H   UNL     1       1.331   8.260  19.768  0.00  0.00    +0.000 HD
ATOM     13  H   UNL     1      -0.789   9.559  23.573  0.00  0.00    +0.000 HD
ENDROOT
BRANCH   1  15
ATOM     14  C   UNL     1       3.205   6.857  17.838  0.00  0.00    +0.000 C 
ATOM     15  N   UNL     1       2.141   7.581  17.971  0.00  0.00    +0.000 NA
BRANCH  14  18
ATOM     16  C   UNL     1       2.043   3.450  18.988  0.00  0.00    +0.000 A 
ATOM     17  C   UNL     1       2.143   4.833  18.820  0.00  0.00    +0.000 A 
ATOM     18  C   UNL     1       3.127   5.392  17.998  0.00  0.00    +0.000 A 
ATOM     19  C   UNL     1       4.024   4.570  17.319  0.00  0.00    +0.000 A 
ATOM     20  C   UNL     1       3.935   3.186  17.480  0.00  0.00    +0.000 A 
ATOM     21  C   UNL     1       2.952   2.630  18.312  0.00  0.00    +0.000 A 
BRANCH  16  23
ATOM     22  C   UNL     1       1.322   2.874  21.196  0.00  0.00    +0.000 C 
ATOM     23  O   UNL     1       1.024   3.096  19.828  0.00  0.00    +0.000 OA
ENDBRANCH  16  23
BRANCH  21  24
ATOM     24  O   UNL     1       2.909   1.269  18.442  0.00  0.00    +0.000 OA
ATOM     25  H   UNL     1       1.993   0.984  18.573  0.00  0.00    +0.000 HD
ENDBRANCH  21  24
ENDBRANCH  14  18
ENDBRANCH   1  15
TORSDOF 4
ENDMDL
MODEL 3
REMARK VINA RESULT:      -7.1      1.114      1.218
REMARK  Name = 
REMARK  5 active torsions:
REMARK  status: ('A' for Active; 'I' for Inactive)
REMARK    1  A    between atoms: C_1  and  O_2
REMARK    2  A    between atoms: O_2  and  C_3
REMARK    3  A    between atoms: C_5  and  C_6
REMARK    4  A    between atoms: N_7  and  N_8
REMARK    5  A    between atoms: C_20  and  O_21
REMARK                            x       y       z     vdW  Elec       q    Type
REMARK                         _______ _______ _______ _____ _____    ______ ____
ROOT
ATOM      1  N   UNL     1       2.126   6.727  20.490  0.00  0.00    +0.000 N 
ATOM      2  C   UNL     1       1.494   7.942  20.698  0.00  0.00    +0.000 C 
ATOM      3  O   UNL     1       1.002   8.214  21.786  0.00  0.00    +0.000 OA
ATOM      4  N   UNL     1       1.460   8.713  19.555  0.00  0.00    +0.000 N 
ATOM      5  C   UNL     1       0.970   9.967  19.349  0.00  0.00    +0.000 A 
ATOM      6  N   UNL     1       0.707  10.391  18.153  0.00  0.00    +0.000 NA
ATOM      7  N   UNL     1       0.194  11.654  18.240  0.00  0.00    +0.000 N 
ATOM      8  C   UNL     1       0.074  12.204  19.490  0.00  0.00    +0.000 A 
ATOM      9  S   UNL     1      -0.569  13.699  19.794  0.00  0.00    +0.000 S 
ATOM     10  S   UNL     1       0.685  11.069  20.657  0.00  0.00    +0.000 S 
ATOM     11  H   UNL     1       2.176   6.087  21.274  0.00  0.00    +0.000 HD
ATOM     12  H   UNL     1       1.718   8.187  18.730  0.00  0.00    +0.000 HD
ATOM     13  H   UNL     1      -0.145  12.114  17.402  0.00  0.00    +0.000 HD
ENDROOT
BRANCH   1  15
ATOM     14  C   UNL     1       3.836   5.778  19.371  0.00  0.00    +0.000 C 
ATOM     15  N   UNL     1       2.740   6.463  19.304  0.00  0.00    +0.000 NA
BRANCH  14  18
ATOM     16  C   UNL     1       6.501   5.951  16.699  0.00  0.00    +0.000 A 
ATOM     17  C   UNL     1       5.757   6.211  17.851  0.00  0.00    +0.000 A 
ATOM     18  C   UNL     1       4.600   5.482  18.144  0.00  0.00    +0.000 A 
ATOM     19  C   UNL     1       4.174   4.468  17.288  0.00  0.00    +0.000 A 
ATOM     20  C   UNL     1       4.910   4.200  16.132  0.00  0.00    +0.000 A 
ATOM     21  C   UNL     1       6.064   4.939  15.838  0.00  0.00    +0.000 A 
BRANCH  16  23
ATOM     22  C   UNL     1       7.749   7.823  17.518  0.00  0.00    +0.000 C 
ATOM     23  O   UNL     1       7.594   6.766  16.585  0.00  0.00    +0.000 OA
ENDBRANCH  16  23
BRANCH  21  24
ATOM     24  O   UNL     1       6.748   4.642  14.690  0.00  0.00    +0.000 OA
ATOM     25  H   UNL     1       6.200   4.860  13.921  0.00  0.00    +0.000 HD
ENDBRANCH  21  24
ENDBRANCH  14  18
ENDBRANCH   1  15
TORSDOF 4
ENDMDL
MODEL 4
REMARK VINA RESULT:      -7.1      3.316      4.522
REMARK  Name = 
REMARK  5 active torsions:
REMARK  status: ('A' for Active; 'I' for Inactive)
REMARK    1  A    between atoms: C_1  and  O_2
REMARK    2  A    between atoms: O_2  and  C_3
REMARK    3  A    between atoms: C_5  and  C_6
REMARK    4  A    between atoms: N_7  and  N_8
REMARK    5  A    between atoms: C_20  and  O_21
REMARK                            x       y       z     vdW  Elec       q    Type
REMARK                         _______ _______ _______ _____ _____    ______ ____
ROOT
ATOM      1  N   UNL     1       2.107   9.033  17.874  0.00  0.00    +0.000 N 
ATOM      2  C   UNL     1       1.395   9.911  18.676  0.00  0.00    +0.000 C 
ATOM      3  O   UNL     1       1.161  11.052  18.300  0.00  0.00    +0.000 OA
ATOM      4  N   UNL     1       1.067   9.353  19.893  0.00  0.00    +0.000 N 
ATOM      5  C   UNL     1       0.351   9.863  20.934  0.00  0.00    +0.000 A 
ATOM      6  N   UNL     1       0.438   9.345  22.119  0.00  0.00    +0.000 NA
ATOM      7  N   UNL     1      -0.346  10.069  22.971  0.00  0.00    +0.000 N 
ATOM      8  C   UNL     1      -1.040  11.128  22.447  0.00  0.00    +0.000 A 
ATOM      9  S   UNL     1      -1.999  12.146  23.333  0.00  0.00    +0.000 S 
ATOM     10  S   UNL     1      -0.723  11.210  20.739  0.00  0.00    +0.000 S 
ATOM     11  H   UNL     1       2.409   9.369  16.968  0.00  0.00    +0.000 HD
ATOM     12  H   UNL     1       1.565   8.490  20.066  0.00  0.00    +0.000 HD
ATOM     13  H   UNL     1      -0.337   9.854  23.963  0.00  0.00    +0.000 HD
ENDROOT
BRANCH   1  15
ATOM     14  C   UNL     1       3.379   7.173  17.844  0.00  0.00    +0.000 C 
ATOM     15  N   UNL     1       2.295   7.741  18.263  0.00  0.00    +0.000 NA
BRANCH  14  18
ATOM     16  C   UNL     1       2.925   3.436  18.168  0.00  0.00    +0.000 A 
ATOM     17  C   UNL     1       2.696   4.781  17.872  0.00  0.00    +0.000 A 
ATOM     18  C   UNL     1       3.649   5.761  18.172  0.00  0.00    +0.000 A 
ATOM     19  C   UNL     1       4.857   5.404  18.767  0.00  0.00    +0.000 A 
ATOM     20  C   UNL     1       5.097   4.062  19.070  0.00  0.00    +0.000 A 
ATOM     21  C   UNL     1       4.136   3.085  18.774  0.00  0.00    +0.000 A 
BRANCH  16  23
ATOM     22  C   UNL     1       0.808   2.462  18.714  0.00  0.00    +0.000 C 
ATOM     23  O   UNL     1       1.881   2.633  17.802  0.00  0.00    +0.000 OA
ENDBRANCH  16  23
BRANCH  21  24
ATOM     24  O   UNL     1       4.415   1.785  19.095  0.00  0.00    +0.000 OA
ATOM     25  H   UNL     1       5.316   1.567  18.812  0.00  0.00    +0.000 HD
ENDBRANCH  21  24
ENDBRANCH  14  18
ENDBRANCH   1  15
TORSDOF 4
ENDMDL
MODEL 5
REMARK VINA RESULT:      -7.0      1.243      1.279
REMARK  Name = 
REMARK  5 active torsions:
REMARK  status: ('A' for Active; 'I' for Inactive)
REMARK    1  A    between atoms: C_1  and  O_2
REMARK    2  A    between atoms: O_2  and  C_3
REMARK    3  A    between atoms: C_5  and  C_6
REMARK    4  A    between atoms: N_7  and  N_8
REMARK    5  A    between atoms: C_20  and  O_21
REMARK                            x       y       z     vdW  Elec       q    Type
REMARK                         _______ _______ _______ _____ _____    ______ ____
ROOT
ATOM      1  N   UNL     1       3.186   4.449  19.859  0.00  0.00    +0.000 N 
ATOM      2  C   UNL     1       2.307   5.406  20.339  0.00  0.00    +0.000 C 
ATOM      3  O   UNL     1       1.476   5.123  21.193  0.00  0.00    +0.000 OA
ATOM      4  N   UNL     1       2.467   6.621  19.707  0.00  0.00    +0.000 N 
ATOM      5  C   UNL     1       1.835   7.812  19.906  0.00  0.00    +0.000 A 
ATOM      6  N   UNL     1       1.861   8.739  19.002  0.00  0.00    +0.000 NA
ATOM      7  N   UNL     1       1.119   9.799  19.441  0.00  0.00    +0.000 N 
ATOM      8  C   UNL     1       0.539   9.695  20.678  0.00  0.00    +0.000 A 
ATOM      9  S   UNL     1      -0.430  10.855  21.354  0.00  0.00    +0.000 S 
ATOM     10  S   UNL     1       0.980   8.164  21.373  0.00  0.00    +0.000 S 
ATOM     11  H   UNL     1       3.122   3.518  20.255  0.00  0.00    +0.000 HD
ATOM     12  H   UNL     1       3.048   6.551  18.881  0.00  0.00    +0.000 HD
ATOM     13  H   UNL     1       0.962  10.589  18.824  0.00  0.00    +0.000 HD
ENDROOT
BRANCH   1  15
ATOM     14  C   UNL     1       4.036   4.298  17.779  0.00  0.00    +0.000 C 
ATOM     15  N   UNL     1       4.159   4.789  18.969  0.00  0.00    +0.000 NA
BRANCH  14  18
ATOM     16  C   UNL     1       7.000   5.853  16.025  0.00  0.00    +0.000 A 
ATOM     17  C   UNL     1       6.013   5.576  16.973  0.00  0.00    +0.000 A 
ATOM     18  C   UNL     1       5.065   4.570  16.757  0.00  0.00    +0.000 A 
ATOM     19  C   UNL     1       5.099   3.814  15.586  0.00  0.00    +0.000 A 
ATOM     20  C   UNL     1       6.080   4.084  14.630  0.00  0.00    +0.000 A 
ATOM     21  C   UNL     1       7.023   5.099  14.848  0.00  0.00    +0.000 A 
BRANCH  16  23
ATOM     22  C   UNL     1       7.604   7.482  17.671  0.00  0.00    +0.000 C 
ATOM     23  O   UNL     1       7.830   6.868  16.413  0.00  0.00    +0.000 OA
ENDBRANCH  16  23
BRANCH  21  24
ATOM     24  O   UNL     1       7.961   5.328  13.878  0.00  0.00    +0.000 OA
ATOM     25  H   UNL     1       7.636   6.005  13.266  0.00  0.00    +0.000 HD
ENDBRANCH  21  24
ENDBRANCH  14  18
ENDBRANCH   1  15
TORSDOF 4
ENDMDL
MODEL 6
REMARK VINA RESULT:      -7.0      1.968      2.370
REMARK  Name = 
REMARK  5 active torsions:
REMARK  status: ('A' for Active; 'I' for Inactive)
REMARK    1  A    between atoms: C_1  and  O_2
REMARK    2  A    between atoms: O_2  and  C_3
REMARK    3  A    between atoms: C_5  and  C_6
REMARK    4  A    between atoms: N_7  and  N_8
REMARK    5  A    between atoms: C_20  and  O_21
REMARK                            x       y       z     vdW  Elec       q    Type
REMARK                         _______ _______ _______ _____ _____    ______ ____
ROOT
ATOM      1  N   UNL     1       1.436   7.206  21.139  0.00  0.00    +0.000 N 
ATOM      2  C   UNL     1       0.895   8.482  21.122  0.00  0.00    +0.000 C 
ATOM      3  O   UNL     1       0.193   8.877  22.044  0.00  0.00    +0.000 OA
ATOM      4  N   UNL     1       1.205   9.162  19.963  0.00  0.00    +0.000 N 
ATOM      5  C   UNL     1       0.902  10.433  19.576  0.00  0.00    +0.000 A 
ATOM      6  N   UNL     1       0.969  10.783  18.330  0.00  0.00    +0.000 NA
ATOM      7  N   UNL     1       0.577  12.087  18.221  0.00  0.00    +0.000 N 
ATOM      8  C   UNL     1       0.223  12.740  19.373  0.00  0.00    +0.000 A 
ATOM      9  S   UNL     1      -0.322  14.302  19.430  0.00  0.00    +0.000 S 
ATOM     10  S   UNL     1       0.431  11.653  20.714  0.00  0.00    +0.000 S 
ATOM     11  H   UNL     1       1.238   6.628  21.947  0.00  0.00    +0.000 HD
ATOM     12  H   UNL     1       1.594   8.554  19.254  0.00  0.00    +0.000 HD
ATOM     13  H   UNL     1       0.490  12.508  17.301  0.00  0.00    +0.000 HD
ENDROOT
BRANCH   1  15
ATOM     14  C   UNL     1       2.445   5.524  20.032  0.00  0.00    +0.000 C 
ATOM     15  N   UNL     1       2.280   6.802  20.151  0.00  0.00    +0.000 NA
BRANCH  14  18
ATOM     16  C   UNL     1       5.662   4.526  18.320  0.00  0.00    +0.000 A 
ATOM     17  C   UNL     1       4.757   5.028  19.257  0.00  0.00    +0.000 A 
ATOM     18  C   UNL     1       3.378   4.989  19.022  0.00  0.00    +0.000 A 
ATOM     19  C   UNL     1       2.883   4.435  17.844  0.00  0.00    +0.000 A 
ATOM     20  C   UNL     1       3.779   3.932  16.899  0.00  0.00    +0.000 A 
ATOM     21  C   UNL     1       5.160   3.980  17.135  0.00  0.00    +0.000 A 
BRANCH  16  23
ATOM     22  C   UNL     1       7.616   5.895  18.521  0.00  0.00    +0.000 C 
ATOM     23  O   UNL     1       6.962   4.654  18.726  0.00  0.00    +0.000 OA
ENDBRANCH  16  23
BRANCH  21  24
ATOM     24  O   UNL     1       5.998   3.479  16.176  0.00  0.00    +0.000 OA
ATOM     25  H   UNL     1       5.477   3.163  15.422  0.00  0.00    +0.000 HD
ENDBRANCH  21  24
ENDBRANCH  14  18
ENDBRANCH   1  15
TORSDOF 4
ENDMDL
MODEL 7
REMARK VINA RESULT:      -6.9      3.038      3.910
REMARK  Name = 
REMARK  5 active torsions:
REMARK  status: ('A' for Active; 'I' for Inactive)
REMARK    1  A    between atoms: C_1  and  O_2
REMARK    2  A    between atoms: O_2  and  C_3
REMARK    3  A    between atoms: C_5  and  C_6
REMARK    4  A    between atoms: N_7  and  N_8
REMARK    5  A    between atoms: C_20  and  O_21
REMARK                            x       y       z     vdW  Elec       q    Type
REMARK                         _______ _______ _______ _____ _____    ______ ____
ROOT
ATOM      1  N   UNL     1       1.790   9.621  17.804  0.00  0.00    +0.000 N 
ATOM      2  C   UNL     1       1.063  10.444  18.650  0.00  0.00    +0.000 C 
ATOM      3  O   UNL     1       0.810  11.599  18.334  0.00  0.00    +0.000 OA
ATOM      4  N   UNL     1       0.746   9.818  19.837  0.00  0.00    +0.000 N 
ATOM      5  C   UNL     1       0.023  10.261  20.903  0.00  0.00    +0.000 A 
ATOM      6  N   UNL     1       0.120   9.684  22.059  0.00  0.00    +0.000 NA
ATOM      7  N   UNL     1      -0.674  10.350  22.949  0.00  0.00    +0.000 N 
ATOM      8  C   UNL     1      -1.388  11.422  22.480  0.00  0.00    +0.000 A 
ATOM      9  S   UNL     1      -2.363  12.376  23.419  0.00  0.00    +0.000 S 
ATOM     10  S   UNL     1      -1.074  11.598  20.779  0.00  0.00    +0.000 S 
ATOM     11  H   UNL     1       2.084  10.009  16.916  0.00  0.00    +0.000 HD
ATOM     12  H   UNL     1       1.260   8.956  19.965  0.00  0.00    +0.000 HD
ATOM     13  H   UNL     1      -0.661  10.084  23.928  0.00  0.00    +0.000 HD
ENDROOT
BRANCH   1  15
ATOM     14  C   UNL     1       3.120   7.805  17.727  0.00  0.00    +0.000 C 
ATOM     15  N   UNL     1       2.000   8.315  18.125  0.00  0.00    +0.000 NA
BRANCH  14  18
ATOM     16  C   UNL     1       5.043   4.648  18.510  0.00  0.00    +0.000 A 
ATOM     17  C   UNL     1       4.732   5.986  18.260  0.00  0.00    +0.000 A 
ATOM     18  C   UNL     1       3.419   6.384  17.985  0.00  0.00    +0.000 A 
ATOM     19  C   UNL     1       2.391   5.443  17.968  0.00  0.00    +0.000 A 
ATOM     20  C   UNL     1       2.691   4.102  18.215  0.00  0.00    +0.000 A 
ATOM     21  C   UNL     1       4.009   3.707  18.482  0.00  0.00    +0.000 A 
BRANCH  16  23
ATOM     22  C   UNL     1       7.146   5.561  19.202  0.00  0.00    +0.000 C 
ATOM     23  O   UNL     1       6.375   4.457  18.756  0.00  0.00    +0.000 OA
ENDBRANCH  16  23
BRANCH  21  24
ATOM     24  O   UNL     1       4.253   2.381  18.713  0.00  0.00    +0.000 OA
ATOM     25  H   UNL     1       4.128   2.187  19.654  0.00  0.00    +0.000 HD
ENDBRANCH  21  24
ENDBRANCH  14  18
ENDBRANCH   1  15
TORSDOF 4
ENDMDL
MODEL 8
REMARK VINA RESULT:      -6.9      3.971      8.127
REMARK  Name = 
REMARK  5 active torsions:
REMARK  status: ('A' for Active; 'I' for Inactive)
REMARK    1  A    between atoms: C_1  and  O_2
REMARK    2  A    between atoms: O_2  and  C_3
REMARK    3  A    between atoms: C_5  and  C_6
REMARK    4  A    between atoms: N_7  and  N_8
REMARK    5  A    between atoms: C_20  and  O_21
REMARK                            x       y       z     vdW  Elec       q    Type
REMARK                         _______ _______ _______ _____ _____    ______ ____
ROOT
ATOM      1  N   UNL     1       2.446   6.146  20.524  0.00  0.00    +0.000 N 
ATOM      2  C   UNL     1       3.213   5.463  19.594  0.00  0.00    +0.000 C 
ATOM      3  O   UNL     1       3.557   4.305  19.796  0.00  0.00    +0.000 OA
ATOM      4  N   UNL     1       3.548   6.253  18.516  0.00  0.00    +0.000 N 
ATOM      5  C   UNL     1       4.251   5.956  17.387  0.00  0.00    +0.000 A 
ATOM      6  N   UNL     1       4.766   6.894  16.656  0.00  0.00    +0.000 NA
ATOM      7  N   UNL     1       5.444   6.319  15.619  0.00  0.00    +0.000 N 
ATOM      8  C   UNL     1       5.441   4.950  15.543  0.00  0.00    +0.000 A 
ATOM      9  S   UNL     1       6.246   4.079  14.389  0.00  0.00    +0.000 S 
ATOM     10  S   UNL     1       4.483   4.323  16.852  0.00  0.00    +0.000 S 
ATOM     11  H   UNL     1       2.172   5.646  21.361  0.00  0.00    +0.000 HD
ATOM     12  H   UNL     1       3.352   7.232  18.681  0.00  0.00    +0.000 HD
ATOM     13  H   UNL     1       5.980   6.904  14.987  0.00  0.00    +0.000 HD
ENDROOT
BRANCH   1  15
ATOM     14  C   UNL     1       1.270   7.955  21.175  0.00  0.00    +0.000 C 
ATOM     15  N   UNL     1       2.000   7.405  20.258  0.00  0.00    +0.000 NA
BRANCH  14  18
ATOM     16  C   UNL     1      -0.382  11.282  21.864  0.00  0.00    +0.000 A 
ATOM     17  C   UNL     1       0.161  10.007  22.038  0.00  0.00    +0.000 A 
ATOM     18  C   UNL     1       0.700   9.298  20.960  0.00  0.00    +0.000 A 
ATOM     19  C   UNL     1       0.712   9.862  19.685  0.00  0.00    +0.000 A 
ATOM     20  C   UNL     1       0.170  11.135  19.499  0.00  0.00    +0.000 A 
ATOM     21  C   UNL     1      -0.376  11.839  20.582  0.00  0.00    +0.000 A 
BRANCH  16  23
ATOM     22  C   UNL     1      -2.262  11.833  23.241  0.00  0.00    +0.000 C 
ATOM     23  O   UNL     1      -0.859  11.812  23.031  0.00  0.00    +0.000 OA
ENDBRANCH  16  23
BRANCH  21  24
ATOM     24  O   UNL     1      -0.901  13.081  20.348  0.00  0.00    +0.000 OA
ATOM     25  H   UNL     1      -1.856  13.065  20.507  0.00  0.00    +0.000 HD
ENDBRANCH  21  24
ENDBRANCH  14  18
ENDBRANCH   1  15
TORSDOF 4
ENDMDL
MODEL 9
REMARK VINA RESULT:      -6.7      1.536      1.646
REMARK  Name = 
REMARK  5 active torsions:
REMARK  status: ('A' for Active; 'I' for Inactive)
REMARK    1  A    between atoms: C_1  and  O_2
REMARK    2  A    between atoms: O_2  and  C_3
REMARK    3  A    between atoms: C_5  and  C_6
REMARK    4  A    between atoms: N_7  and  N_8
REMARK    5  A    between atoms: C_20  and  O_21
REMARK                            x       y       z     vdW  Elec       q    Type
REMARK                         _______ _______ _______ _____ _____    ______ ____
ROOT
ATOM      1  N   UNL     1       1.973   6.569  20.658  0.00  0.00    +0.000 N 
ATOM      2  C   UNL     1       1.237   7.740  20.747  0.00  0.00    +0.000 C 
ATOM      3  O   UNL     1       0.395   7.886  21.623  0.00  0.00    +0.000 OA
ATOM      4  N   UNL     1       1.544   8.624  19.734  0.00  0.00    +0.000 N 
ATOM      5  C   UNL     1       1.078   9.880  19.486  0.00  0.00    +0.000 A 
ATOM      6  N   UNL     1       1.207  10.419  18.315  0.00  0.00    +0.000 NA
ATOM      7  N   UNL     1       0.622  11.653  18.334  0.00  0.00    +0.000 N 
ATOM      8  C   UNL     1       0.058  12.067  19.512  0.00  0.00    +0.000 A 
ATOM      9  S   UNL     1      -0.735  13.506  19.712  0.00  0.00    +0.000 S 
ATOM     10  S   UNL     1       0.308  10.833  20.712  0.00  0.00    +0.000 S 
ATOM     11  H   UNL     1       1.795   5.853  21.353  0.00  0.00    +0.000 HD
ATOM     12  H   UNL     1       2.093   8.193  19.002  0.00  0.00    +0.000 HD
ATOM     13  H   UNL     1       0.558  12.189  17.475  0.00  0.00    +0.000 HD
ENDROOT
BRANCH   1  15
ATOM     14  C   UNL     1       3.244   5.238  19.359  0.00  0.00    +0.000 C 
ATOM     15  N   UNL     1       2.964   6.445  19.732  0.00  0.00    +0.000 NA
BRANCH  14  18
ATOM     16  C   UNL     1       6.715   4.764  17.944  0.00  0.00    +0.000 A 
ATOM     17  C   UNL     1       5.663   4.993  18.834  0.00  0.00    +0.000 A 
ATOM     18  C   UNL     1       4.335   4.997  18.396  0.00  0.00    +0.000 A 
ATOM     19  C   UNL     1       4.037   4.760  17.055  0.00  0.00    +0.000 A 
ATOM     20  C   UNL     1       5.082   4.532  16.156  0.00  0.00    +0.000 A 
ATOM     21  C   UNL     1       6.412   4.537  16.598  0.00  0.00    +0.000 A 
BRANCH  16  23
ATOM     22  C   UNL     1       8.127   5.702  19.635  0.00  0.00    +0.000 C 
ATOM     23  O   UNL     1       7.937   4.800  18.557  0.00  0.00    +0.000 OA
ENDBRANCH  16  23
BRANCH  21  24
ATOM     24  O   UNL     1       7.400   4.314  15.678  0.00  0.00    +0.000 OA
ATOM     25  H   UNL     1       8.195   3.990  16.128  0.00  0.00    +0.000 HD
ENDBRANCH  21  24
ENDBRANCH  14  18
ENDBRANCH   1  15
TORSDOF 4
ENDMDL
