MODEL 1
REMARK VINA RESULT:      -7.2      0.000      0.000
REMARK  Name = 
REMARK  15 active torsions:
REMARK  status: ('A' for Active; 'I' for Inactive)
REMARK    1  A    between atoms: C_1  and  C_2
REMARK    2  A    between atoms: C_2  and  C_3
REMARK    3  A    between atoms: C_3  and  C_4
REMARK    4  A    between atoms: C_6  and  O_7
REMARK    5  A    between atoms: C_9  and  S_10
REMARK    6  A    between atoms: S_10  and  C_11
REMARK    7  A    between atoms: C_11  and  C_12
REMARK    8  A    between atoms: C_12  and  C_14
REMARK    9  A    between atoms: C_16  and  C_17
REMARK   10  A    between atoms: N_18  and  C_19
REMARK   11  A    between atoms: C_19  and  C_20
REMARK   12  A    between atoms: C_19  and  C_21
REMARK   13  A    between atoms: C_21  and  O_22
REMARK   14  A    between atoms: O_22  and  C_23
REMARK   15  A    between atoms: C_24  and  C_25
REMARK                            x       y       z     vdW  Elec       q    Type
REMARK                         _______ _______ _______ _____ _____    ______ ____
ROOT
ATOM      1  C   UNL     1       5.122   6.517  16.632  0.00  0.00    +0.000 C 
ATOM      2  O   UNL     1       4.780   7.009  15.552  0.00  0.00    +0.000 OA
ENDROOT
BRANCH   1   3
ATOM      3  C   UNL     1       4.108   6.121  17.633  0.00  0.00    +0.000 A 
ATOM      4  C   UNL     1       3.535   6.891  18.673  0.00  0.00    +0.000 A 
ATOM      5  C   UNL     1       2.595   6.119  19.329  0.00  0.00    +0.000 A 
ATOM      6  C   UNL     1       1.721   6.540  20.463  0.00  0.00    +0.000 C 
ATOM      7  N   UNL     1       2.587   4.857  18.742  0.00  0.00    +0.000 N 
ATOM      8  C   UNL     1       3.531   4.853  17.720  0.00  0.00    +0.000 A 
ATOM      9  C   UNL     1       3.881   3.693  16.843  0.00  0.00    +0.000 C 
BRANCH   7  10
ATOM     10  C   UNL     1       1.665   3.778  19.128  0.00  0.00    +0.000 C 
ATOM     11  C   UNL     1       0.783   3.306  17.962  0.00  0.00    +0.000 C 
BRANCH  10  12
ATOM     12  C   UNL     1       2.320   2.550  19.783  0.00  0.00    +0.000 C 
BRANCH  12  13
ATOM     13  O   UNL     1       3.013   2.842  20.995  0.00  0.00    +0.000 OA
ATOM     14  C   UNL     1       2.068   3.061  22.043  0.00  0.00    +0.000 C 
ENDBRANCH  12  13
ENDBRANCH  10  12
ENDBRANCH   7  10
ENDBRANCH   1   3
BRANCH   1  15
ATOM     15  C   UNL     1       6.594   6.247  16.919  0.00  0.00    +0.000 C 
BRANCH  15  16
ATOM     16  S   UNL     1       7.044   4.508  16.551  0.00  0.00    +0.000 S 
BRANCH  16  21
ATOM     17  C   UNL     1       6.434   3.806  12.726  0.00  0.00    +0.000 A 
ATOM     18  C   UNL     1       7.272   4.699  12.090  0.00  0.00    +0.000 A 
ATOM     19  C   UNL     1       8.002   5.520  12.914  0.00  0.00    +0.000 A 
ATOM     20  N   UNL     1       7.943   5.503  14.244  0.00  0.00    +0.000 NA
ATOM     21  C   UNL     1       7.108   4.599  14.780  0.00  0.00    +0.000 A 
ATOM     22  N   UNL     1       6.355   3.737  14.069  0.00  0.00    +0.000 NA
BRANCH  19  23
ATOM     23  O   UNL     1       8.876   6.434  12.403  0.00  0.00    +0.000 OA
ATOM     24  H   UNL     1       9.671   6.442  12.954  0.00  0.00    +0.000 HD
ENDBRANCH  19  23
BRANCH  17  25
ATOM     25  C   UNL     1       5.598   2.846  11.914  0.00  0.00    +0.000 C 
BRANCH  25  27
ATOM     26  C   UNL     1       3.692   3.571  10.432  0.00  0.00    +0.000 C 
ATOM     27  C   UNL     1       4.127   3.263  11.857  0.00  0.00    +0.000 C 
ENDBRANCH  25  27
ENDBRANCH  17  25
ENDBRANCH  16  21
ENDBRANCH  15  16
ENDBRANCH   1  15
TORSDOF 10
ENDMDL
MODEL 2
REMARK VINA RESULT:      -6.8      3.726      5.792
REMARK  Name = 
REMARK  15 active torsions:
REMARK  status: ('A' for Active; 'I' for Inactive)
REMARK    1  A    between atoms: C_1  and  C_2
REMARK    2  A    between atoms: C_2  and  C_3
REMARK    3  A    between atoms: C_3  and  C_4
REMARK    4  A    between atoms: C_6  and  O_7
REMARK    5  A    between atoms: C_9  and  S_10
REMARK    6  A    between atoms: S_10  and  C_11
REMARK    7  A    between atoms: C_11  and  C_12
REMARK    8  A    between atoms: C_12  and  C_14
REMARK    9  A    between atoms: C_16  and  C_17
REMARK   10  A    between atoms: N_18  and  C_19
REMARK   11  A    between atoms: C_19  and  C_20
REMARK   12  A    between atoms: C_19  and  C_21
REMARK   13  A    between atoms: C_21  and  O_22
REMARK   14  A    between atoms: O_22  and  C_23
REMARK   15  A    between atoms: C_24  and  C_25
REMARK                            x       y       z     vdW  Elec       q    Type
REMARK                         _______ _______ _______ _____ _____    ______ ____
ROOT
ATOM      1  C   UNL     1       2.557   6.510  19.305  0.00  0.00    +0.000 C 
ATOM      2  O   UNL     1       2.733   6.432  18.085  0.00  0.00    +0.000 OA
ENDROOT
BRANCH   1   3
ATOM      3  C   UNL     1       1.834   7.661  19.889  0.00  0.00    +0.000 A 
ATOM      4  C   UNL     1       1.331   7.823  21.202  0.00  0.00    +0.000 A 
ATOM      5  C   UNL     1       0.770   9.081  21.307  0.00  0.00    +0.000 A 
ATOM      6  C   UNL     1       0.155   9.691  22.524  0.00  0.00    +0.000 C 
ATOM      7  N   UNL     1       0.880   9.709  20.070  0.00  0.00    +0.000 N 
ATOM      8  C   UNL     1       1.510   8.829  19.197  0.00  0.00    +0.000 A 
ATOM      9  C   UNL     1       1.806   9.075  17.751  0.00  0.00    +0.000 C 
BRANCH   7  10
ATOM     10  C   UNL     1       0.453  11.093  19.810  0.00  0.00    +0.000 C 
ATOM     11  C   UNL     1       1.635  12.039  19.554  0.00  0.00    +0.000 C 
BRANCH  10  12
ATOM     12  C   UNL     1      -0.576  11.268  18.681  0.00  0.00    +0.000 C 
BRANCH  12  13
ATOM     13  O   UNL     1      -1.489  10.179  18.557  0.00  0.00    +0.000 OA
ATOM     14  C   UNL     1      -2.079  10.198  17.256  0.00  0.00    +0.000 C 
ENDBRANCH  12  13
ENDBRANCH  10  12
ENDBRANCH   7  10
ENDBRANCH   1   3
BRANCH   1  15
ATOM     15  C   UNL     1       3.025   5.386  20.220  0.00  0.00    +0.000 C 
BRANCH  15  16
ATOM     16  S   UNL     1       3.529   3.905  19.263  0.00  0.00    +0.000 S 
BRANCH  16  21
ATOM     17  C   UNL     1       6.666   4.746  17.040  0.00  0.00    +0.000 A 
ATOM     18  C   UNL     1       7.604   5.191  17.950  0.00  0.00    +0.000 A 
ATOM     19  C   UNL     1       7.193   5.225  19.259  0.00  0.00    +0.000 A 
ATOM     20  N   UNL     1       5.982   4.868  19.681  0.00  0.00    +0.000 NA
ATOM     21  C   UNL     1       5.134   4.442  18.731  0.00  0.00    +0.000 A 
ATOM     22  N   UNL     1       5.435   4.355  17.420  0.00  0.00    +0.000 NA
BRANCH  19  23
ATOM     23  O   UNL     1       8.036   5.632  20.251  0.00  0.00    +0.000 OA
ATOM     24  H   UNL     1       8.236   6.569  20.121  0.00  0.00    +0.000 HD
ENDBRANCH  19  23
BRANCH  17  25
ATOM     25  C   UNL     1       7.020   4.654  15.575  0.00  0.00    +0.000 C 
BRANCH  25  27
ATOM     26  C   UNL     1       6.275   3.806  13.320  0.00  0.00    +0.000 C 
ATOM     27  C   UNL     1       5.832   4.214  14.718  0.00  0.00    +0.000 C 
ENDBRANCH  25  27
ENDBRANCH  17  25
ENDBRANCH  16  21
ENDBRANCH  15  16
ENDBRANCH   1  15
TORSDOF 10
ENDMDL
MODEL 3
REMARK VINA RESULT:      -6.7      4.872      8.220
REMARK  Name = 
REMARK  15 active torsions:
REMARK  status: ('A' for Active; 'I' for Inactive)
REMARK    1  A    between atoms: C_1  and  C_2
REMARK    2  A    between atoms: C_2  and  C_3
REMARK    3  A    between atoms: C_3  and  C_4
REMARK    4  A    between atoms: C_6  and  O_7
REMARK    5  A    between atoms: C_9  and  S_10
REMARK    6  A    between atoms: S_10  and  C_11
REMARK    7  A    between atoms: C_11  and  C_12
REMARK    8  A    between atoms: C_12  and  C_14
REMARK    9  A    between atoms: C_16  and  C_17
REMARK   10  A    between atoms: N_18  and  C_19
REMARK   11  A    between atoms: C_19  and  C_20
REMARK   12  A    between atoms: C_19  and  C_21
REMARK   13  A    between atoms: C_21  and  O_22
REMARK   14  A    between atoms: O_22  and  C_23
REMARK   15  A    between atoms: C_24  and  C_25
REMARK                            x       y       z     vdW  Elec       q    Type
REMARK                         _______ _______ _______ _____ _____    ______ ____
ROOT
ATOM      1  C   UNL     1       2.338   7.420  18.709  0.00  0.00    +0.000 C 
ATOM      2  O   UNL     1       2.205   7.666  19.912  0.00  0.00    +0.000 OA
ENDROOT
BRANCH   1   3
ATOM      3  C   UNL     1       2.960   6.154  18.263  0.00  0.00    +0.000 A 
ATOM      4  C   UNL     1       2.485   4.829  18.410  0.00  0.00    +0.000 A 
ATOM      5  C   UNL     1       3.376   3.970  17.796  0.00  0.00    +0.000 A 
ATOM      6  C   UNL     1       3.254   2.487  17.673  0.00  0.00    +0.000 C 
ATOM      7  N   UNL     1       4.428   4.728  17.290  0.00  0.00    +0.000 N 
ATOM      8  C   UNL     1       4.184   6.062  17.599  0.00  0.00    +0.000 A 
ATOM      9  C   UNL     1       5.070   7.223  17.276  0.00  0.00    +0.000 C 
BRANCH   7  10
ATOM     10  C   UNL     1       5.542   4.168  16.509  0.00  0.00    +0.000 C 
ATOM     11  C   UNL     1       5.467   4.540  15.020  0.00  0.00    +0.000 C 
BRANCH  10  12
ATOM     12  C   UNL     1       6.950   4.498  17.032  0.00  0.00    +0.000 C 
BRANCH  12  13
ATOM     13  O   UNL     1       7.069   4.433  18.452  0.00  0.00    +0.000 OA
ATOM     14  C   UNL     1       7.773   5.583  18.924  0.00  0.00    +0.000 C 
ENDBRANCH  12  13
ENDBRANCH  10  12
ENDBRANCH   7  10
ENDBRANCH   1   3
BRANCH   1  15
ATOM     15  C   UNL     1       1.799   8.391  17.666  0.00  0.00    +0.000 C 
BRANCH  15  16
ATOM     16  S   UNL     1       2.106  10.134  18.145  0.00  0.00    +0.000 S 
BRANCH  16  21
ATOM     17  C   UNL     1      -1.816  10.445  18.227  0.00  0.00    +0.000 A 
ATOM     18  C   UNL     1      -2.052  11.387  19.209  0.00  0.00    +0.000 A 
ATOM     19  C   UNL     1      -0.935  11.885  19.833  0.00  0.00    +0.000 A 
ATOM     20  N   UNL     1       0.315  11.520  19.555  0.00  0.00    +0.000 NA
ATOM     21  C   UNL     1       0.452  10.605  18.583  0.00  0.00    +0.000 A 
ATOM     22  N   UNL     1      -0.570  10.058  17.895  0.00  0.00    +0.000 NA
BRANCH  19  23
ATOM     23  O   UNL     1      -1.039  12.833  20.810  0.00  0.00    +0.000 OA
ATOM     24  H   UNL     1      -0.285  12.741  21.409  0.00  0.00    +0.000 HD
ENDBRANCH  19  23
BRANCH  17  25
ATOM     25  C   UNL     1      -2.974   9.844  17.466  0.00  0.00    +0.000 C 
BRANCH  25  27
ATOM     26  C   UNL     1      -3.483  10.764  15.175  0.00  0.00    +0.000 C 
ATOM     27  C   UNL     1      -2.689   9.735  15.967  0.00  0.00    +0.000 C 
ENDBRANCH  25  27
ENDBRANCH  17  25
ENDBRANCH  16  21
ENDBRANCH  15  16
ENDBRANCH   1  15
TORSDOF 10
ENDMDL
MODEL 4
REMARK VINA RESULT:      -6.6      3.847      5.959
REMARK  Name = 
REMARK  15 active torsions:
REMARK  status: ('A' for Active; 'I' for Inactive)
REMARK    1  A    between atoms: C_1  and  C_2
REMARK    2  A    between atoms: C_2  and  C_3
REMARK    3  A    between atoms: C_3  and  C_4
REMARK    4  A    between atoms: C_6  and  O_7
REMARK    5  A    between atoms: C_9  and  S_10
REMARK    6  A    between atoms: S_10  and  C_11
REMARK    7  A    between atoms: C_11  and  C_12
REMARK    8  A    between atoms: C_12  and  C_14
REMARK    9  A    between atoms: C_16  and  C_17
REMARK   10  A    between atoms: N_18  and  C_19
REMARK   11  A    between atoms: C_19  and  C_20
REMARK   12  A    between atoms: C_19  and  C_21
REMARK   13  A    between atoms: C_21  and  O_22
REMARK   14  A    between atoms: O_22  and  C_23
REMARK   15  A    between atoms: C_24  and  C_25
REMARK                            x       y       z     vdW  Elec       q    Type
REMARK                         _______ _______ _______ _____ _____    ______ ____
ROOT
ATOM      1  C   UNL     1       2.448   6.637  19.312  0.00  0.00    +0.000 C 
ATOM      2  O   UNL     1       2.594   6.607  18.087  0.00  0.00    +0.000 OA
ENDROOT
BRANCH   1   3
ATOM      3  C   UNL     1       1.696   7.738  19.954  0.00  0.00    +0.000 A 
ATOM      4  C   UNL     1       1.117   7.787  21.245  0.00  0.00    +0.000 A 
ATOM      5  C   UNL     1       0.555   9.036  21.430  0.00  0.00    +0.000 A 
ATOM      6  C   UNL     1      -0.127   9.540  22.658  0.00  0.00    +0.000 C 
ATOM      7  N   UNL     1       0.740   9.770  20.262  0.00  0.00    +0.000 N 
ATOM      8  C   UNL     1       1.417   8.966  19.351  0.00  0.00    +0.000 A 
ATOM      9  C   UNL     1       1.798   9.337  17.953  0.00  0.00    +0.000 C 
BRANCH   7  10
ATOM     10  C   UNL     1       0.334  11.175  20.102  0.00  0.00    +0.000 C 
ATOM     11  C   UNL     1      -1.155  11.325  19.755  0.00  0.00    +0.000 C 
BRANCH  10  12
ATOM     12  C   UNL     1       0.663  12.099  21.288  0.00  0.00    +0.000 C 
BRANCH  12  13
ATOM     13  O   UNL     1       1.781  12.955  21.061  0.00  0.00    +0.000 OA
ATOM     14  C   UNL     1       2.092  12.972  19.667  0.00  0.00    +0.000 C 
ENDBRANCH  12  13
ENDBRANCH  10  12
ENDBRANCH   7  10
ENDBRANCH   1   3
BRANCH   1  15
ATOM     15  C   UNL     1       2.983   5.502  20.176  0.00  0.00    +0.000 C 
BRANCH  15  16
ATOM     16  S   UNL     1       3.432   4.040  19.163  0.00  0.00    +0.000 S 
BRANCH  16  21
ATOM     17  C   UNL     1       6.627   4.814  16.998  0.00  0.00    +0.000 A 
ATOM     18  C   UNL     1       7.568   5.206  17.928  0.00  0.00    +0.000 A 
ATOM     19  C   UNL     1       7.141   5.227  19.233  0.00  0.00    +0.000 A 
ATOM     20  N   UNL     1       5.912   4.906  19.632  0.00  0.00    +0.000 NA
ATOM     21  C   UNL     1       5.063   4.530  18.663  0.00  0.00    +0.000 A 
ATOM     22  N   UNL     1       5.377   4.460  17.354  0.00  0.00    +0.000 NA
BRANCH  19  23
ATOM     23  O   UNL     1       7.985   5.583  20.244  0.00  0.00    +0.000 OA
ATOM     24  H   UNL     1       8.577   6.277  19.922  0.00  0.00    +0.000 HD
ENDBRANCH  19  23
BRANCH  17  25
ATOM     25  C   UNL     1       6.996   4.740  15.535  0.00  0.00    +0.000 C 
BRANCH  25  27
ATOM     26  C   UNL     1       6.175   3.736  13.373  0.00  0.00    +0.000 C 
ATOM     27  C   UNL     1       5.782   4.478  14.643  0.00  0.00    +0.000 C 
ENDBRANCH  25  27
ENDBRANCH  17  25
ENDBRANCH  16  21
ENDBRANCH  15  16
ENDBRANCH   1  15
TORSDOF 10
ENDMDL
MODEL 5
REMARK VINA RESULT:      -6.5      3.075      5.481
REMARK  Name = 
REMARK  15 active torsions:
REMARK  status: ('A' for Active; 'I' for Inactive)
REMARK    1  A    between atoms: C_1  and  C_2
REMARK    2  A    between atoms: C_2  and  C_3
REMARK    3  A    between atoms: C_3  and  C_4
REMARK    4  A    between atoms: C_6  and  O_7
REMARK    5  A    between atoms: C_9  and  S_10
REMARK    6  A    between atoms: S_10  and  C_11
REMARK    7  A    between atoms: C_11  and  C_12
REMARK    8  A    between atoms: C_12  and  C_14
REMARK    9  A    between atoms: C_16  and  C_17
REMARK   10  A    between atoms: N_18  and  C_19
REMARK   11  A    between atoms: C_19  and  C_20
REMARK   12  A    between atoms: C_19  and  C_21
REMARK   13  A    between atoms: C_21  and  O_22
REMARK   14  A    between atoms: O_22  and  C_23
REMARK   15  A    between atoms: C_24  and  C_25
REMARK                            x       y       z     vdW  Elec       q    Type
REMARK                         _______ _______ _______ _____ _____    ______ ____
ROOT
ATOM      1  C   UNL     1       4.771   3.659  16.420  0.00  0.00    +0.000 C 
ATOM      2  O   UNL     1       5.485   2.653  16.358  0.00  0.00    +0.000 OA
ENDROOT
BRANCH   1   3
ATOM      3  C   UNL     1       3.611   3.704  17.337  0.00  0.00    +0.000 A 
ATOM      4  C   UNL     1       2.478   2.857  17.380  0.00  0.00    +0.000 A 
ATOM      5  C   UNL     1       1.675   3.247  18.435  0.00  0.00    +0.000 A 
ATOM      6  C   UNL     1       0.398   2.610  18.875  0.00  0.00    +0.000 C 
ATOM      7  N   UNL     1       2.265   4.351  19.042  0.00  0.00    +0.000 N 
ATOM      8  C   UNL     1       3.438   4.644  18.354  0.00  0.00    +0.000 A 
ATOM      9  C   UNL     1       4.376   5.773  18.642  0.00  0.00    +0.000 C 
BRANCH   7  10
ATOM     10  C   UNL     1       1.734   5.008  20.247  0.00  0.00    +0.000 C 
ATOM     11  C   UNL     1       2.323   4.432  21.544  0.00  0.00    +0.000 C 
BRANCH  10  12
ATOM     12  C   UNL     1       1.867   6.540  20.280  0.00  0.00    +0.000 C 
BRANCH  12  13
ATOM     13  O   UNL     1       0.869   7.190  21.065  0.00  0.00    +0.000 OA
ATOM     14  C   UNL     1       1.336   8.482  21.454  0.00  0.00    +0.000 C 
ENDBRANCH  12  13
ENDBRANCH  10  12
ENDBRANCH   7  10
ENDBRANCH   1   3
BRANCH   1  15
ATOM     15  C   UNL     1       5.119   4.896  15.602  0.00  0.00    +0.000 C 
BRANCH  15  16
ATOM     16  S   UNL     1       6.922   5.014  15.292  0.00  0.00    +0.000 S 
BRANCH  16  21
ATOM     17  C   UNL     1       7.903   7.862  17.826  0.00  0.00    +0.000 A 
ATOM     18  C   UNL     1       8.220   7.179  18.982  0.00  0.00    +0.000 A 
ATOM     19  C   UNL     1       8.092   5.813  18.920  0.00  0.00    +0.000 A 
ATOM     20  N   UNL     1       7.690   5.139  17.844  0.00  0.00    +0.000 NA
ATOM     21  C   UNL     1       7.408   5.881  16.762  0.00  0.00    +0.000 A 
ATOM     22  N   UNL     1       7.511   7.224  16.706  0.00  0.00    +0.000 NA
BRANCH  19  23
ATOM     23  O   UNL     1       8.391   5.028  19.995  0.00  0.00    +0.000 OA
ATOM     24  H   UNL     1       8.888   4.258  19.685  0.00  0.00    +0.000 HD
ENDBRANCH  19  23
BRANCH  17  25
ATOM     25  C   UNL     1       8.024   9.367  17.781  0.00  0.00    +0.000 C 
BRANCH  25  27
ATOM     26  C   UNL     1       9.340  11.376  18.546  0.00  0.00    +0.000 C 
ATOM     27  C   UNL     1       9.072   9.894  18.762  0.00  0.00    +0.000 C 
ENDBRANCH  25  27
ENDBRANCH  17  25
ENDBRANCH  16  21
ENDBRANCH  15  16
ENDBRANCH   1  15
TORSDOF 10
ENDMDL
MODEL 6
REMARK VINA RESULT:      -6.3      4.454      8.508
REMARK  Name = 
REMARK  15 active torsions:
REMARK  status: ('A' for Active; 'I' for Inactive)
REMARK    1  A    between atoms: C_1  and  C_2
REMARK    2  A    between atoms: C_2  and  C_3
REMARK    3  A    between atoms: C_3  and  C_4
REMARK    4  A    between atoms: C_6  and  O_7
REMARK    5  A    between atoms: C_9  and  S_10
REMARK    6  A    between atoms: S_10  and  C_11
REMARK    7  A    between atoms: C_11  and  C_12
REMARK    8  A    between atoms: C_12  and  C_14
REMARK    9  A    between atoms: C_16  and  C_17
REMARK   10  A    between atoms: N_18  and  C_19
REMARK   11  A    between atoms: C_19  and  C_20
REMARK   12  A    between atoms: C_19  and  C_21
REMARK   13  A    between atoms: C_21  and  O_22
REMARK   14  A    between atoms: O_22  and  C_23
REMARK   15  A    between atoms: C_24  and  C_25
REMARK                            x       y       z     vdW  Elec       q    Type
REMARK                         _______ _______ _______ _____ _____    ______ ____
ROOT
ATOM      1  C   UNL     1       2.289   7.515  18.393  0.00  0.00    +0.000 C 
ATOM      2  O   UNL     1       1.668   8.141  17.529  0.00  0.00    +0.000 OA
ENDROOT
BRANCH   1   3
ATOM      3  C   UNL     1       2.929   6.221  18.071  0.00  0.00    +0.000 A 
ATOM      4  C   UNL     1       2.471   4.909  18.339  0.00  0.00    +0.000 A 
ATOM      5  C   UNL     1       3.376   4.008  17.812  0.00  0.00    +0.000 A 
ATOM      6  C   UNL     1       3.274   2.519  17.828  0.00  0.00    +0.000 C 
ATOM      7  N   UNL     1       4.421   4.729  17.242  0.00  0.00    +0.000 N 
ATOM      8  C   UNL     1       4.158   6.083  17.423  0.00  0.00    +0.000 A 
ATOM      9  C   UNL     1       5.031   7.220  16.996  0.00  0.00    +0.000 C 
BRANCH   7  10
ATOM     10  C   UNL     1       5.546   4.114  16.521  0.00  0.00    +0.000 C 
ATOM     11  C   UNL     1       5.492   4.372  15.008  0.00  0.00    +0.000 C 
BRANCH  10  12
ATOM     12  C   UNL     1       6.947   4.484  17.038  0.00  0.00    +0.000 C 
BRANCH  12  13
ATOM     13  O   UNL     1       7.071   4.434  18.458  0.00  0.00    +0.000 OA
ATOM     14  C   UNL     1       7.710   5.623  18.922  0.00  0.00    +0.000 C 
ENDBRANCH  12  13
ENDBRANCH  10  12
ENDBRANCH   7  10
ENDBRANCH   1   3
BRANCH   1  15
ATOM     15  C   UNL     1       2.461   8.101  19.788  0.00  0.00    +0.000 C 
BRANCH  15  16
ATOM     16  S   UNL     1       1.059   7.655  20.884  0.00  0.00    +0.000 S 
BRANCH  16  21
ATOM     17  C   UNL     1      -0.921  10.846  19.705  0.00  0.00    +0.000 A 
ATOM     18  C   UNL     1      -1.070  11.587  20.861  0.00  0.00    +0.000 A 
ATOM     19  C   UNL     1      -0.541  11.027  21.997  0.00  0.00    +0.000 A 
ATOM     20  N   UNL     1       0.081   9.850  22.043  0.00  0.00    +0.000 NA
ATOM     21  C   UNL     1       0.187   9.201  20.873  0.00  0.00    +0.000 A 
ATOM     22  N   UNL     1      -0.282   9.661  19.696  0.00  0.00    +0.000 NA
BRANCH  19  23
ATOM     23  O   UNL     1      -0.613  11.671  23.198  0.00  0.00    +0.000 OA
ATOM     24  H   UNL     1       0.278  11.946  23.454  0.00  0.00    +0.000 HD
ENDBRANCH  19  23
BRANCH  17  25
ATOM     25  C   UNL     1      -1.452  11.377  18.395  0.00  0.00    +0.000 C 
BRANCH  25  27
ATOM     26  C   UNL     1      -3.215   9.792  17.538  0.00  0.00    +0.000 C 
ATOM     27  C   UNL     1      -1.773  10.259  17.403  0.00  0.00    +0.000 C 
ENDBRANCH  25  27
ENDBRANCH  17  25
ENDBRANCH  16  21
ENDBRANCH  15  16
ENDBRANCH   1  15
TORSDOF 10
ENDMDL
MODEL 7
REMARK VINA RESULT:      -6.3      2.872      5.165
REMARK  Name = 
REMARK  15 active torsions:
REMARK  status: ('A' for Active; 'I' for Inactive)
REMARK    1  A    between atoms: C_1  and  C_2
REMARK    2  A    between atoms: C_2  and  C_3
REMARK    3  A    between atoms: C_3  and  C_4
REMARK    4  A    between atoms: C_6  and  O_7
REMARK    5  A    between atoms: C_9  and  S_10
REMARK    6  A    between atoms: S_10  and  C_11
REMARK    7  A    between atoms: C_11  and  C_12
REMARK    8  A    between atoms: C_12  and  C_14
REMARK    9  A    between atoms: C_16  and  C_17
REMARK   10  A    between atoms: N_18  and  C_19
REMARK   11  A    between atoms: C_19  and  C_20
REMARK   12  A    between atoms: C_19  and  C_21
REMARK   13  A    between atoms: C_21  and  O_22
REMARK   14  A    between atoms: O_22  and  C_23
REMARK   15  A    between atoms: C_24  and  C_25
REMARK                            x       y       z     vdW  Elec       q    Type
REMARK                         _______ _______ _______ _____ _____    ______ ____
ROOT
ATOM      1  C   UNL     1       4.646   4.820  16.425  0.00  0.00    +0.000 C 
ATOM      2  O   UNL     1       4.540   5.999  16.075  0.00  0.00    +0.000 OA
ENDROOT
BRANCH   1   3
ATOM      3  C   UNL     1       3.703   4.238  17.405  0.00  0.00    +0.000 A 
ATOM      4  C   UNL     1       2.563   3.431  17.174  0.00  0.00    +0.000 A 
ATOM      5  C   UNL     1       2.014   3.082  18.393  0.00  0.00    +0.000 A 
ATOM      6  C   UNL     1       0.827   2.207  18.625  0.00  0.00    +0.000 C 
ATOM      7  N   UNL     1       2.770   3.683  19.395  0.00  0.00    +0.000 N 
ATOM      8  C   UNL     1       3.788   4.411  18.788  0.00  0.00    +0.000 A 
ATOM      9  C   UNL     1       4.819   5.242  19.483  0.00  0.00    +0.000 C 
BRANCH   7  10
ATOM     10  C   UNL     1       2.531   3.487  20.834  0.00  0.00    +0.000 C 
ATOM     11  C   UNL     1       1.036   3.486  21.191  0.00  0.00    +0.000 C 
BRANCH  10  12
ATOM     12  C   UNL     1       3.189   2.243  21.452  0.00  0.00    +0.000 C 
BRANCH  12  13
ATOM     13  O   UNL     1       4.592   2.149  21.207  0.00  0.00    +0.000 OA
ATOM     14  C   UNL     1       4.836   1.153  20.213  0.00  0.00    +0.000 C 
ENDBRANCH  12  13
ENDBRANCH  10  12
ENDBRANCH   7  10
ENDBRANCH   1   3
BRANCH   1  15
ATOM     15  C   UNL     1       5.710   3.928  15.799  0.00  0.00    +0.000 C 
BRANCH  15  16
ATOM     16  S   UNL     1       7.136   4.906  15.190  0.00  0.00    +0.000 S 
BRANCH  16  21
ATOM     17  C   UNL     1       7.881   7.820  17.729  0.00  0.00    +0.000 A 
ATOM     18  C   UNL     1       8.166   7.164  18.909  0.00  0.00    +0.000 A 
ATOM     19  C   UNL     1       8.093   5.794  18.859  0.00  0.00    +0.000 A 
ATOM     20  N   UNL     1       7.771   5.091  17.775  0.00  0.00    +0.000 NA
ATOM     21  C   UNL     1       7.515   5.809  16.670  0.00  0.00    +0.000 A 
ATOM     22  N   UNL     1       7.569   7.154  16.601  0.00  0.00    +0.000 NA
BRANCH  19  23
ATOM     23  O   UNL     1       8.368   5.034  19.959  0.00  0.00    +0.000 OA
ATOM     24  H   UNL     1       8.800   5.592  20.620  0.00  0.00    +0.000 HD
ENDBRANCH  19  23
BRANCH  17  25
ATOM     25  C   UNL     1       7.947   9.328  17.669  0.00  0.00    +0.000 C 
BRANCH  25  27
ATOM     26  C   UNL     1       9.150  11.404  18.440  0.00  0.00    +0.000 C 
ATOM     27  C   UNL     1       9.002   9.900  18.617  0.00  0.00    +0.000 C 
ENDBRANCH  25  27
ENDBRANCH  17  25
ENDBRANCH  16  21
ENDBRANCH  15  16
ENDBRANCH   1  15
TORSDOF 10
ENDMDL
MODEL 8
REMARK VINA RESULT:      -6.3      4.320      8.641
REMARK  Name = 
REMARK  15 active torsions:
REMARK  status: ('A' for Active; 'I' for Inactive)
REMARK    1  A    between atoms: C_1  and  C_2
REMARK    2  A    between atoms: C_2  and  C_3
REMARK    3  A    between atoms: C_3  and  C_4
REMARK    4  A    between atoms: C_6  and  O_7
REMARK    5  A    between atoms: C_9  and  S_10
REMARK    6  A    between atoms: S_10  and  C_11
REMARK    7  A    between atoms: C_11  and  C_12
REMARK    8  A    between atoms: C_12  and  C_14
REMARK    9  A    between atoms: C_16  and  C_17
REMARK   10  A    between atoms: N_18  and  C_19
REMARK   11  A    between atoms: C_19  and  C_20
REMARK   12  A    between atoms: C_19  and  C_21
REMARK   13  A    between atoms: C_21  and  O_22
REMARK   14  A    between atoms: O_22  and  C_23
REMARK   15  A    between atoms: C_24  and  C_25
REMARK                            x       y       z     vdW  Elec       q    Type
REMARK                         _______ _______ _______ _____ _____    ______ ____
ROOT
ATOM      1  C   UNL     1       2.303   7.373  18.821  0.00  0.00    +0.000 C 
ATOM      2  O   UNL     1       2.238   7.613  20.030  0.00  0.00    +0.000 OA
ENDROOT
BRANCH   1   3
ATOM      3  C   UNL     1       2.958   6.140  18.332  0.00  0.00    +0.000 A 
ATOM      4  C   UNL     1       2.538   4.795  18.469  0.00  0.00    +0.000 A 
ATOM      5  C   UNL     1       3.441   3.981  17.812  0.00  0.00    +0.000 A 
ATOM      6  C   UNL     1       3.370   2.497  17.665  0.00  0.00    +0.000 C 
ATOM      7  N   UNL     1       4.447   4.787  17.288  0.00  0.00    +0.000 N 
ATOM      8  C   UNL     1       4.163   6.106  17.628  0.00  0.00    +0.000 A 
ATOM      9  C   UNL     1       4.994   7.305  17.299  0.00  0.00    +0.000 C 
BRANCH   7  10
ATOM     10  C   UNL     1       5.555   4.284  16.461  0.00  0.00    +0.000 C 
ATOM     11  C   UNL     1       5.429   4.696  14.987  0.00  0.00    +0.000 C 
BRANCH  10  12
ATOM     12  C   UNL     1       6.967   4.641  16.957  0.00  0.00    +0.000 C 
BRANCH  12  13
ATOM     13  O   UNL     1       7.161   4.423  18.354  0.00  0.00    +0.000 OA
ATOM     14  C   UNL     1       7.718   5.597  18.946  0.00  0.00    +0.000 C 
ENDBRANCH  12  13
ENDBRANCH  10  12
ENDBRANCH   7  10
ENDBRANCH   1   3
BRANCH   1  15
ATOM     15  C   UNL     1       1.649   8.314  17.817  0.00  0.00    +0.000 C 
BRANCH  15  16
ATOM     16  S   UNL     1       2.218  10.042  18.043  0.00  0.00    +0.000 S 
BRANCH  16  21
ATOM     17  C   UNL     1      -0.416  11.128  20.759  0.00  0.00    +0.000 A 
ATOM     18  C   UNL     1      -1.447  11.672  20.019  0.00  0.00    +0.000 A 
ATOM     19  C   UNL     1      -1.256  11.691  18.659  0.00  0.00    +0.000 A 
ATOM     20  N   UNL     1      -0.170  11.233  18.041  0.00  0.00    +0.000 NA
ATOM     21  C   UNL     1       0.779  10.715  18.836  0.00  0.00    +0.000 A 
ATOM     22  N   UNL     1       0.693  10.633  20.178  0.00  0.00    +0.000 NA
BRANCH  19  23
ATOM     23  O   UNL     1      -2.210  12.191  17.821  0.00  0.00    +0.000 OA
ATOM     24  H   UNL     1      -1.789  12.810  17.209  0.00  0.00    +0.000 HD
ENDBRANCH  19  23
BRANCH  17  25
ATOM     25  C   UNL     1      -0.530  11.043  22.262  0.00  0.00    +0.000 C 
BRANCH  25  27
ATOM     26  C   UNL     1      -0.547   8.527  22.115  0.00  0.00    +0.000 C 
ATOM     27  C   UNL     1       0.048   9.740  22.816  0.00  0.00    +0.000 C 
ENDBRANCH  25  27
ENDBRANCH  17  25
ENDBRANCH  16  21
ENDBRANCH  15  16
ENDBRANCH   1  15
TORSDOF 10
ENDMDL
MODEL 9
REMARK VINA RESULT:      -6.3      5.344      8.451
REMARK  Name = 
REMARK  15 active torsions:
REMARK  status: ('A' for Active; 'I' for Inactive)
REMARK    1  A    between atoms: C_1  and  C_2
REMARK    2  A    between atoms: C_2  and  C_3
REMARK    3  A    between atoms: C_3  and  C_4
REMARK    4  A    between atoms: C_6  and  O_7
REMARK    5  A    between atoms: C_9  and  S_10
REMARK    6  A    between atoms: S_10  and  C_11
REMARK    7  A    between atoms: C_11  and  C_12
REMARK    8  A    between atoms: C_12  and  C_14
REMARK    9  A    between atoms: C_16  and  C_17
REMARK   10  A    between atoms: N_18  and  C_19
REMARK   11  A    between atoms: C_19  and  C_20
REMARK   12  A    between atoms: C_19  and  C_21
REMARK   13  A    between atoms: C_21  and  O_22
REMARK   14  A    between atoms: O_22  and  C_23
REMARK   15  A    between atoms: C_24  and  C_25
REMARK                            x       y       z     vdW  Elec       q    Type
REMARK                         _______ _______ _______ _____ _____    ______ ____
ROOT
ATOM      1  C   UNL     1       1.996   8.203  18.998  0.00  0.00    +0.000 C 
ATOM      2  O   UNL     1       1.765   8.217  20.211  0.00  0.00    +0.000 OA
ENDROOT
BRANCH   1   3
ATOM      3  C   UNL     1       2.824   7.132  18.401  0.00  0.00    +0.000 A 
ATOM      4  C   UNL     1       3.781   7.221  17.363  0.00  0.00    +0.000 A 
ATOM      5  C   UNL     1       4.340   5.972  17.169  0.00  0.00    +0.000 A 
ATOM      6  C   UNL     1       5.420   5.612  16.203  0.00  0.00    +0.000 C 
ATOM      7  N   UNL     1       3.727   5.083  18.047  0.00  0.00    +0.000 N 
ATOM      8  C   UNL     1       2.782   5.790  18.783  0.00  0.00    +0.000 A 
ATOM      9  C   UNL     1       1.865   5.226  19.822  0.00  0.00    +0.000 C 
BRANCH   7  10
ATOM     10  C   UNL     1       4.105   3.668  18.181  0.00  0.00    +0.000 C 
ATOM     11  C   UNL     1       4.529   3.301  19.611  0.00  0.00    +0.000 C 
BRANCH  10  12
ATOM     12  C   UNL     1       3.056   2.653  17.699  0.00  0.00    +0.000 C 
BRANCH  12  13
ATOM     13  O   UNL     1       2.457   1.897  18.750  0.00  0.00    +0.000 OA
ATOM     14  C   UNL     1       1.043   2.096  18.733  0.00  0.00    +0.000 C 
ENDBRANCH  12  13
ENDBRANCH  10  12
ENDBRANCH   7  10
ENDBRANCH   1   3
BRANCH   1  15
ATOM     15  C   UNL     1       1.374   9.255  18.088  0.00  0.00    +0.000 C 
BRANCH  15  16
ATOM     16  S   UNL     1       1.347  10.906  18.886  0.00  0.00    +0.000 S 
BRANCH  16  21
ATOM     17  C   UNL     1      -2.481  10.801  17.977  0.00  0.00    +0.000 A 
ATOM     18  C   UNL     1      -3.053  11.697  18.859  0.00  0.00    +0.000 A 
ATOM     19  C   UNL     1      -2.188  12.299  19.738  0.00  0.00    +0.000 A 
ATOM     20  N   UNL     1      -0.877  12.072  19.787  0.00  0.00    +0.000 NA
ATOM     21  C   UNL     1      -0.404  11.192  18.890  0.00  0.00    +0.000 A 
ATOM     22  N   UNL     1      -1.157  10.553  17.973  0.00  0.00    +0.000 NA
BRANCH  19  23
ATOM     23  O   UNL     1      -2.633  13.214  20.648  0.00  0.00    +0.000 OA
ATOM     24  H   UNL     1      -1.872  13.701  20.992  0.00  0.00    +0.000 HD
ENDBRANCH  19  23
BRANCH  17  25
ATOM     25  C   UNL     1      -3.340  10.094  16.956  0.00  0.00    +0.000 C 
BRANCH  25  27
ATOM     26  C   UNL     1      -2.956  10.068  14.465  0.00  0.00    +0.000 C 
ATOM     27  C   UNL     1      -3.456  10.881  15.650  0.00  0.00    +0.000 C 
ENDBRANCH  25  27
ENDBRANCH  17  25
ENDBRANCH  16  21
ENDBRANCH  15  16
ENDBRANCH   1  15
TORSDOF 10
ENDMDL
