MODEL 1
REMARK VINA RESULT:      -7.4      0.000      0.000
REMARK  Name = 
REMARK  4 active torsions:
REMARK  status: ('A' for Active; 'I' for Inactive)
REMARK    1  A    between atoms: C_2  and  C_13
REMARK    2  A    between atoms: N_3  and  N_4
REMARK    3  A    between atoms: C_5  and  C_6
REMARK    4  A    between atoms: C_11  and  O_12
REMARK                            x       y       z     vdW  Elec       q    Type
REMARK                         _______ _______ _______ _____ _____    ______ ____
ROOT
ATOM      1  O   UNL     1       5.090   5.855  16.099  0.00  0.00    +0.000 OA
ATOM      2  C   UNL     1       5.455   4.739  15.733  0.00  0.00    +0.000 C 
ATOM      3  N   UNL     1       5.297   3.566  16.462  0.00  0.00    +0.000 N 
ATOM      4  H   UNL     1       5.723   2.691  16.178  0.00  0.00    +0.000 HD
ENDROOT
BRANCH   2   5
ATOM      5  C   UNL     1       6.153   4.623  14.433  0.00  0.00    +0.000 A 
ATOM      6  C   UNL     1       5.705   3.689  13.493  0.00  0.00    +0.000 A 
ATOM      7  C   UNL     1       6.362   3.569  12.272  0.00  0.00    +0.000 A 
ATOM      8  C   UNL     1       7.457   4.387  12.034  0.00  0.00    +0.000 A 
ATOM      9  N   UNL     1       7.929   5.286  12.929  0.00  0.00    +0.000 NA
ATOM     10  C   UNL     1       7.274   5.373  14.113  0.00  0.00    +0.000 A 
ENDBRANCH   2   5
BRANCH   3  11
ATOM     11  N   UNL     1       4.673   3.630  17.673  0.00  0.00    +0.000 NA
ATOM     12  C   UNL     1       3.609   2.907  17.827  0.00  0.00    +0.000 C 
BRANCH  12  13
ATOM     13  C   UNL     1       2.864   2.917  19.106  0.00  0.00    +0.000 A 
ATOM     14  C   UNL     1       1.512   3.287  19.117  0.00  0.00    +0.000 A 
ATOM     15  C   UNL     1       0.793   3.289  20.313  0.00  0.00    +0.000 A 
ATOM     16  C   UNL     1       1.420   2.921  21.502  0.00  0.00    +0.000 A 
ATOM     17  C   UNL     1       2.768   2.554  21.501  0.00  0.00    +0.000 A 
ATOM     18  C   UNL     1       3.488   2.554  20.304  0.00  0.00    +0.000 A 
BRANCH  18  19
ATOM     19  O   UNL     1       4.807   2.193  20.309  0.00  0.00    +0.000 OA
ATOM     20  H   UNL     1       4.946   1.505  19.636  0.00  0.00    +0.000 HD
ENDBRANCH  18  19
ENDBRANCH  12  13
ENDBRANCH   3  11
TORSDOF 4
ENDMDL
MODEL 2
REMARK VINA RESULT:      -7.3      1.555      7.573
REMARK  Name = 
REMARK  4 active torsions:
REMARK  status: ('A' for Active; 'I' for Inactive)
REMARK    1  A    between atoms: C_2  and  C_13
REMARK    2  A    between atoms: N_3  and  N_4
REMARK    3  A    between atoms: C_5  and  C_6
REMARK    4  A    between atoms: C_11  and  O_12
REMARK                            x       y       z     vdW  Elec       q    Type
REMARK                         _______ _______ _______ _____ _____    ______ ____
ROOT
ATOM      1  O   UNL     1       3.551   1.826  17.358  0.00  0.00    +0.000 OA
ATOM      2  C   UNL     1       3.788   2.759  18.122  0.00  0.00    +0.000 C 
ATOM      3  N   UNL     1       4.768   3.725  17.928  0.00  0.00    +0.000 N 
ATOM      4  H   UNL     1       5.011   4.402  18.643  0.00  0.00    +0.000 HD
ENDROOT
BRANCH   2   5
ATOM      5  C   UNL     1       3.002   2.855  19.373  0.00  0.00    +0.000 A 
ATOM      6  C   UNL     1       1.691   3.341  19.326  0.00  0.00    +0.000 A 
ATOM      7  C   UNL     1       0.950   3.441  20.500  0.00  0.00    +0.000 A 
ATOM      8  C   UNL     1       1.551   3.057  21.689  0.00  0.00    +0.000 A 
ATOM      9  N   UNL     1       2.823   2.602  21.774  0.00  0.00    +0.000 NA
ATOM     10  C   UNL     1       3.523   2.525  20.615  0.00  0.00    +0.000 A 
ENDBRANCH   2   5
BRANCH   3  11
ATOM     11  N   UNL     1       5.527   3.665  16.795  0.00  0.00    +0.000 NA
ATOM     12  C   UNL     1       5.092   4.310  15.760  0.00  0.00    +0.000 C 
BRANCH  12  13
ATOM     13  C   UNL     1       5.847   4.298  14.487  0.00  0.00    +0.000 A 
ATOM     14  C   UNL     1       5.355   3.567  13.397  0.00  0.00    +0.000 A 
ATOM     15  C   UNL     1       6.049   3.556  12.186  0.00  0.00    +0.000 A 
ATOM     16  C   UNL     1       7.236   4.275  12.059  0.00  0.00    +0.000 A 
ATOM     17  C   UNL     1       7.736   5.003  13.141  0.00  0.00    +0.000 A 
ATOM     18  C   UNL     1       7.042   5.012  14.353  0.00  0.00    +0.000 A 
BRANCH  18  19
ATOM     19  O   UNL     1       7.536   5.727  15.410  0.00  0.00    +0.000 OA
ATOM     20  H   UNL     1       8.473   5.926  15.241  0.00  0.00    +0.000 HD
ENDBRANCH  18  19
ENDBRANCH  12  13
ENDBRANCH   3  11
TORSDOF 4
ENDMDL
MODEL 3
REMARK VINA RESULT:      -7.1      0.981      1.349
REMARK  Name = 
REMARK  4 active torsions:
REMARK  status: ('A' for Active; 'I' for Inactive)
REMARK    1  A    between atoms: C_2  and  C_13
REMARK    2  A    between atoms: N_3  and  N_4
REMARK    3  A    between atoms: C_5  and  C_6
REMARK    4  A    between atoms: C_11  and  O_12
REMARK                            x       y       z     vdW  Elec       q    Type
REMARK                         _______ _______ _______ _____ _____    ______ ____
ROOT
ATOM      1  O   UNL     1       7.027   4.370  16.699  0.00  0.00    +0.000 OA
ATOM      2  C   UNL     1       6.155   4.247  15.841  0.00  0.00    +0.000 C 
ATOM      3  N   UNL     1       4.808   4.017  16.096  0.00  0.00    +0.000 N 
ATOM      4  H   UNL     1       4.147   3.799  15.358  0.00  0.00    +0.000 HD
ENDROOT
BRANCH   2   5
ATOM      5  C   UNL     1       6.559   4.308  14.419  0.00  0.00    +0.000 A 
ATOM      6  C   UNL     1       7.533   5.230  14.020  0.00  0.00    +0.000 A 
ATOM      7  C   UNL     1       7.912   5.297  12.682  0.00  0.00    +0.000 A 
ATOM      8  C   UNL     1       7.295   4.441  11.782  0.00  0.00    +0.000 A 
ATOM      9  N   UNL     1       6.336   3.552  12.130  0.00  0.00    +0.000 NA
ATOM     10  C   UNL     1       5.980   3.516  13.439  0.00  0.00    +0.000 A 
ENDBRANCH   2   5
BRANCH   3  11
ATOM     11  N   UNL     1       4.394   3.938  17.394  0.00  0.00    +0.000 NA
ATOM     12  C   UNL     1       3.288   3.305  17.621  0.00  0.00    +0.000 C 
BRANCH  12  13
ATOM     13  C   UNL     1       2.759   3.172  18.998  0.00  0.00    +0.000 A 
ATOM     14  C   UNL     1       1.444   3.570  19.275  0.00  0.00    +0.000 A 
ATOM     15  C   UNL     1       0.927   3.439  20.565  0.00  0.00    +0.000 A 
ATOM     16  C   UNL     1       1.721   2.912  21.582  0.00  0.00    +0.000 A 
ATOM     17  C   UNL     1       3.033   2.517  21.315  0.00  0.00    +0.000 A 
ATOM     18  C   UNL     1       3.551   2.649  20.024  0.00  0.00    +0.000 A 
BRANCH  18  19
ATOM     19  O   UNL     1       4.837   2.260  19.769  0.00  0.00    +0.000 OA
ATOM     20  H   UNL     1       5.407   3.048  19.762  0.00  0.00    +0.000 HD
ENDBRANCH  18  19
ENDBRANCH  12  13
ENDBRANCH   3  11
TORSDOF 4
ENDMDL
MODEL 4
REMARK VINA RESULT:      -7.0      1.875      7.617
REMARK  Name = 
REMARK  4 active torsions:
REMARK  status: ('A' for Active; 'I' for Inactive)
REMARK    1  A    between atoms: C_2  and  C_13
REMARK    2  A    between atoms: N_3  and  N_4
REMARK    3  A    between atoms: C_5  and  C_6
REMARK    4  A    between atoms: C_11  and  O_12
REMARK                            x       y       z     vdW  Elec       q    Type
REMARK                         _______ _______ _______ _____ _____    ______ ____
ROOT
ATOM      1  O   UNL     1       2.444   3.351  16.700  0.00  0.00    +0.000 OA
ATOM      2  C   UNL     1       3.069   3.859  17.629  0.00  0.00    +0.000 C 
ATOM      3  N   UNL     1       4.235   4.602  17.498  0.00  0.00    +0.000 N 
ATOM      4  H   UNL     1       4.784   4.896  18.299  0.00  0.00    +0.000 HD
ENDROOT
BRANCH   2   5
ATOM      5  C   UNL     1       2.574   3.640  19.007  0.00  0.00    +0.000 A 
ATOM      6  C   UNL     1       2.706   4.661  19.955  0.00  0.00    +0.000 A 
ATOM      7  C   UNL     1       2.250   4.458  21.254  0.00  0.00    +0.000 A 
ATOM      8  C   UNL     1       1.682   3.232  21.566  0.00  0.00    +0.000 A 
ATOM      9  N   UNL     1       1.557   2.217  20.679  0.00  0.00    +0.000 NA
ATOM     10  C   UNL     1       2.019   2.440  19.424  0.00  0.00    +0.000 A 
ENDBRANCH   2   5
BRANCH   3  11
ATOM     11  N   UNL     1       4.735   4.815  16.246  0.00  0.00    +0.000 NA
ATOM     12  C   UNL     1       5.608   3.964  15.807  0.00  0.00    +0.000 C 
BRANCH  12  13
ATOM     13  C   UNL     1       6.208   4.118  14.462  0.00  0.00    +0.000 A 
ATOM     14  C   UNL     1       5.736   3.334  13.401  0.00  0.00    +0.000 A 
ATOM     15  C   UNL     1       6.283   3.477  12.125  0.00  0.00    +0.000 A 
ATOM     16  C   UNL     1       7.301   4.403  11.904  0.00  0.00    +0.000 A 
ATOM     17  C   UNL     1       7.779   5.185  12.957  0.00  0.00    +0.000 A 
ATOM     18  C   UNL     1       7.233   5.041  14.234  0.00  0.00    +0.000 A 
BRANCH  18  19
ATOM     19  O   UNL     1       7.705   5.811  15.262  0.00  0.00    +0.000 OA
ATOM     20  H   UNL     1       7.553   6.747  15.047  0.00  0.00    +0.000 HD
ENDBRANCH  18  19
ENDBRANCH  12  13
ENDBRANCH   3  11
TORSDOF 4
ENDMDL
MODEL 5
REMARK VINA RESULT:      -7.0      1.154      1.621
REMARK  Name = 
REMARK  4 active torsions:
REMARK  status: ('A' for Active; 'I' for Inactive)
REMARK    1  A    between atoms: C_2  and  C_13
REMARK    2  A    between atoms: N_3  and  N_4
REMARK    3  A    between atoms: C_5  and  C_6
REMARK    4  A    between atoms: C_11  and  O_12
REMARK                            x       y       z     vdW  Elec       q    Type
REMARK                         _______ _______ _______ _____ _____    ______ ____
ROOT
ATOM      1  O   UNL     1       5.180   5.773  16.209  0.00  0.00    +0.000 OA
ATOM      2  C   UNL     1       5.513   4.668  15.783  0.00  0.00    +0.000 C 
ATOM      3  N   UNL     1       5.335   3.465  16.454  0.00  0.00    +0.000 N 
ATOM      4  H   UNL     1       5.737   2.594  16.121  0.00  0.00    +0.000 HD
ENDROOT
BRANCH   2   5
ATOM      5  C   UNL     1       6.194   4.601  14.471  0.00  0.00    +0.000 A 
ATOM      6  C   UNL     1       5.731   3.706  13.501  0.00  0.00    +0.000 A 
ATOM      7  C   UNL     1       6.372   3.633  12.267  0.00  0.00    +0.000 A 
ATOM      8  C   UNL     1       7.465   4.457  12.047  0.00  0.00    +0.000 A 
ATOM      9  N   UNL     1       7.951   5.319  12.969  0.00  0.00    +0.000 NA
ATOM     10  C   UNL     1       7.313   5.361  14.165  0.00  0.00    +0.000 A 
ENDBRANCH   2   5
BRANCH   3  11
ATOM     11  N   UNL     1       4.726   3.482  17.675  0.00  0.00    +0.000 NA
ATOM     12  C   UNL     1       3.543   2.961  17.750  0.00  0.00    +0.000 C 
BRANCH  12  13
ATOM     13  C   UNL     1       2.804   2.939  19.034  0.00  0.00    +0.000 A 
ATOM     14  C   UNL     1       3.489   2.647  20.221  0.00  0.00    +0.000 A 
ATOM     15  C   UNL     1       2.809   2.635  21.440  0.00  0.00    +0.000 A 
ATOM     16  C   UNL     1       1.444   2.916  21.478  0.00  0.00    +0.000 A 
ATOM     17  C   UNL     1       0.754   3.204  20.299  0.00  0.00    +0.000 A 
ATOM     18  C   UNL     1       1.434   3.214  19.079  0.00  0.00    +0.000 A 
BRANCH  18  19
ATOM     19  O   UNL     1       0.752   3.498  17.927  0.00  0.00    +0.000 OA
ATOM     20  H   UNL     1       0.860   4.443  17.724  0.00  0.00    +0.000 HD
ENDBRANCH  18  19
ENDBRANCH  12  13
ENDBRANCH   3  11
TORSDOF 4
ENDMDL
MODEL 6
REMARK VINA RESULT:      -7.0      1.589      7.527
REMARK  Name = 
REMARK  4 active torsions:
REMARK  status: ('A' for Active; 'I' for Inactive)
REMARK    1  A    between atoms: C_2  and  C_13
REMARK    2  A    between atoms: N_3  and  N_4
REMARK    3  A    between atoms: C_5  and  C_6
REMARK    4  A    between atoms: C_11  and  O_12
REMARK                            x       y       z     vdW  Elec       q    Type
REMARK                         _______ _______ _______ _____ _____    ______ ____
ROOT
ATOM      1  O   UNL     1       5.514   3.865  18.868  0.00  0.00    +0.000 OA
ATOM      2  C   UNL     1       4.313   3.926  18.616  0.00  0.00    +0.000 C 
ATOM      3  N   UNL     1       3.768   4.367  17.416  0.00  0.00    +0.000 N 
ATOM      4  H   UNL     1       2.772   4.518  17.296  0.00  0.00    +0.000 HD
ENDROOT
BRANCH   2   5
ATOM      5  C   UNL     1       3.355   3.539  19.676  0.00  0.00    +0.000 A 
ATOM      6  C   UNL     1       2.037   4.004  19.615  0.00  0.00    +0.000 A 
ATOM      7  C   UNL     1       1.134   3.650  20.614  0.00  0.00    +0.000 A 
ATOM      8  C   UNL     1       1.584   2.844  21.648  0.00  0.00    +0.000 A 
ATOM      9  N   UNL     1       2.856   2.393  21.749  0.00  0.00    +0.000 NA
ATOM     10  C   UNL     1       3.715   2.763  20.767  0.00  0.00    +0.000 A 
ENDBRANCH   2   5
BRANCH   3  11
ATOM     11  N   UNL     1       4.614   4.749  16.416  0.00  0.00    +0.000 NA
ATOM     12  C   UNL     1       5.013   3.828  15.598  0.00  0.00    +0.000 C 
BRANCH  12  13
ATOM     13  C   UNL     1       5.936   4.149  14.486  0.00  0.00    +0.000 A 
ATOM     14  C   UNL     1       5.728   3.572  13.226  0.00  0.00    +0.000 A 
ATOM     15  C   UNL     1       6.583   3.876  12.164  0.00  0.00    +0.000 A 
ATOM     16  C   UNL     1       7.646   4.756  12.357  0.00  0.00    +0.000 A 
ATOM     17  C   UNL     1       7.862   5.333  13.610  0.00  0.00    +0.000 A 
ATOM     18  C   UNL     1       7.008   5.028  14.673  0.00  0.00    +0.000 A 
BRANCH  18  19
ATOM     19  O   UNL     1       7.225   5.596  15.898  0.00  0.00    +0.000 OA
ATOM     20  H   UNL     1       6.596   6.328  16.019  0.00  0.00    +0.000 HD
ENDBRANCH  18  19
ENDBRANCH  12  13
ENDBRANCH   3  11
TORSDOF 4
ENDMDL
MODEL 7
REMARK VINA RESULT:      -6.8      1.095      1.136
REMARK  Name = 
REMARK  4 active torsions:
REMARK  status: ('A' for Active; 'I' for Inactive)
REMARK    1  A    between atoms: C_2  and  C_13
REMARK    2  A    between atoms: N_3  and  N_4
REMARK    3  A    between atoms: C_5  and  C_6
REMARK    4  A    between atoms: C_11  and  O_12
REMARK                            x       y       z     vdW  Elec       q    Type
REMARK                         _______ _______ _______ _____ _____    ______ ____
ROOT
ATOM      1  O   UNL     1       5.016   5.807  16.037  0.00  0.00    +0.000 OA
ATOM      2  C   UNL     1       5.482   4.717  15.711  0.00  0.00    +0.000 C 
ATOM      3  N   UNL     1       5.453   3.567  16.490  0.00  0.00    +0.000 N 
ATOM      4  H   UNL     1       5.959   2.726  16.235  0.00  0.00    +0.000 HD
ENDROOT
BRANCH   2   5
ATOM      5  C   UNL     1       6.168   4.614  14.403  0.00  0.00    +0.000 A 
ATOM      6  C   UNL     1       5.710   3.689  13.458  0.00  0.00    +0.000 A 
ATOM      7  C   UNL     1       6.355   3.582  12.229  0.00  0.00    +0.000 A 
ATOM      8  C   UNL     1       7.447   4.402  11.989  0.00  0.00    +0.000 A 
ATOM      9  N   UNL     1       7.929   5.291  12.887  0.00  0.00    +0.000 NA
ATOM     10  C   UNL     1       7.286   5.367  14.079  0.00  0.00    +0.000 A 
ENDBRANCH   2   5
BRANCH   3  11
ATOM     11  N   UNL     1       4.845   3.622  17.711  0.00  0.00    +0.000 NA
ATOM     12  C   UNL     1       3.578   3.357  17.750  0.00  0.00    +0.000 C 
BRANCH  12  13
ATOM     13  C   UNL     1       2.835   3.396  19.030  0.00  0.00    +0.000 A 
ATOM     14  C   UNL     1       1.955   2.354  19.351  0.00  0.00    +0.000 A 
ATOM     15  C   UNL     1       1.256   2.371  20.560  0.00  0.00    +0.000 A 
ATOM     16  C   UNL     1       1.435   3.427  21.452  0.00  0.00    +0.000 A 
ATOM     17  C   UNL     1       2.307   4.471  21.137  0.00  0.00    +0.000 A 
ATOM     18  C   UNL     1       3.005   4.455  19.927  0.00  0.00    +0.000 A 
BRANCH  18  19
ATOM     19  O   UNL     1       3.858   5.481  19.625  0.00  0.00    +0.000 OA
ATOM     20  H   UNL     1       4.690   5.349  20.112  0.00  0.00    +0.000 HD
ENDBRANCH  18  19
ENDBRANCH  12  13
ENDBRANCH   3  11
TORSDOF 4
ENDMDL
MODEL 8
REMARK VINA RESULT:      -6.8      1.747      7.525
REMARK  Name = 
REMARK  4 active torsions:
REMARK  status: ('A' for Active; 'I' for Inactive)
REMARK    1  A    between atoms: C_2  and  C_13
REMARK    2  A    between atoms: N_3  and  N_4
REMARK    3  A    between atoms: C_5  and  C_6
REMARK    4  A    between atoms: C_11  and  O_12
REMARK                            x       y       z     vdW  Elec       q    Type
REMARK                         _______ _______ _______ _____ _____    ______ ____
ROOT
ATOM      1  O   UNL     1       5.878   4.090  18.653  0.00  0.00    +0.000 OA
ATOM      2  C   UNL     1       4.668   4.241  18.495  0.00  0.00    +0.000 C 
ATOM      3  N   UNL     1       4.064   4.694  17.329  0.00  0.00    +0.000 N 
ATOM      4  H   UNL     1       3.076   4.922  17.283  0.00  0.00    +0.000 HD
ENDROOT
BRANCH   2   5
ATOM      5  C   UNL     1       3.772   3.959  19.639  0.00  0.00    +0.000 A 
ATOM      6  C   UNL     1       3.748   2.674  20.193  0.00  0.00    +0.000 A 
ATOM      7  C   UNL     1       2.902   2.401  21.264  0.00  0.00    +0.000 A 
ATOM      8  C   UNL     1       2.098   3.425  21.742  0.00  0.00    +0.000 A 
ATOM      9  N   UNL     1       2.081   4.672  21.217  0.00  0.00    +0.000 NA
ATOM     10  C   UNL     1       2.909   4.906  20.168  0.00  0.00    +0.000 A 
ENDBRANCH   2   5
BRANCH   3  11
ATOM     11  N   UNL     1       4.854   4.982  16.254  0.00  0.00    +0.000 NA
ATOM     12  C   UNL     1       5.176   3.995  15.479  0.00  0.00    +0.000 C 
BRANCH  12  13
ATOM     13  C   UNL     1       6.034   4.212  14.292  0.00  0.00    +0.000 A 
ATOM     14  C   UNL     1       5.749   3.534  13.099  0.00  0.00    +0.000 A 
ATOM     15  C   UNL     1       6.541   3.738  11.968  0.00  0.00    +0.000 A 
ATOM     16  C   UNL     1       7.618   4.620  12.023  0.00  0.00    +0.000 A 
ATOM     17  C   UNL     1       7.911   5.297  13.209  0.00  0.00    +0.000 A 
ATOM     18  C   UNL     1       7.120   5.091  14.341  0.00  0.00    +0.000 A 
BRANCH  18  19
ATOM     19  O   UNL     1       7.412   5.758  15.500  0.00  0.00    +0.000 OA
ATOM     20  H   UNL     1       7.962   6.531  15.286  0.00  0.00    +0.000 HD
ENDBRANCH  18  19
ENDBRANCH  12  13
ENDBRANCH   3  11
TORSDOF 4
ENDMDL
MODEL 9
REMARK VINA RESULT:      -6.7      1.330      1.974
REMARK  Name = 
REMARK  4 active torsions:
REMARK  status: ('A' for Active; 'I' for Inactive)
REMARK    1  A    between atoms: C_2  and  C_13
REMARK    2  A    between atoms: N_3  and  N_4
REMARK    3  A    between atoms: C_5  and  C_6
REMARK    4  A    between atoms: C_11  and  O_12
REMARK                            x       y       z     vdW  Elec       q    Type
REMARK                         _______ _______ _______ _____ _____    ______ ____
ROOT
ATOM      1  O   UNL     1       4.920   5.660  15.919  0.00  0.00    +0.000 OA
ATOM      2  C   UNL     1       5.400   4.566  15.627  0.00  0.00    +0.000 C 
ATOM      3  N   UNL     1       5.362   3.435  16.433  0.00  0.00    +0.000 N 
ATOM      4  H   UNL     1       5.878   2.591  16.207  0.00  0.00    +0.000 HD
ENDROOT
BRANCH   2   5
ATOM      5  C   UNL     1       6.111   4.436  14.336  0.00  0.00    +0.000 A 
ATOM      6  C   UNL     1       7.241   5.224  14.091  0.00  0.00    +0.000 A 
ATOM      7  C   UNL     1       7.910   5.113  12.875  0.00  0.00    +0.000 A 
ATOM      8  C   UNL     1       7.419   4.217  11.937  0.00  0.00    +0.000 A 
ATOM      9  N   UNL     1       6.318   3.454  12.133  0.00  0.00    +0.000 NA
ATOM     10  C   UNL     1       5.682   3.592  13.323  0.00  0.00    +0.000 A 
ENDBRANCH   2   5
BRANCH   3  11
ATOM     11  N   UNL     1       4.730   3.514  17.639  0.00  0.00    +0.000 NA
ATOM     12  C   UNL     1       3.614   2.869  17.764  0.00  0.00    +0.000 C 
BRANCH  12  13
ATOM     13  C   UNL     1       2.857   2.901  19.036  0.00  0.00    +0.000 A 
ATOM     14  C   UNL     1       3.510   2.595  20.237  0.00  0.00    +0.000 A 
ATOM     15  C   UNL     1       2.812   2.634  21.446  0.00  0.00    +0.000 A 
ATOM     16  C   UNL     1       1.462   2.979  21.459  0.00  0.00    +0.000 A 
ATOM     17  C   UNL     1       0.803   3.282  20.265  0.00  0.00    +0.000 A 
ATOM     18  C   UNL     1       1.501   3.242  19.056  0.00  0.00    +0.000 A 
BRANCH  18  19
ATOM     19  O   UNL     1       0.850   3.540  17.890  0.00  0.00    +0.000 OA
ATOM     20  H   UNL     1       0.976   2.805  17.265  0.00  0.00    +0.000 HD
ENDBRANCH  18  19
ENDBRANCH  12  13
ENDBRANCH   3  11
TORSDOF 4
ENDMDL
