MODEL 1
REMARK VINA RESULT:      -8.2      0.000      0.000
REMARK  Name = 
REMARK  6 active torsions:
REMARK  status: ('A' for Active; 'I' for Inactive)
REMARK    1  A    between atoms: C_1  and  C_2
REMARK    2  A    between atoms: C_4  and  C_5
REMARK    3  A    between atoms: C_10  and  C_12
REMARK    4  A    between atoms: C_12  and  C_13
REMARK    5  A    between atoms: C_18  and  C_19
REMARK    6  A    between atoms: C_24  and  C_25
REMARK                            x       y       z     vdW  Elec       q    Type
REMARK                         _______ _______ _______ _____ _____    ______ ____
ROOT
ATOM      1  C   UNL     1       0.128   9.191  22.336  0.00  0.00    +0.000 C 
ATOM      2  C   UNL     1       0.857   8.783  21.076  0.00  0.00    +0.000 A 
ATOM      3  C   UNL     1       1.082   9.843  20.051  0.00  0.00    +0.000 A 
ATOM      4  C   UNL     1       1.743   9.471  18.945  0.00  0.00    +0.000 A 
ATOM      5  C   UNL     1       2.037  10.421  17.823  0.00  0.00    +0.000 C 
ATOM      6  N   UNL     1       2.176   8.141  18.812  0.00  0.00    +0.000 N 
ATOM      7  N   UNL     1       2.861   7.598  17.781  0.00  0.00    +0.000 NA
ATOM      8  C   UNL     1       3.011   6.313  18.094  0.00  0.00    +0.000 A 
ATOM      9  N   UNL     1       3.624   5.414  17.231  0.00  0.00    +0.000 N 
ATOM     10  C   UNL     1       4.909   5.646  16.770  0.00  0.00    +0.000 C 
ATOM     11  O   UNL     1       5.612   6.611  17.053  0.00  0.00    +0.000 OA
ATOM     12  C   UNL     1       2.408   5.988  19.346  0.00  0.00    +0.000 A 
ATOM     13  C   UNL     1       1.894   7.195  19.806  0.00  0.00    +0.000 A 
ATOM     14  N   UNL     1       1.236   7.541  20.964  0.00  0.00    +0.000 NA
ATOM     15  H   UNL     1       3.334   4.452  17.319  0.00  0.00    +0.000 HD
ENDROOT
BRANCH  12  16
ATOM     16  C   UNL     1       2.384   4.733  20.098  0.00  0.00    +0.000 A 
ATOM     17  C   UNL     1       1.251   4.342  20.827  0.00  0.00    +0.000 A 
ATOM     18  C   UNL     1       1.230   3.135  21.528  0.00  0.00    +0.000 A 
ATOM     19  C   UNL     1       2.335   2.295  21.491  0.00  0.00    +0.000 A 
ATOM     20  F   UNL     1       2.285   1.130  22.152  0.00  0.00    +0.000 F 
ATOM     21  C   UNL     1       3.483   2.649  20.783  0.00  0.00    +0.000 A 
ATOM     22  C   UNL     1       4.676   1.743  20.733  0.00  0.00    +0.000 C 
ATOM     23  C   UNL     1       3.501   3.886  20.109  0.00  0.00    +0.000 A 
ENDBRANCH  12  16
BRANCH  10  24
ATOM     24  C   UNL     1       5.487   4.492  15.960  0.00  0.00    +0.000 C 
BRANCH  24  25
ATOM     25  C   UNL     1       5.905   4.883  14.546  0.00  0.00    +0.000 C 
ATOM     26  C   UNL     1       7.401   5.160  14.419  0.00  0.00    +0.000 C 
ATOM     27  C   UNL     1       7.658   5.095  12.921  0.00  0.00    +0.000 C 
ATOM     28  C   UNL     1       6.627   4.116  12.363  0.00  0.00    +0.000 C 
ATOM     29  C   UNL     1       5.699   3.761  13.525  0.00  0.00    +0.000 C 
ENDBRANCH  24  25
ENDBRANCH  10  24
TORSDOF 3
ENDMDL
MODEL 2
REMARK VINA RESULT:      -8.2      2.764      7.280
REMARK  Name = 
REMARK  6 active torsions:
REMARK  status: ('A' for Active; 'I' for Inactive)
REMARK    1  A    between atoms: C_1  and  C_2
REMARK    2  A    between atoms: C_4  and  C_5
REMARK    3  A    between atoms: C_10  and  C_12
REMARK    4  A    between atoms: C_12  and  C_13
REMARK    5  A    between atoms: C_18  and  C_19
REMARK    6  A    between atoms: C_24  and  C_25
REMARK                            x       y       z     vdW  Elec       q    Type
REMARK                         _______ _______ _______ _____ _____    ______ ____
ROOT
ATOM      1  C   UNL     1       5.507   0.549  20.706  0.00  0.00    +0.000 C 
ATOM      2  C   UNL     1       4.563   1.707  20.469  0.00  0.00    +0.000 A 
ATOM      3  C   UNL     1       3.366   1.795  21.353  0.00  0.00    +0.000 A 
ATOM      4  C   UNL     1       2.546   2.835  21.142  0.00  0.00    +0.000 A 
ATOM      5  C   UNL     1       1.297   3.055  21.943  0.00  0.00    +0.000 C 
ATOM      6  N   UNL     1       2.848   3.761  20.128  0.00  0.00    +0.000 N 
ATOM      7  N   UNL     1       2.149   4.866  19.788  0.00  0.00    +0.000 NA
ATOM      8  C   UNL     1       2.805   5.397  18.759  0.00  0.00    +0.000 A 
ATOM      9  N   UNL     1       2.342   6.526  18.097  0.00  0.00    +0.000 N 
ATOM     10  C   UNL     1       2.100   7.699  18.791  0.00  0.00    +0.000 C 
ATOM     11  O   UNL     1       2.256   7.869  19.996  0.00  0.00    +0.000 OA
ATOM     12  C   UNL     1       3.954   4.632  18.399  0.00  0.00    +0.000 A 
ATOM     13  C   UNL     1       3.977   3.587  19.317  0.00  0.00    +0.000 A 
ATOM     14  N   UNL     1       4.853   2.545  19.514  0.00  0.00    +0.000 NA
ATOM     15  H   UNL     1       2.616   6.612  17.129  0.00  0.00    +0.000 HD
ENDROOT
BRANCH  12  16
ATOM     16  C   UNL     1       4.985   4.872  17.388  0.00  0.00    +0.000 A 
ATOM     17  C   UNL     1       6.111   5.660  17.669  0.00  0.00    +0.000 A 
ATOM     18  C   UNL     1       7.099   5.871  16.705  0.00  0.00    +0.000 A 
ATOM     19  C   UNL     1       6.981   5.277  15.454  0.00  0.00    +0.000 A 
ATOM     20  F   UNL     1       7.952   5.473  14.551  0.00  0.00    +0.000 F 
ATOM     21  C   UNL     1       5.875   4.491  15.134  0.00  0.00    +0.000 A 
ATOM     22  C   UNL     1       5.746   3.842  13.789  0.00  0.00    +0.000 C 
ATOM     23  C   UNL     1       4.871   4.316  16.106  0.00  0.00    +0.000 A 
ENDBRANCH  12  16
BRANCH  10  24
ATOM     24  C   UNL     1       1.745   8.880  17.894  0.00  0.00    +0.000 C 
BRANCH  24  25
ATOM     25  C   UNL     1       1.024  10.010  18.623  0.00  0.00    +0.000 C 
ATOM     26  C   UNL     1       1.656  11.378  18.378  0.00  0.00    +0.000 C 
ATOM     27  C   UNL     1       0.575  12.360  18.807  0.00  0.00    +0.000 C 
ATOM     28  C   UNL     1      -0.755  11.654  18.552  0.00  0.00    +0.000 C 
ATOM     29  C   UNL     1      -0.409  10.225  18.132  0.00  0.00    +0.000 C 
ENDBRANCH  24  25
ENDBRANCH  10  24
TORSDOF 3
ENDMDL
MODEL 3
REMARK VINA RESULT:      -8.1      1.235      1.509
REMARK  Name = 
REMARK  6 active torsions:
REMARK  status: ('A' for Active; 'I' for Inactive)
REMARK    1  A    between atoms: C_1  and  C_2
REMARK    2  A    between atoms: C_4  and  C_5
REMARK    3  A    between atoms: C_10  and  C_12
REMARK    4  A    between atoms: C_12  and  C_13
REMARK    5  A    between atoms: C_18  and  C_19
REMARK    6  A    between atoms: C_24  and  C_25
REMARK                            x       y       z     vdW  Elec       q    Type
REMARK                         _______ _______ _______ _____ _____    ______ ____
ROOT
ATOM      1  C   UNL     1      -0.447   9.992  21.224  0.00  0.00    +0.000 C 
ATOM      2  C   UNL     1       0.585   9.600  20.190  0.00  0.00    +0.000 A 
ATOM      3  C   UNL     1       1.094  10.681  19.299  0.00  0.00    +0.000 A 
ATOM      4  C   UNL     1       2.020  10.322  18.397  0.00  0.00    +0.000 A 
ATOM      5  C   UNL     1       2.620  11.295  17.426  0.00  0.00    +0.000 C 
ATOM      6  N   UNL     1       2.449   8.985  18.340  0.00  0.00    +0.000 N 
ATOM      7  N   UNL     1       3.375   8.454  17.512  0.00  0.00    +0.000 NA
ATOM      8  C   UNL     1       3.413   7.157  17.810  0.00  0.00    +0.000 A 
ATOM      9  N   UNL     1       4.219   6.266  17.113  0.00  0.00    +0.000 N 
ATOM     10  C   UNL     1       5.584   6.477  17.019  0.00  0.00    +0.000 C 
ATOM     11  O   UNL     1       6.203   7.416  17.511  0.00  0.00    +0.000 OA
ATOM     12  C   UNL     1       2.492   6.814  18.844  0.00  0.00    +0.000 A 
ATOM     13  C   UNL     1       1.894   8.021  19.191  0.00  0.00    +0.000 A 
ATOM     14  N   UNL     1       0.957   8.352  20.142  0.00  0.00    +0.000 NA
ATOM     15  H   UNL     1       3.898   5.310  17.088  0.00  0.00    +0.000 HD
ENDROOT
BRANCH  12  16
ATOM     16  C   UNL     1       2.245   5.540  19.521  0.00  0.00    +0.000 A 
ATOM     17  C   UNL     1       2.539   5.369  20.882  0.00  0.00    +0.000 A 
ATOM     18  C   UNL     1       2.284   4.156  21.525  0.00  0.00    +0.000 A 
ATOM     19  C   UNL     1       1.712   3.106  20.817  0.00  0.00    +0.000 A 
ATOM     20  F   UNL     1       1.455   1.958  21.459  0.00  0.00    +0.000 F 
ATOM     21  C   UNL     1       1.411   3.234  19.462  0.00  0.00    +0.000 A 
ATOM     22  C   UNL     1       0.788   2.106  18.695  0.00  0.00    +0.000 C 
ATOM     23  C   UNL     1       1.706   4.452  18.821  0.00  0.00    +0.000 A 
ENDBRANCH  12  16
BRANCH  10  24
ATOM     24  C   UNL     1       6.337   5.331  16.355  0.00  0.00    +0.000 C 
BRANCH  24  25
ATOM     25  C   UNL     1       6.063   5.202  14.859  0.00  0.00    +0.000 C 
ATOM     26  C   UNL     1       7.331   4.984  14.036  0.00  0.00    +0.000 C 
ATOM     27  C   UNL     1       6.814   4.460  12.704  0.00  0.00    +0.000 C 
ATOM     28  C   UNL     1       5.518   3.718  13.022  0.00  0.00    +0.000 C 
ATOM     29  C   UNL     1       5.234   3.965  14.503  0.00  0.00    +0.000 C 
ENDBRANCH  24  25
ENDBRANCH  10  24
TORSDOF 3
ENDMDL
MODEL 4
REMARK VINA RESULT:      -8.1      1.812      2.494
REMARK  Name = 
REMARK  6 active torsions:
REMARK  status: ('A' for Active; 'I' for Inactive)
REMARK    1  A    between atoms: C_1  and  C_2
REMARK    2  A    between atoms: C_4  and  C_5
REMARK    3  A    between atoms: C_10  and  C_12
REMARK    4  A    between atoms: C_12  and  C_13
REMARK    5  A    between atoms: C_18  and  C_19
REMARK    6  A    between atoms: C_24  and  C_25
REMARK                            x       y       z     vdW  Elec       q    Type
REMARK                         _______ _______ _______ _____ _____    ______ ____
ROOT
ATOM      1  C   UNL     1      -0.501   9.674  22.666  0.00  0.00    +0.000 C 
ATOM      2  C   UNL     1       0.324   9.435  21.422  0.00  0.00    +0.000 A 
ATOM      3  C   UNL     1       0.630  10.624  20.575  0.00  0.00    +0.000 A 
ATOM      4  C   UNL     1       1.376  10.399  19.483  0.00  0.00    +0.000 A 
ATOM      5  C   UNL     1       1.759  11.492  18.529  0.00  0.00    +0.000 C 
ATOM      6  N   UNL     1       1.818   9.095  19.201  0.00  0.00    +0.000 N 
ATOM      7  N   UNL     1       2.582   8.692  18.162  0.00  0.00    +0.000 NA
ATOM      8  C   UNL     1       2.705   7.374  18.304  0.00  0.00    +0.000 A 
ATOM      9  N   UNL     1       3.384   6.596  17.376  0.00  0.00    +0.000 N 
ATOM     10  C   UNL     1       4.701   6.874  17.054  0.00  0.00    +0.000 C 
ATOM     11  O   UNL     1       5.381   7.783  17.521  0.00  0.00    +0.000 OA
ATOM     12  C   UNL     1       2.005   6.887  19.448  0.00  0.00    +0.000 A 
ATOM     13  C   UNL     1       1.457   8.025  20.030  0.00  0.00    +0.000 A 
ATOM     14  N   UNL     1       0.709   8.216  21.169  0.00  0.00    +0.000 NA
ATOM     15  H   UNL     1       3.087   5.634  17.308  0.00  0.00    +0.000 HD
ENDROOT
BRANCH  12  16
ATOM     16  C   UNL     1       1.921   5.541  20.016  0.00  0.00    +0.000 A 
ATOM     17  C   UNL     1       2.409   5.260  21.301  0.00  0.00    +0.000 A 
ATOM     18  C   UNL     1       2.309   3.976  21.842  0.00  0.00    +0.000 A 
ATOM     19  C   UNL     1       1.699   2.964  21.112  0.00  0.00    +0.000 A 
ATOM     20  F   UNL     1       1.593   1.746  21.659  0.00  0.00    +0.000 F 
ATOM     21  C   UNL     1       1.206   3.202  19.830  0.00  0.00    +0.000 A 
ATOM     22  C   UNL     1       0.541   2.115  19.040  0.00  0.00    +0.000 C 
ATOM     23  C   UNL     1       1.345   4.493  19.285  0.00  0.00    +0.000 A 
ENDBRANCH  12  16
BRANCH  10  24
ATOM     24  C   UNL     1       5.341   5.836  16.139  0.00  0.00    +0.000 C 
BRANCH  24  25
ATOM     25  C   UNL     1       5.315   4.419  16.707  0.00  0.00    +0.000 C 
ATOM     26  C   UNL     1       5.407   4.384  18.231  0.00  0.00    +0.000 C 
ATOM     27  C   UNL     1       4.935   2.983  18.592  0.00  0.00    +0.000 C 
ATOM     28  C   UNL     1       3.947   2.581  17.498  0.00  0.00    +0.000 C 
ATOM     29  C   UNL     1       3.992   3.692  16.449  0.00  0.00    +0.000 C 
ENDBRANCH  24  25
ENDBRANCH  10  24
TORSDOF 3
ENDMDL
MODEL 5
REMARK VINA RESULT:      -7.9      2.790      5.318
REMARK  Name = 
REMARK  6 active torsions:
REMARK  status: ('A' for Active; 'I' for Inactive)
REMARK    1  A    between atoms: C_1  and  C_2
REMARK    2  A    between atoms: C_4  and  C_5
REMARK    3  A    between atoms: C_10  and  C_12
REMARK    4  A    between atoms: C_12  and  C_13
REMARK    5  A    between atoms: C_18  and  C_19
REMARK    6  A    between atoms: C_24  and  C_25
REMARK                            x       y       z     vdW  Elec       q    Type
REMARK                         _______ _______ _______ _____ _____    ______ ____
ROOT
ATOM      1  C   UNL     1       2.034  11.612  17.563  0.00  0.00    +0.000 C 
ATOM      2  C   UNL     1       1.836  10.423  18.476  0.00  0.00    +0.000 A 
ATOM      3  C   UNL     1       0.860  10.582  19.592  0.00  0.00    +0.000 A 
ATOM      4  C   UNL     1       0.683   9.514  20.384  0.00  0.00    +0.000 A 
ATOM      5  C   UNL     1      -0.257   9.523  21.553  0.00  0.00    +0.000 C 
ATOM      6  N   UNL     1       1.405   8.335  20.130  0.00  0.00    +0.000 N 
ATOM      7  N   UNL     1       1.343   7.170  20.810  0.00  0.00    +0.000 NA
ATOM      8  C   UNL     1       2.227   6.368  20.220  0.00  0.00    +0.000 A 
ATOM      9  N   UNL     1       2.486   5.088  20.691  0.00  0.00    +0.000 N 
ATOM     10  C   UNL     1       1.461   4.168  20.828  0.00  0.00    +0.000 C 
ATOM     11  O   UNL     1       0.278   4.363  20.565  0.00  0.00    +0.000 OA
ATOM     12  C   UNL     1       2.898   7.010  19.137  0.00  0.00    +0.000 A 
ATOM     13  C   UNL     1       2.331   8.278  19.080  0.00  0.00    +0.000 A 
ATOM     14  N   UNL     1       2.527   9.345  18.233  0.00  0.00    +0.000 NA
ATOM     15  H   UNL     1       3.407   4.725  20.494  0.00  0.00    +0.000 HD
ENDROOT
BRANCH  12  16
ATOM     16  C   UNL     1       3.883   6.497  18.184  0.00  0.00    +0.000 A 
ATOM     17  C   UNL     1       3.576   5.437  17.317  0.00  0.00    +0.000 A 
ATOM     18  C   UNL     1       4.516   4.965  16.399  0.00  0.00    +0.000 A 
ATOM     19  C   UNL     1       5.768   5.562  16.323  0.00  0.00    +0.000 A 
ATOM     20  F   UNL     1       6.648   5.109  15.419  0.00  0.00    +0.000 F 
ATOM     21  C   UNL     1       6.114   6.614  17.171  0.00  0.00    +0.000 A 
ATOM     22  C   UNL     1       7.461   7.267  17.089  0.00  0.00    +0.000 C 
ATOM     23  C   UNL     1       5.167   7.056  18.114  0.00  0.00    +0.000 A 
ENDBRANCH  12  16
BRANCH  10  24
ATOM     24  C   UNL     1       1.938   2.771  21.208  0.00  0.00    +0.000 C 
BRANCH  24  25
ATOM     25  C   UNL     1       2.481   1.967  20.030  0.00  0.00    +0.000 C 
ATOM     26  C   UNL     1       1.799   2.309  18.707  0.00  0.00    +0.000 C 
ATOM     27  C   UNL     1       2.747   1.754  17.654  0.00  0.00    +0.000 C 
ATOM     28  C   UNL     1       4.143   1.825  18.272  0.00  0.00    +0.000 C 
ATOM     29  C   UNL     1       3.950   2.270  19.721  0.00  0.00    +0.000 C 
ENDBRANCH  24  25
ENDBRANCH  10  24
TORSDOF 3
ENDMDL
MODEL 6
REMARK VINA RESULT:      -7.8      2.873      7.294
REMARK  Name = 
REMARK  6 active torsions:
REMARK  status: ('A' for Active; 'I' for Inactive)
REMARK    1  A    between atoms: C_1  and  C_2
REMARK    2  A    between atoms: C_4  and  C_5
REMARK    3  A    between atoms: C_10  and  C_12
REMARK    4  A    between atoms: C_12  and  C_13
REMARK    5  A    between atoms: C_18  and  C_19
REMARK    6  A    between atoms: C_24  and  C_25
REMARK                            x       y       z     vdW  Elec       q    Type
REMARK                         _______ _______ _______ _____ _____    ______ ____
ROOT
ATOM      1  C   UNL     1       5.496   0.627  20.943  0.00  0.00    +0.000 C 
ATOM      2  C   UNL     1       4.532   1.759  20.670  0.00  0.00    +0.000 A 
ATOM      3  C   UNL     1       3.290   1.805  21.493  0.00  0.00    +0.000 A 
ATOM      4  C   UNL     1       2.451   2.822  21.250  0.00  0.00    +0.000 A 
ATOM      5  C   UNL     1       1.159   2.998  21.990  0.00  0.00    +0.000 C 
ATOM      6  N   UNL     1       2.776   3.766  20.260  0.00  0.00    +0.000 N 
ATOM      7  N   UNL     1       2.062   4.853  19.894  0.00  0.00    +0.000 NA
ATOM      8  C   UNL     1       2.752   5.413  18.903  0.00  0.00    +0.000 A 
ATOM      9  N   UNL     1       2.289   6.534  18.227  0.00  0.00    +0.000 N 
ATOM     10  C   UNL     1       1.979   7.693  18.917  0.00  0.00    +0.000 C 
ATOM     11  O   UNL     1       2.071   7.856  20.130  0.00  0.00    +0.000 OA
ATOM     12  C   UNL     1       3.939   4.684  18.594  0.00  0.00    +0.000 A 
ATOM     13  C   UNL     1       3.947   3.632  19.504  0.00  0.00    +0.000 A 
ATOM     14  N   UNL     1       4.843   2.614  19.736  0.00  0.00    +0.000 NA
ATOM     15  H   UNL     1       2.608   6.636  17.275  0.00  0.00    +0.000 HD
ENDROOT
BRANCH  12  16
ATOM     16  C   UNL     1       5.011   4.963  17.637  0.00  0.00    +0.000 A 
ATOM     17  C   UNL     1       5.184   4.180  16.487  0.00  0.00    +0.000 A 
ATOM     18  C   UNL     1       6.198   4.464  15.570  0.00  0.00    +0.000 A 
ATOM     19  C   UNL     1       7.038   5.549  15.784  0.00  0.00    +0.000 A 
ATOM     20  F   UNL     1       7.991   5.818  14.879  0.00  0.00    +0.000 F 
ATOM     21  C   UNL     1       6.903   6.349  16.917  0.00  0.00    +0.000 A 
ATOM     22  C   UNL     1       7.803   7.525  17.150  0.00  0.00    +0.000 C 
ATOM     23  C   UNL     1       5.897   6.029  17.850  0.00  0.00    +0.000 A 
ENDBRANCH  12  16
BRANCH  10  24
ATOM     24  C   UNL     1       1.634   8.871  18.013  0.00  0.00    +0.000 C 
BRANCH  24  25
ATOM     25  C   UNL     1       0.775   9.934  18.691  0.00  0.00    +0.000 C 
ATOM     26  C   UNL     1       1.383  11.332  18.615  0.00  0.00    +0.000 C 
ATOM     27  C   UNL     1       0.216  12.255  18.936  0.00  0.00    +0.000 C 
ATOM     28  C   UNL     1      -1.036  11.527  18.452  0.00  0.00    +0.000 C 
ATOM     29  C   UNL     1      -0.581  10.137  18.009  0.00  0.00    +0.000 C 
ENDBRANCH  24  25
ENDBRANCH  10  24
TORSDOF 3
ENDMDL
MODEL 7
REMARK VINA RESULT:      -7.6      5.157      8.501
REMARK  Name = 
REMARK  6 active torsions:
REMARK  status: ('A' for Active; 'I' for Inactive)
REMARK    1  A    between atoms: C_1  and  C_2
REMARK    2  A    between atoms: C_4  and  C_5
REMARK    3  A    between atoms: C_10  and  C_12
REMARK    4  A    between atoms: C_12  and  C_13
REMARK    5  A    between atoms: C_18  and  C_19
REMARK    6  A    between atoms: C_24  and  C_25
REMARK                            x       y       z     vdW  Elec       q    Type
REMARK                         _______ _______ _______ _____ _____    ______ ____
ROOT
ATOM      1  C   UNL     1      -0.304  17.283  18.574  0.00  0.00    +0.000 C 
ATOM      2  C   UNL     1       0.282  15.936  18.931  0.00  0.00    +0.000 A 
ATOM      3  C   UNL     1       1.695  15.918  19.407  0.00  0.00    +0.000 A 
ATOM      4  C   UNL     1       2.197  14.718  19.735  0.00  0.00    +0.000 A 
ATOM      5  C   UNL     1       3.605  14.538  20.221  0.00  0.00    +0.000 C 
ATOM      6  N   UNL     1       1.391  13.574  19.616  0.00  0.00    +0.000 N 
ATOM      7  N   UNL     1       1.724  12.298  19.911  0.00  0.00    +0.000 NA
ATOM      8  C   UNL     1       0.652  11.572  19.605  0.00  0.00    +0.000 A 
ATOM      9  N   UNL     1       0.644  10.188  19.721  0.00  0.00    +0.000 N 
ATOM     10  C   UNL     1       0.941   9.582  20.929  0.00  0.00    +0.000 C 
ATOM     11  O   UNL     1       1.228  10.160  21.974  0.00  0.00    +0.000 OA
ATOM     12  C   UNL     1      -0.410  12.371  19.087  0.00  0.00    +0.000 A 
ATOM     13  C   UNL     1       0.082  13.671  19.126  0.00  0.00    +0.000 A 
ATOM     14  N   UNL     1      -0.476  14.884  18.797  0.00  0.00    +0.000 NA
ATOM     15  H   UNL     1       0.014   9.698  19.103  0.00  0.00    +0.000 HD
ENDROOT
BRANCH  12  16
ATOM     16  C   UNL     1      -1.771  12.010  18.687  0.00  0.00    +0.000 A 
ATOM     17  C   UNL     1      -2.018  11.282  17.514  0.00  0.00    +0.000 A 
ATOM     18  C   UNL     1      -3.318  10.926  17.149  0.00  0.00    +0.000 A 
ATOM     19  C   UNL     1      -4.385  11.277  17.965  0.00  0.00    +0.000 A 
ATOM     20  F   UNL     1      -5.622  10.906  17.608  0.00  0.00    +0.000 F 
ATOM     21  C   UNL     1      -4.183  12.006  19.137  0.00  0.00    +0.000 A 
ATOM     22  C   UNL     1      -5.330  12.382  20.025  0.00  0.00    +0.000 C 
ATOM     23  C   UNL     1      -2.870  12.386  19.473  0.00  0.00    +0.000 A 
ENDBRANCH  12  16
BRANCH  10  24
ATOM     24  C   UNL     1       0.737   8.072  20.924  0.00  0.00    +0.000 C 
BRANCH  24  25
ATOM     25  C   UNL     1       1.977   7.287  20.505  0.00  0.00    +0.000 C 
ATOM     26  C   UNL     1       1.791   5.775  20.611  0.00  0.00    +0.000 C 
ATOM     27  C   UNL     1       2.923   5.208  19.766  0.00  0.00    +0.000 C 
ATOM     28  C   UNL     1       3.198   6.252  18.685  0.00  0.00    +0.000 C 
ATOM     29  C   UNL     1       2.330   7.463  19.026  0.00  0.00    +0.000 C 
ENDBRANCH  24  25
ENDBRANCH  10  24
TORSDOF 3
ENDMDL
MODEL 8
REMARK VINA RESULT:      -7.6      0.850      1.481
REMARK  Name = 
REMARK  6 active torsions:
REMARK  status: ('A' for Active; 'I' for Inactive)
REMARK    1  A    between atoms: C_1  and  C_2
REMARK    2  A    between atoms: C_4  and  C_5
REMARK    3  A    between atoms: C_10  and  C_12
REMARK    4  A    between atoms: C_12  and  C_13
REMARK    5  A    between atoms: C_18  and  C_19
REMARK    6  A    between atoms: C_24  and  C_25
REMARK                            x       y       z     vdW  Elec       q    Type
REMARK                         _______ _______ _______ _____ _____    ______ ____
ROOT
ATOM      1  C   UNL     1       0.170   8.622  21.796  0.00  0.00    +0.000 C 
ATOM      2  C   UNL     1       1.061   8.385  20.598  0.00  0.00    +0.000 A 
ATOM      3  C   UNL     1       1.194   9.503  19.621  0.00  0.00    +0.000 A 
ATOM      4  C   UNL     1       2.000   9.283  18.572  0.00  0.00    +0.000 A 
ATOM      5  C   UNL     1       2.228  10.308  17.501  0.00  0.00    +0.000 C 
ATOM      6  N   UNL     1       2.658   8.047  18.450  0.00  0.00    +0.000 N 
ATOM      7  N   UNL     1       3.509   7.661  17.475  0.00  0.00    +0.000 NA
ATOM      8  C   UNL     1       3.843   6.407  17.772  0.00  0.00    +0.000 A 
ATOM      9  N   UNL     1       4.669   5.652  16.950  0.00  0.00    +0.000 N 
ATOM     10  C   UNL     1       5.932   6.107  16.612  0.00  0.00    +0.000 C 
ATOM     11  O   UNL     1       6.438   7.164  16.977  0.00  0.00    +0.000 OA
ATOM     12  C   UNL     1       3.198   5.944  18.957  0.00  0.00    +0.000 A 
ATOM     13  C   UNL     1       2.452   7.034  19.394  0.00  0.00    +0.000 A 
ATOM     14  N   UNL     1       1.649   7.225  20.495  0.00  0.00    +0.000 NA
ATOM     15  H   UNL     1       4.535   4.653  16.991  0.00  0.00    +0.000 HD
ENDROOT
BRANCH  12  16
ATOM     16  C   UNL     1       3.317   4.676  19.678  0.00  0.00    +0.000 A 
ATOM     17  C   UNL     1       4.464   3.876  19.560  0.00  0.00    +0.000 A 
ATOM     18  C   UNL     1       4.578   2.676  20.264  0.00  0.00    +0.000 A 
ATOM     19  C   UNL     1       3.554   2.273  21.112  0.00  0.00    +0.000 A 
ATOM     20  F   UNL     1       3.694   1.129  21.797  0.00  0.00    +0.000 F 
ATOM     21  C   UNL     1       2.397   3.037  21.254  0.00  0.00    +0.000 A 
ATOM     22  C   UNL     1       1.292   2.610  22.173  0.00  0.00    +0.000 C 
ATOM     23  C   UNL     1       2.282   4.227  20.510  0.00  0.00    +0.000 A 
ENDBRANCH  12  16
BRANCH  10  24
ATOM     24  C   UNL     1       6.761   5.093  15.833  0.00  0.00    +0.000 C 
BRANCH  24  25
ATOM     25  C   UNL     1       6.415   5.028  14.348  0.00  0.00    +0.000 C 
ATOM     26  C   UNL     1       7.630   5.221  13.443  0.00  0.00    +0.000 C 
ATOM     27  C   UNL     1       7.164   4.700  12.091  0.00  0.00    +0.000 C 
ATOM     28  C   UNL     1       6.127   3.620  12.397  0.00  0.00    +0.000 C 
ATOM     29  C   UNL     1       5.903   3.654  13.908  0.00  0.00    +0.000 C 
ENDBRANCH  24  25
ENDBRANCH  10  24
TORSDOF 3
ENDMDL
MODEL 9
REMARK VINA RESULT:      -7.5      1.362      1.713
REMARK  Name = 
REMARK  6 active torsions:
REMARK  status: ('A' for Active; 'I' for Inactive)
REMARK    1  A    between atoms: C_1  and  C_2
REMARK    2  A    between atoms: C_4  and  C_5
REMARK    3  A    between atoms: C_10  and  C_12
REMARK    4  A    between atoms: C_12  and  C_13
REMARK    5  A    between atoms: C_18  and  C_19
REMARK    6  A    between atoms: C_24  and  C_25
REMARK                            x       y       z     vdW  Elec       q    Type
REMARK                         _______ _______ _______ _____ _____    ______ ____
ROOT
ATOM      1  C   UNL     1      -0.618   9.594  20.678  0.00  0.00    +0.000 C 
ATOM      2  C   UNL     1       0.544   9.334  19.746  0.00  0.00    +0.000 A 
ATOM      3  C   UNL     1       1.171  10.522  19.098  0.00  0.00    +0.000 A 
ATOM      4  C   UNL     1       2.210  10.277  18.286  0.00  0.00    +0.000 A 
ATOM      5  C   UNL     1       2.937  11.367  17.557  0.00  0.00    +0.000 C 
ATOM      6  N   UNL     1       2.642   8.954  18.093  0.00  0.00    +0.000 N 
ATOM      7  N   UNL     1       3.671   8.528  17.328  0.00  0.00    +0.000 NA
ATOM      8  C   UNL     1       3.667   7.201  17.437  0.00  0.00    +0.000 A 
ATOM      9  N   UNL     1       4.559   6.404  16.732  0.00  0.00    +0.000 N 
ATOM     10  C   UNL     1       5.924   6.598  16.853  0.00  0.00    +0.000 C 
ATOM     11  O   UNL     1       6.472   7.443  17.555  0.00  0.00    +0.000 OA
ATOM     12  C   UNL     1       2.614   6.732  18.277  0.00  0.00    +0.000 A 
ATOM     13  C   UNL     1       1.976   7.889  18.712  0.00  0.00    +0.000 A 
ATOM     14  N   UNL     1       0.918   8.098  19.567  0.00  0.00    +0.000 NA
ATOM     15  H   UNL     1       4.244   5.468  16.525  0.00  0.00    +0.000 HD
ENDROOT
BRANCH  12  16
ATOM     16  C   UNL     1       2.276   5.379  18.722  0.00  0.00    +0.000 A 
ATOM     17  C   UNL     1       1.835   4.403  17.817  0.00  0.00    +0.000 A 
ATOM     18  C   UNL     1       1.532   3.109  18.246  0.00  0.00    +0.000 A 
ATOM     19  C   UNL     1       1.687   2.772  19.585  0.00  0.00    +0.000 A 
ATOM     20  F   UNL     1       1.413   1.519  19.972  0.00  0.00    +0.000 F 
ATOM     21  C   UNL     1       2.118   3.715  20.517  0.00  0.00    +0.000 A 
ATOM     22  C   UNL     1       2.294   3.354  21.961  0.00  0.00    +0.000 C 
ATOM     23  C   UNL     1       2.387   5.024  20.074  0.00  0.00    +0.000 A 
ENDBRANCH  12  16
BRANCH  10  24
ATOM     24  C   UNL     1       6.759   5.544  16.136  0.00  0.00    +0.000 C 
BRANCH  24  25
ATOM     25  C   UNL     1       6.283   5.245  14.718  0.00  0.00    +0.000 C 
ATOM     26  C   UNL     1       7.429   5.114  13.717  0.00  0.00    +0.000 C 
ATOM     27  C   UNL     1       6.795   4.409  12.527  0.00  0.00    +0.000 C 
ATOM     28  C   UNL     1       5.677   3.541  13.103  0.00  0.00    +0.000 C 
ATOM     29  C   UNL     1       5.589   3.886  14.590  0.00  0.00    +0.000 C 
ENDBRANCH  24  25
ENDBRANCH  10  24
TORSDOF 3
ENDMDL
