MODEL 1
REMARK VINA RESULT:      -7.4      0.000      0.000
REMARK  Name = 
REMARK  6 active torsions:
REMARK  status: ('A' for Active; 'I' for Inactive)
REMARK    1  A    between atoms: C_1  and  N_2
REMARK    2  A    between atoms: N_2  and  C_3
REMARK    3  A    between atoms: C_3  and  C_4
REMARK    4  A    between atoms: C_11  and  C_13
REMARK    5  A    between atoms: C_13  and  N_14
REMARK    6  A    between atoms: N_17  and  C_18
REMARK                            x       y       z     vdW  Elec       q    Type
REMARK                         _______ _______ _______ _____ _____    ______ ____
ROOT
ATOM      1  C   UNL     1       4.705   6.929  17.297  0.00  0.00    +0.000 C 
ATOM      2  N   UNL     1       5.060   5.793  18.132  0.00  0.00    +0.000 N 
ATOM      3  C   UNL     1       6.287   5.132  18.006  0.00  0.00    +0.000 C 
ATOM      4  O   UNL     1       6.688   4.340  18.866  0.00  0.00    +0.000 OA
ENDROOT
BRANCH   2   5
ATOM      5  C   UNL     1       4.320   5.612  19.380  0.00  0.00    +0.000 C 
BRANCH   5   6
ATOM      6  C   UNL     1       3.130   4.684  19.258  0.00  0.00    +0.000 A 
ATOM      7  C   UNL     1       2.979   3.880  18.114  0.00  0.00    +0.000 A 
ATOM      8  C   UNL     1       1.910   2.989  18.007  0.00  0.00    +0.000 A 
ATOM      9  C   UNL     1       0.988   2.899  19.042  0.00  0.00    +0.000 A 
ATOM     10  F   UNL     1      -0.035   2.039  18.942  0.00  0.00    +0.000 F 
ATOM     11  C   UNL     1       1.115   3.686  20.180  0.00  0.00    +0.000 A 
ATOM     12  C   UNL     1       2.186   4.577  20.292  0.00  0.00    +0.000 A 
ENDBRANCH   5   6
ENDBRANCH   2   5
BRANCH   3  13
ATOM     13  C   UNL     1       7.159   5.442  16.786  0.00  0.00    +0.000 C 
BRANCH  13  14
ATOM     14  N   UNL     1       6.660   4.854  15.566  0.00  0.00    +0.000 N 
ATOM     15  N   UNL     1       5.669   3.897  15.547  0.00  0.00    +0.000 NA
ATOM     16  C   UNL     1       5.645   3.503  14.316  0.00  0.00    +0.000 A 
ATOM     17  N   UNL     1       6.540   4.097  13.509  0.00  0.00    +0.000 N 
ATOM     18  C   UNL     1       6.817   3.807  12.125  0.00  0.00    +0.000 C 
ATOM     19  C   UNL     1       7.245   4.964  14.303  0.00  0.00    +0.000 A 
ATOM     20  O   UNL     1       8.196   5.658  13.980  0.00  0.00    +0.000 OA
ENDBRANCH  13  14
ENDBRANCH   3  13
TORSDOF 4
ENDMDL
MODEL 2
REMARK VINA RESULT:      -7.4      1.515      2.129
REMARK  Name = 
REMARK  6 active torsions:
REMARK  status: ('A' for Active; 'I' for Inactive)
REMARK    1  A    between atoms: C_1  and  N_2
REMARK    2  A    between atoms: N_2  and  C_3
REMARK    3  A    between atoms: C_3  and  C_4
REMARK    4  A    between atoms: C_11  and  C_13
REMARK    5  A    between atoms: C_13  and  N_14
REMARK    6  A    between atoms: N_17  and  C_18
REMARK                            x       y       z     vdW  Elec       q    Type
REMARK                         _______ _______ _______ _____ _____    ______ ____
ROOT
ATOM      1  C   UNL     1       5.910   4.816  18.934  0.00  0.00    +0.000 C 
ATOM      2  N   UNL     1       5.381   5.896  18.117  0.00  0.00    +0.000 N 
ATOM      3  C   UNL     1       5.889   6.184  16.845  0.00  0.00    +0.000 C 
ATOM      4  O   UNL     1       5.287   6.923  16.059  0.00  0.00    +0.000 OA
ENDROOT
BRANCH   2   5
ATOM      5  C   UNL     1       4.048   6.400  18.442  0.00  0.00    +0.000 C 
BRANCH   5   6
ATOM      6  C   UNL     1       3.022   5.312  18.684  0.00  0.00    +0.000 A 
ATOM      7  C   UNL     1       2.318   5.269  19.901  0.00  0.00    +0.000 A 
ATOM      8  C   UNL     1       1.340   4.297  20.122  0.00  0.00    +0.000 A 
ATOM      9  C   UNL     1       1.064   3.366  19.129  0.00  0.00    +0.000 A 
ATOM     10  F   UNL     1       0.121   2.437  19.338  0.00  0.00    +0.000 F 
ATOM     11  C   UNL     1       1.751   3.388  17.921  0.00  0.00    +0.000 A 
ATOM     12  C   UNL     1       2.728   4.361  17.695  0.00  0.00    +0.000 A 
ENDBRANCH   5   6
ENDBRANCH   2   5
BRANCH   3  13
ATOM     13  C   UNL     1       7.203   5.523  16.419  0.00  0.00    +0.000 C 
BRANCH  13  14
ATOM     14  N   UNL     1       7.157   4.974  15.086  0.00  0.00    +0.000 N 
ATOM     15  N   UNL     1       7.818   5.543  14.019  0.00  0.00    +0.000 NA
ATOM     16  C   UNL     1       7.382   4.881  12.997  0.00  0.00    +0.000 A 
ATOM     17  N   UNL     1       6.476   3.929  13.278  0.00  0.00    +0.000 N 
ATOM     18  C   UNL     1       5.745   3.099  12.356  0.00  0.00    +0.000 C 
ATOM     19  C   UNL     1       6.280   3.985  14.634  0.00  0.00    +0.000 A 
ATOM     20  O   UNL     1       5.490   3.332  15.297  0.00  0.00    +0.000 OA
ENDBRANCH  13  14
ENDBRANCH   3  13
TORSDOF 4
ENDMDL
MODEL 3
REMARK VINA RESULT:      -7.2      1.728      2.094
REMARK  Name = 
REMARK  6 active torsions:
REMARK  status: ('A' for Active; 'I' for Inactive)
REMARK    1  A    between atoms: C_1  and  N_2
REMARK    2  A    between atoms: N_2  and  C_3
REMARK    3  A    between atoms: C_3  and  C_4
REMARK    4  A    between atoms: C_11  and  C_13
REMARK    5  A    between atoms: C_13  and  N_14
REMARK    6  A    between atoms: N_17  and  C_18
REMARK                            x       y       z     vdW  Elec       q    Type
REMARK                         _______ _______ _______ _____ _____    ______ ____
ROOT
ATOM      1  C   UNL     1       5.250   4.267  18.286  0.00  0.00    +0.000 C 
ATOM      2  N   UNL     1       4.853   5.508  17.641  0.00  0.00    +0.000 N 
ATOM      3  C   UNL     1       5.579   6.061  16.581  0.00  0.00    +0.000 C 
ATOM      4  O   UNL     1       5.114   6.964  15.878  0.00  0.00    +0.000 OA
ENDROOT
BRANCH   2   5
ATOM      5  C   UNL     1       3.469   5.947  17.815  0.00  0.00    +0.000 C 
BRANCH   5   6
ATOM      6  C   UNL     1       2.681   5.116  18.805  0.00  0.00    +0.000 A 
ATOM      7  C   UNL     1       1.834   4.092  18.345  0.00  0.00    +0.000 A 
ATOM      8  C   UNL     1       1.133   3.290  19.248  0.00  0.00    +0.000 A 
ATOM      9  C   UNL     1       1.276   3.510  20.612  0.00  0.00    +0.000 A 
ATOM     10  F   UNL     1       0.608   2.736  21.479  0.00  0.00    +0.000 F 
ATOM     11  C   UNL     1       2.104   4.519  21.088  0.00  0.00    +0.000 A 
ATOM     12  C   UNL     1       2.809   5.321  20.188  0.00  0.00    +0.000 A 
ENDBRANCH   5   6
ENDBRANCH   2   5
BRANCH   3  13
ATOM     13  C   UNL     1       6.966   5.491  16.273  0.00  0.00    +0.000 C 
BRANCH  13  14
ATOM     14  N   UNL     1       7.073   4.939  14.944  0.00  0.00    +0.000 N 
ATOM     15  N   UNL     1       7.826   5.524  13.949  0.00  0.00    +0.000 NA
ATOM     16  C   UNL     1       7.515   4.851  12.890  0.00  0.00    +0.000 A 
ATOM     17  N   UNL     1       6.608   3.877  13.079  0.00  0.00    +0.000 N 
ATOM     18  C   UNL     1       5.998   3.028  12.089  0.00  0.00    +0.000 C 
ATOM     19  C   UNL     1       6.272   3.929  14.407  0.00  0.00    +0.000 A 
ATOM     20  O   UNL     1       5.434   3.256  14.987  0.00  0.00    +0.000 OA
ENDBRANCH  13  14
ENDBRANCH   3  13
TORSDOF 4
ENDMDL
MODEL 4
REMARK VINA RESULT:      -7.2      1.052      1.276
REMARK  Name = 
REMARK  6 active torsions:
REMARK  status: ('A' for Active; 'I' for Inactive)
REMARK    1  A    between atoms: C_1  and  N_2
REMARK    2  A    between atoms: N_2  and  C_3
REMARK    3  A    between atoms: C_3  and  C_4
REMARK    4  A    between atoms: C_11  and  C_13
REMARK    5  A    between atoms: C_13  and  N_14
REMARK    6  A    between atoms: N_17  and  C_18
REMARK                            x       y       z     vdW  Elec       q    Type
REMARK                         _______ _______ _______ _____ _____    ______ ____
ROOT
ATOM      1  C   UNL     1       5.962   4.383  19.012  0.00  0.00    +0.000 C 
ATOM      2  N   UNL     1       5.301   5.635  18.681  0.00  0.00    +0.000 N 
ATOM      3  C   UNL     1       5.552   6.316  17.486  0.00  0.00    +0.000 C 
ATOM      4  O   UNL     1       4.820   7.231  17.095  0.00  0.00    +0.000 OA
ENDROOT
BRANCH   2   5
ATOM      5  C   UNL     1       4.066   5.957  19.396  0.00  0.00    +0.000 C 
BRANCH   5   6
ATOM      6  C   UNL     1       2.970   4.927  19.222  0.00  0.00    +0.000 A 
ATOM      7  C   UNL     1       2.422   4.692  17.948  0.00  0.00    +0.000 A 
ATOM      8  C   UNL     1       1.440   3.716  17.765  0.00  0.00    +0.000 A 
ATOM      9  C   UNL     1       1.003   2.973  18.855  0.00  0.00    +0.000 A 
ATOM     10  F   UNL     1       0.065   2.032  18.678  0.00  0.00    +0.000 F 
ATOM     11  C   UNL     1       1.528   3.191  20.122  0.00  0.00    +0.000 A 
ATOM     12  C   UNL     1       2.512   4.165  20.309  0.00  0.00    +0.000 A 
ENDBRANCH   5   6
ENDBRANCH   2   5
BRANCH   3  13
ATOM     13  C   UNL     1       6.745   5.875  16.634  0.00  0.00    +0.000 C 
BRANCH  13  14
ATOM     14  N   UNL     1       6.359   5.163  15.439  0.00  0.00    +0.000 N 
ATOM     15  N   UNL     1       5.304   4.277  15.405  0.00  0.00    +0.000 NA
ATOM     16  C   UNL     1       5.403   3.724  14.240  0.00  0.00    +0.000 A 
ATOM     17  N   UNL     1       6.438   4.146  13.495  0.00  0.00    +0.000 N 
ATOM     18  C   UNL     1       6.863   3.657  12.208  0.00  0.00    +0.000 C 
ATOM     19  C   UNL     1       7.105   5.065  14.263  0.00  0.00    +0.000 A 
ATOM     20  O   UNL     1       8.142   5.649  13.989  0.00  0.00    +0.000 OA
ENDBRANCH  13  14
ENDBRANCH   3  13
TORSDOF 4
ENDMDL
MODEL 5
REMARK VINA RESULT:      -7.0      1.190      1.418
REMARK  Name = 
REMARK  6 active torsions:
REMARK  status: ('A' for Active; 'I' for Inactive)
REMARK    1  A    between atoms: C_1  and  N_2
REMARK    2  A    between atoms: N_2  and  C_3
REMARK    3  A    between atoms: C_3  and  C_4
REMARK    4  A    between atoms: C_11  and  C_13
REMARK    5  A    between atoms: C_13  and  N_14
REMARK    6  A    between atoms: N_17  and  C_18
REMARK                            x       y       z     vdW  Elec       q    Type
REMARK                         _______ _______ _______ _____ _____    ______ ____
ROOT
ATOM      1  C   UNL     1       4.511   6.608  17.654  0.00  0.00    +0.000 C 
ATOM      2  N   UNL     1       5.273   5.434  18.046  0.00  0.00    +0.000 N 
ATOM      3  C   UNL     1       6.561   5.186  17.560  0.00  0.00    +0.000 C 
ATOM      4  O   UNL     1       7.296   4.337  18.075  0.00  0.00    +0.000 OA
ENDROOT
BRANCH   2   5
ATOM      5  C   UNL     1       4.866   4.740  19.267  0.00  0.00    +0.000 C 
BRANCH   5   6
ATOM      6  C   UNL     1       3.522   4.050  19.163  0.00  0.00    +0.000 A 
ATOM      7  C   UNL     1       3.321   3.047  18.198  0.00  0.00    +0.000 A 
ATOM      8  C   UNL     1       2.101   2.372  18.117  0.00  0.00    +0.000 A 
ATOM      9  C   UNL     1       1.079   2.700  18.999  0.00  0.00    +0.000 A 
ATOM     10  F   UNL     1      -0.090   2.048  18.926  0.00  0.00    +0.000 F 
ATOM     11  C   UNL     1       1.254   3.690  19.957  0.00  0.00    +0.000 A 
ATOM     12  C   UNL     1       2.475   4.365  20.043  0.00  0.00    +0.000 A 
ENDBRANCH   5   6
ENDBRANCH   2   5
BRANCH   3  13
ATOM     13  C   UNL     1       7.071   6.027  16.387  0.00  0.00    +0.000 C 
BRANCH  13  14
ATOM     14  N   UNL     1       7.103   5.304  15.139  0.00  0.00    +0.000 N 
ATOM     15  N   UNL     1       7.998   5.590  14.131  0.00  0.00    +0.000 NA
ATOM     16  C   UNL     1       7.586   4.869  13.139  0.00  0.00    +0.000 A 
ATOM     17  N   UNL     1       6.488   4.136  13.384  0.00  0.00    +0.000 N 
ATOM     18  C   UNL     1       5.745   3.315  12.463  0.00  0.00    +0.000 C 
ATOM     19  C   UNL     1       6.125   4.422  14.675  0.00  0.00    +0.000 A 
ATOM     20  O   UNL     1       5.143   4.016  15.277  0.00  0.00    +0.000 OA
ENDBRANCH  13  14
ENDBRANCH   3  13
TORSDOF 4
ENDMDL
MODEL 6
REMARK VINA RESULT:      -7.0      1.174      1.752
REMARK  Name = 
REMARK  6 active torsions:
REMARK  status: ('A' for Active; 'I' for Inactive)
REMARK    1  A    between atoms: C_1  and  N_2
REMARK    2  A    between atoms: N_2  and  C_3
REMARK    3  A    between atoms: C_3  and  C_4
REMARK    4  A    between atoms: C_11  and  C_13
REMARK    5  A    between atoms: C_13  and  N_14
REMARK    6  A    between atoms: N_17  and  C_18
REMARK                            x       y       z     vdW  Elec       q    Type
REMARK                         _______ _______ _______ _____ _____    ______ ____
ROOT
ATOM      1  C   UNL     1       4.201   6.981  17.735  0.00  0.00    +0.000 C 
ATOM      2  N   UNL     1       4.873   5.771  18.178  0.00  0.00    +0.000 N 
ATOM      3  C   UNL     1       6.150   5.420  17.725  0.00  0.00    +0.000 C 
ATOM      4  O   UNL     1       6.815   4.540  18.281  0.00  0.00    +0.000 OA
ENDROOT
BRANCH   2   5
ATOM      5  C   UNL     1       4.399   5.146  19.412  0.00  0.00    +0.000 C 
BRANCH   5   6
ATOM      6  C   UNL     1       3.246   4.185  19.210  0.00  0.00    +0.000 A 
ATOM      7  C   UNL     1       2.099   4.283  20.018  0.00  0.00    +0.000 A 
ATOM      8  C   UNL     1       1.012   3.431  19.816  0.00  0.00    +0.000 A 
ATOM      9  C   UNL     1       1.068   2.479  18.806  0.00  0.00    +0.000 A 
ATOM     10  F   UNL     1       0.021   1.665  18.607  0.00  0.00    +0.000 F 
ATOM     11  C   UNL     1       2.192   2.362  17.998  0.00  0.00    +0.000 A 
ATOM     12  C   UNL     1       3.281   3.215  18.196  0.00  0.00    +0.000 A 
ENDBRANCH   5   6
ENDBRANCH   2   5
BRANCH   3  13
ATOM     13  C   UNL     1       6.737   6.187  16.537  0.00  0.00    +0.000 C 
BRANCH  13  14
ATOM     14  N   UNL     1       6.860   5.382  15.346  0.00  0.00    +0.000 N 
ATOM     15  N   UNL     1       7.894   5.530  14.446  0.00  0.00    +0.000 NA
ATOM     16  C   UNL     1       7.548   4.779  13.452  0.00  0.00    +0.000 A 
ATOM     17  N   UNL     1       6.369   4.152  13.594  0.00  0.00    +0.000 N 
ATOM     18  C   UNL     1       5.678   3.332  12.632  0.00  0.00    +0.000 C 
ATOM     19  C   UNL     1       5.875   4.550  14.810  0.00  0.00    +0.000 A 
ATOM     20  O   UNL     1       4.795   4.262  15.302  0.00  0.00    +0.000 OA
ENDBRANCH  13  14
ENDBRANCH   3  13
TORSDOF 4
ENDMDL
MODEL 7
REMARK VINA RESULT:      -6.8      1.330      1.529
REMARK  Name = 
REMARK  6 active torsions:
REMARK  status: ('A' for Active; 'I' for Inactive)
REMARK    1  A    between atoms: C_1  and  N_2
REMARK    2  A    between atoms: N_2  and  C_3
REMARK    3  A    between atoms: C_3  and  C_4
REMARK    4  A    between atoms: C_11  and  C_13
REMARK    5  A    between atoms: C_13  and  N_14
REMARK    6  A    between atoms: N_17  and  C_18
REMARK                            x       y       z     vdW  Elec       q    Type
REMARK                         _______ _______ _______ _____ _____    ______ ____
ROOT
ATOM      1  C   UNL     1       5.669   7.027  17.382  0.00  0.00    +0.000 C 
ATOM      2  N   UNL     1       5.293   5.884  18.199  0.00  0.00    +0.000 N 
ATOM      3  C   UNL     1       6.151   4.796  18.396  0.00  0.00    +0.000 C 
ATOM      4  O   UNL     1       5.939   3.956  19.276  0.00  0.00    +0.000 OA
ENDROOT
BRANCH   2   5
ATOM      5  C   UNL     1       4.201   6.066  19.154  0.00  0.00    +0.000 C 
BRANCH   5   6
ATOM      6  C   UNL     1       3.094   5.041  19.022  0.00  0.00    +0.000 A 
ATOM      7  C   UNL     1       2.635   4.662  17.748  0.00  0.00    +0.000 A 
ATOM      8  C   UNL     1       1.645   3.688  17.609  0.00  0.00    +0.000 A 
ATOM      9  C   UNL     1       1.110   3.090  18.743  0.00  0.00    +0.000 A 
ATOM     10  F   UNL     1       0.164   2.150  18.610  0.00  0.00    +0.000 F 
ATOM     11  C   UNL     1       1.545   3.451  20.012  0.00  0.00    +0.000 A 
ATOM     12  C   UNL     1       2.539   4.424  20.154  0.00  0.00    +0.000 A 
ENDBRANCH   5   6
ENDBRANCH   2   5
BRANCH   3  13
ATOM     13  C   UNL     1       7.399   4.685  17.516  0.00  0.00    +0.000 C 
BRANCH  13  14
ATOM     14  N   UNL     1       7.095   4.534  16.114  0.00  0.00    +0.000 N 
ATOM     15  N   UNL     1       7.667   5.318  15.136  0.00  0.00    +0.000 NA
ATOM     16  C   UNL     1       7.010   5.006  14.066  0.00  0.00    +0.000 A 
ATOM     17  N   UNL     1       6.038   4.095  14.240  0.00  0.00    +0.000 N 
ATOM     18  C   UNL     1       5.083   3.620  13.272  0.00  0.00    +0.000 C 
ATOM     19  C   UNL     1       6.044   3.789  15.576  0.00  0.00    +0.000 A 
ATOM     20  O   UNL     1       5.277   3.047  16.170  0.00  0.00    +0.000 OA
ENDBRANCH  13  14
ENDBRANCH   3  13
TORSDOF 4
ENDMDL
MODEL 8
REMARK VINA RESULT:      -6.8      2.906      6.170
REMARK  Name = 
REMARK  6 active torsions:
REMARK  status: ('A' for Active; 'I' for Inactive)
REMARK    1  A    between atoms: C_1  and  N_2
REMARK    2  A    between atoms: N_2  and  C_3
REMARK    3  A    between atoms: C_3  and  C_4
REMARK    4  A    between atoms: C_11  and  C_13
REMARK    5  A    between atoms: C_13  and  N_14
REMARK    6  A    between atoms: N_17  and  C_18
REMARK                            x       y       z     vdW  Elec       q    Type
REMARK                         _______ _______ _______ _____ _____    ______ ____
ROOT
ATOM      1  C   UNL     1       7.639   4.568  17.793  0.00  0.00    +0.000 C 
ATOM      2  N   UNL     1       6.597   5.353  17.151  0.00  0.00    +0.000 N 
ATOM      3  C   UNL     1       5.512   5.875  17.863  0.00  0.00    +0.000 C 
ATOM      4  O   UNL     1       4.773   6.738  17.378  0.00  0.00    +0.000 OA
ENDROOT
BRANCH   2   5
ATOM      5  C   UNL     1       6.905   5.953  15.853  0.00  0.00    +0.000 C 
BRANCH   5   6
ATOM      6  C   UNL     1       6.611   5.049  14.674  0.00  0.00    +0.000 A 
ATOM      7  C   UNL     1       5.401   4.334  14.621  0.00  0.00    +0.000 A 
ATOM      8  C   UNL     1       5.097   3.530  13.521  0.00  0.00    +0.000 A 
ATOM      9  C   UNL     1       6.003   3.438  12.471  0.00  0.00    +0.000 A 
ATOM     10  F   UNL     1       5.709   2.671  11.412  0.00  0.00    +0.000 F 
ATOM     11  C   UNL     1       7.205   4.132  12.504  0.00  0.00    +0.000 A 
ATOM     12  C   UNL     1       7.511   4.940  13.602  0.00  0.00    +0.000 A 
ENDBRANCH   5   6
ENDBRANCH   2   5
BRANCH   3  13
ATOM     13  C   UNL     1       5.278   5.384  19.294  0.00  0.00    +0.000 C 
BRANCH  13  14
ATOM     14  N   UNL     1       4.393   4.246  19.368  0.00  0.00    +0.000 N 
ATOM     15  N   UNL     1       4.848   2.951  19.482  0.00  0.00    +0.000 NA
ATOM     16  C   UNL     1       3.783   2.234  19.328  0.00  0.00    +0.000 A 
ATOM     17  N   UNL     1       2.655   2.930  19.104  0.00  0.00    +0.000 N 
ATOM     18  C   UNL     1       1.342   2.420  18.803  0.00  0.00    +0.000 C 
ATOM     19  C   UNL     1       3.025   4.250  19.091  0.00  0.00    +0.000 A 
ATOM     20  O   UNL     1       2.315   5.216  18.858  0.00  0.00    +0.000 OA
ENDBRANCH  13  14
ENDBRANCH   3  13
TORSDOF 4
ENDMDL
MODEL 9
REMARK VINA RESULT:      -6.7      2.885      6.090
REMARK  Name = 
REMARK  6 active torsions:
REMARK  status: ('A' for Active; 'I' for Inactive)
REMARK    1  A    between atoms: C_1  and  N_2
REMARK    2  A    between atoms: N_2  and  C_3
REMARK    3  A    between atoms: C_3  and  C_4
REMARK    4  A    between atoms: C_11  and  C_13
REMARK    5  A    between atoms: C_13  and  N_14
REMARK    6  A    between atoms: N_17  and  C_18
REMARK                            x       y       z     vdW  Elec       q    Type
REMARK                         _______ _______ _______ _____ _____    ______ ____
ROOT
ATOM      1  C   UNL     1       7.658   4.505  17.764  0.00  0.00    +0.000 C 
ATOM      2  N   UNL     1       6.665   5.340  17.108  0.00  0.00    +0.000 N 
ATOM      3  C   UNL     1       5.599   5.917  17.806  0.00  0.00    +0.000 C 
ATOM      4  O   UNL     1       4.910   6.815  17.310  0.00  0.00    +0.000 OA
ENDROOT
BRANCH   2   5
ATOM      5  C   UNL     1       7.019   5.921  15.813  0.00  0.00    +0.000 C 
BRANCH   5   6
ATOM      6  C   UNL     1       6.636   5.059  14.628  0.00  0.00    +0.000 A 
ATOM      7  C   UNL     1       7.501   4.959  13.524  0.00  0.00    +0.000 A 
ATOM      8  C   UNL     1       7.181   4.135  12.443  0.00  0.00    +0.000 A 
ATOM      9  C   UNL     1       5.995   3.411  12.462  0.00  0.00    +0.000 A 
ATOM     10  F   UNL     1       5.691   2.615  11.427  0.00  0.00    +0.000 F 
ATOM     11  C   UNL     1       5.125   3.498  13.541  0.00  0.00    +0.000 A 
ATOM     12  C   UNL     1       5.443   4.319  14.626  0.00  0.00    +0.000 A 
ENDBRANCH   5   6
ENDBRANCH   2   5
BRANCH   3  13
ATOM     13  C   UNL     1       5.322   5.442  19.235  0.00  0.00    +0.000 C 
BRANCH  13  14
ATOM     14  N   UNL     1       4.391   4.341  19.297  0.00  0.00    +0.000 N 
ATOM     15  N   UNL     1       4.791   3.031  19.453  0.00  0.00    +0.000 NA
ATOM     16  C   UNL     1       3.704   2.354  19.273  0.00  0.00    +0.000 A 
ATOM     17  N   UNL     1       2.614   3.087  18.996  0.00  0.00    +0.000 N 
ATOM     18  C   UNL     1       1.294   2.622  18.657  0.00  0.00    +0.000 C 
ATOM     19  C   UNL     1       3.035   4.392  18.970  0.00  0.00    +0.000 A 
ATOM     20  O   UNL     1       2.372   5.379  18.694  0.00  0.00    +0.000 OA
ENDBRANCH  13  14
ENDBRANCH   3  13
TORSDOF 4
ENDMDL
