MODEL 1
REMARK VINA RESULT:      -8.2      0.000      0.000
REMARK  Name = 
REMARK  6 active torsions:
REMARK  status: ('A' for Active; 'I' for Inactive)
REMARK    1  A    between atoms: C_2  and  C_3
REMARK    2  A    between atoms: C_6  and  N_7
REMARK    3  A    between atoms: C_10  and  N_11
REMARK    4  A    between atoms: N_11  and  C_12
REMARK    5  A    between atoms: C_16  and  O_17
REMARK    6  A    between atoms: C_20  and  C_21
REMARK                            x       y       z     vdW  Elec       q    Type
REMARK                         _______ _______ _______ _____ _____    ______ ____
ROOT
ATOM      1  N   UNL     1       1.046   8.468  21.192  0.00  0.00    +0.000 N 
ATOM      2  C   UNL     1       0.275   9.621  20.895  0.00  0.00    +0.000 A 
ATOM      3  C   UNL     1       0.188  10.636  21.825  0.00  0.00    +0.000 A 
ATOM      4  C   UNL     1      -0.661  11.687  21.538  0.00  0.00    +0.000 A 
ATOM      5  N   UNL     1      -1.371  11.726  20.399  0.00  0.00    +0.000 NA
ATOM      6  C   UNL     1      -1.238  10.704  19.544  0.00  0.00    +0.000 A 
ATOM      7  N   UNL     1      -0.435   9.651  19.758  0.00  0.00    +0.000 NA
ATOM      8  H   UNL     1       1.732   8.670  21.913  0.00  0.00    +0.000 HD
ENDROOT
BRANCH   1  12
ATOM      9  C   UNL     1       3.066   6.035  18.388  0.00  0.00    +0.000 A 
ATOM     10  C   UNL     1       2.868   7.389  18.110  0.00  0.00    +0.000 A 
ATOM     11  C   UNL     1       2.180   8.191  19.021  0.00  0.00    +0.000 A 
ATOM     12  C   UNL     1       1.658   7.652  20.207  0.00  0.00    +0.000 A 
ATOM     13  C   UNL     1       1.879   6.297  20.484  0.00  0.00    +0.000 A 
ATOM     14  C   UNL     1       2.566   5.488  19.571  0.00  0.00    +0.000 A 
BRANCH   9  16
ATOM     15  N   UNL     1       4.359   4.573  16.682  0.00  0.00    +0.000 NA
ATOM     16  C   UNL     1       3.781   5.225  17.456  0.00  0.00    +0.000 C 
ENDBRANCH   9  16
ENDBRANCH   1  12
BRANCH   6  17
ATOM     17  C   UNL     1      -2.045  10.705  18.307  0.00  0.00    +0.000 A 
ATOM     18  C   UNL     1      -3.211  11.487  18.181  0.00  0.00    +0.000 A 
ATOM     19  C   UNL     1      -3.990  11.464  17.017  0.00  0.00    +0.000 A 
ATOM     20  C   UNL     1      -3.614  10.654  15.946  0.00  0.00    +0.000 A 
ATOM     21  C   UNL     1      -2.464   9.879  16.032  0.00  0.00    +0.000 A 
ATOM     22  C   UNL     1      -1.689   9.909  17.197  0.00  0.00    +0.000 A 
ENDBRANCH   6  17
BRANCH   4  23
ATOM     23  N   UNL     1      -0.822  12.702  22.511  0.00  0.00    +0.000 N 
ATOM     24  H   UNL     1      -0.124  13.430  22.425  0.00  0.00    +0.000 HD
BRANCH  23  25
ATOM     25  C   UNL     1      -2.058  13.141  23.026  0.00  0.00    +0.000 A 
ATOM     26  C   UNL     1      -2.420  14.496  22.955  0.00  0.00    +0.000 A 
ATOM     27  C   UNL     1      -3.626  14.953  23.486  0.00  0.00    +0.000 A 
ATOM     28  C   UNL     1      -4.495  14.058  24.098  0.00  0.00    +0.000 A 
ATOM     29  C   UNL     1      -4.154  12.709  24.155  0.00  0.00    +0.000 A 
ATOM     30  C   UNL     1      -2.954  12.243  23.617  0.00  0.00    +0.000 A 
BRANCH  29  31
ATOM     31  O   UNL     1      -4.981  11.802  24.752  0.00  0.00    +0.000 OA
ATOM     32  H   UNL     1      -5.122  12.076  25.672  0.00  0.00    +0.000 HD
ENDBRANCH  29  31
ENDBRANCH  23  25
ENDBRANCH   4  23
TORSDOF 6
ENDMDL
MODEL 2
REMARK VINA RESULT:      -8.0      3.977      9.994
REMARK  Name = 
REMARK  6 active torsions:
REMARK  status: ('A' for Active; 'I' for Inactive)
REMARK    1  A    between atoms: C_2  and  C_3
REMARK    2  A    between atoms: C_6  and  N_7
REMARK    3  A    between atoms: C_10  and  N_11
REMARK    4  A    between atoms: N_11  and  C_12
REMARK    5  A    between atoms: C_16  and  O_17
REMARK    6  A    between atoms: C_20  and  C_21
REMARK                            x       y       z     vdW  Elec       q    Type
REMARK                         _______ _______ _______ _____ _____    ______ ____
ROOT
ATOM      1  N   UNL     1       1.220   9.682  18.359  0.00  0.00    +0.000 N 
ATOM      2  C   UNL     1       2.060   8.540  18.331  0.00  0.00    +0.000 A 
ATOM      3  C   UNL     1       3.158   8.526  17.496  0.00  0.00    +0.000 A 
ATOM      4  C   UNL     1       3.882   7.353  17.420  0.00  0.00    +0.000 A 
ATOM      5  N   UNL     1       3.538   6.268  18.133  0.00  0.00    +0.000 NA
ATOM      6  C   UNL     1       2.459   6.354  18.921  0.00  0.00    +0.000 A 
ATOM      7  N   UNL     1       1.708   7.458  19.042  0.00  0.00    +0.000 NA
ATOM      8  H   UNL     1       1.715  10.502  18.020  0.00  0.00    +0.000 HD
ENDROOT
BRANCH   1  12
ATOM      9  C   UNL     1      -1.013  11.032  21.685  0.00  0.00    +0.000 A 
ATOM     10  C   UNL     1       0.115  10.234  21.888  0.00  0.00    +0.000 A 
ATOM     11  C   UNL     1       0.841   9.766  20.793  0.00  0.00    +0.000 A 
ATOM     12  C   UNL     1       0.441  10.062  19.481  0.00  0.00    +0.000 A 
ATOM     13  C   UNL     1      -0.680  10.880  19.289  0.00  0.00    +0.000 A 
ATOM     14  C   UNL     1      -1.414  11.349  20.385  0.00  0.00    +0.000 A 
BRANCH   9  16
ATOM     15  N   UNL     1      -2.351  11.917  23.720  0.00  0.00    +0.000 NA
ATOM     16  C   UNL     1      -1.742  11.517  22.810  0.00  0.00    +0.000 C 
ENDBRANCH   9  16
ENDBRANCH   1  12
BRANCH   6  17
ATOM     17  C   UNL     1       2.037   5.157  19.678  0.00  0.00    +0.000 A 
ATOM     18  C   UNL     1       2.387   4.973  21.031  0.00  0.00    +0.000 A 
ATOM     19  C   UNL     1       2.009   3.823  21.737  0.00  0.00    +0.000 A 
ATOM     20  C   UNL     1       1.266   2.830  21.101  0.00  0.00    +0.000 A 
ATOM     21  C   UNL     1       0.894   2.986  19.771  0.00  0.00    +0.000 A 
ATOM     22  C   UNL     1       1.272   4.137  19.072  0.00  0.00    +0.000 A 
ENDBRANCH   6  17
BRANCH   4  23
ATOM     23  N   UNL     1       4.968   7.293  16.515  0.00  0.00    +0.000 N 
ATOM     24  H   UNL     1       5.511   8.148  16.509  0.00  0.00    +0.000 HD
BRANCH  23  25
ATOM     25  C   UNL     1       5.709   6.132  16.215  0.00  0.00    +0.000 A 
ATOM     26  C   UNL     1       5.475   5.424  15.026  0.00  0.00    +0.000 A 
ATOM     27  C   UNL     1       6.177   4.257  14.727  0.00  0.00    +0.000 A 
ATOM     28  C   UNL     1       7.131   3.777  15.617  0.00  0.00    +0.000 A 
ATOM     29  C   UNL     1       7.384   4.483  16.789  0.00  0.00    +0.000 A 
ATOM     30  C   UNL     1       6.693   5.658  17.090  0.00  0.00    +0.000 A 
BRANCH  29  31
ATOM     31  O   UNL     1       8.311   4.041  17.688  0.00  0.00    +0.000 OA
ATOM     32  H   UNL     1       8.005   3.193  18.049  0.00  0.00    +0.000 HD
ENDBRANCH  29  31
ENDBRANCH  23  25
ENDBRANCH   4  23
TORSDOF 6
ENDMDL
MODEL 3
REMARK VINA RESULT:      -8.0      0.996      1.564
REMARK  Name = 
REMARK  6 active torsions:
REMARK  status: ('A' for Active; 'I' for Inactive)
REMARK    1  A    between atoms: C_2  and  C_3
REMARK    2  A    between atoms: C_6  and  N_7
REMARK    3  A    between atoms: C_10  and  N_11
REMARK    4  A    between atoms: N_11  and  C_12
REMARK    5  A    between atoms: C_16  and  O_17
REMARK    6  A    between atoms: C_20  and  C_21
REMARK                            x       y       z     vdW  Elec       q    Type
REMARK                         _______ _______ _______ _____ _____    ______ ____
ROOT
ATOM      1  N   UNL     1       1.172   8.562  21.125  0.00  0.00    +0.000 N 
ATOM      2  C   UNL     1       0.423   9.717  20.786  0.00  0.00    +0.000 A 
ATOM      3  C   UNL     1       0.424  10.801  21.640  0.00  0.00    +0.000 A 
ATOM      4  C   UNL     1      -0.405  11.858  21.323  0.00  0.00    +0.000 A 
ATOM      5  N   UNL     1      -1.179  11.840  20.226  0.00  0.00    +0.000 NA
ATOM      6  C   UNL     1      -1.130  10.754  19.444  0.00  0.00    +0.000 A 
ATOM      7  N   UNL     1      -0.351   9.691  19.691  0.00  0.00    +0.000 NA
ATOM      8  H   UNL     1       1.906   8.790  21.789  0.00  0.00    +0.000 HD
ENDROOT
BRANCH   1  12
ATOM      9  C   UNL     1       2.937   5.843  18.412  0.00  0.00    +0.000 A 
ATOM     10  C   UNL     1       2.853   7.196  18.077  0.00  0.00    +0.000 A 
ATOM     11  C   UNL     1       2.250   8.093  18.958  0.00  0.00    +0.000 A 
ATOM     12  C   UNL     1       1.698   7.654  20.172  0.00  0.00    +0.000 A 
ATOM     13  C   UNL     1       1.805   6.298  20.506  0.00  0.00    +0.000 A 
ATOM     14  C   UNL     1       2.407   5.393  19.623  0.00  0.00    +0.000 A 
BRANCH   9  16
ATOM     15  N   UNL     1       4.082   4.180  16.787  0.00  0.00    +0.000 NA
ATOM     16  C   UNL     1       3.567   4.935  17.511  0.00  0.00    +0.000 C 
ENDBRANCH   9  16
ENDBRANCH   1  12
BRANCH   6  17
ATOM     17  C   UNL     1      -2.008  10.694  18.258  0.00  0.00    +0.000 A 
ATOM     18  C   UNL     1      -1.706   9.875  17.151  0.00  0.00    +0.000 A 
ATOM     19  C   UNL     1      -2.526   9.844  16.015  0.00  0.00    +0.000 A 
ATOM     20  C   UNL     1      -3.675  10.632  15.965  0.00  0.00    +0.000 A 
ATOM     21  C   UNL     1      -4.008  11.442  17.044  0.00  0.00    +0.000 A 
ATOM     22  C   UNL     1      -3.186  11.467  18.176  0.00  0.00    +0.000 A 
ENDBRANCH   6  17
BRANCH   4  23
ATOM     23  N   UNL     1      -0.475  12.948  22.224  0.00  0.00    +0.000 N 
ATOM     24  H   UNL     1      -0.020  13.776  21.862  0.00  0.00    +0.000 HD
BRANCH  23  25
ATOM     25  C   UNL     1      -1.553  13.210  23.094  0.00  0.00    +0.000 A 
ATOM     26  C   UNL     1      -2.619  12.305  23.201  0.00  0.00    +0.000 A 
ATOM     27  C   UNL     1      -3.709  12.561  24.033  0.00  0.00    +0.000 A 
ATOM     28  C   UNL     1      -3.747  13.735  24.778  0.00  0.00    +0.000 A 
ATOM     29  C   UNL     1      -2.684  14.630  24.693  0.00  0.00    +0.000 A 
ATOM     30  C   UNL     1      -1.587  14.373  23.870  0.00  0.00    +0.000 A 
BRANCH  29  31
ATOM     31  O   UNL     1      -2.690  15.793  25.407  0.00  0.00    +0.000 OA
ATOM     32  H   UNL     1      -1.788  16.153  25.412  0.00  0.00    +0.000 HD
ENDBRANCH  29  31
ENDBRANCH  23  25
ENDBRANCH   4  23
TORSDOF 6
ENDMDL
MODEL 4
REMARK VINA RESULT:      -7.9      0.662      1.431
REMARK  Name = 
REMARK  6 active torsions:
REMARK  status: ('A' for Active; 'I' for Inactive)
REMARK    1  A    between atoms: C_2  and  C_3
REMARK    2  A    between atoms: C_6  and  N_7
REMARK    3  A    between atoms: C_10  and  N_11
REMARK    4  A    between atoms: N_11  and  C_12
REMARK    5  A    between atoms: C_16  and  O_17
REMARK    6  A    between atoms: C_20  and  C_21
REMARK                            x       y       z     vdW  Elec       q    Type
REMARK                         _______ _______ _______ _____ _____    ______ ____
ROOT
ATOM      1  N   UNL     1       0.711   9.059  21.315  0.00  0.00    +0.000 N 
ATOM      2  C   UNL     1      -0.108  10.116  20.846  0.00  0.00    +0.000 A 
ATOM      3  C   UNL     1      -0.330  11.213  21.653  0.00  0.00    +0.000 A 
ATOM      4  C   UNL     1      -1.222  12.164  21.199  0.00  0.00    +0.000 A 
ATOM      5  N   UNL     1      -1.847  12.034  20.017  0.00  0.00    +0.000 NA
ATOM      6  C   UNL     1      -1.585  10.942  19.288  0.00  0.00    +0.000 A 
ATOM      7  N   UNL     1      -0.733   9.978  19.667  0.00  0.00    +0.000 NA
ATOM      8  H   UNL     1       1.328   9.383  22.055  0.00  0.00    +0.000 HD
ENDROOT
BRANCH   1  12
ATOM      9  C   UNL     1       2.709   6.455  18.651  0.00  0.00    +0.000 A 
ATOM     10  C   UNL     1       2.292   5.981  19.897  0.00  0.00    +0.000 A 
ATOM     11  C   UNL     1       1.654   6.843  20.789  0.00  0.00    +0.000 A 
ATOM     12  C   UNL     1       1.446   8.193  20.467  0.00  0.00    +0.000 A 
ATOM     13  C   UNL     1       1.852   8.653  19.207  0.00  0.00    +0.000 A 
ATOM     14  C   UNL     1       2.495   7.792  18.309  0.00  0.00    +0.000 A 
BRANCH   9  16
ATOM     15  N   UNL     1       3.861   4.840  16.983  0.00  0.00    +0.000 NA
ATOM     16  C   UNL     1       3.349   5.565  17.740  0.00  0.00    +0.000 C 
ENDBRANCH   9  16
ENDBRANCH   1  12
BRANCH   6  17
ATOM     17  C   UNL     1      -2.297  10.758  18.007  0.00  0.00    +0.000 A 
ATOM     18  C   UNL     1      -1.805   9.903  17.000  0.00  0.00    +0.000 A 
ATOM     19  C   UNL     1      -2.468   9.753  15.775  0.00  0.00    +0.000 A 
ATOM     20  C   UNL     1      -3.647  10.457  15.532  0.00  0.00    +0.000 A 
ATOM     21  C   UNL     1      -4.166  11.299  16.508  0.00  0.00    +0.000 A 
ATOM     22  C   UNL     1      -3.499  11.442  17.730  0.00  0.00    +0.000 A 
ENDBRANCH   6  17
BRANCH   4  23
ATOM     23  N   UNL     1      -1.519  13.260  22.044  0.00  0.00    +0.000 N 
ATOM     24  H   UNL     1      -1.029  14.101  21.769  0.00  0.00    +0.000 HD
BRANCH  23  25
ATOM     25  C   UNL     1      -2.765  13.489  22.663  0.00  0.00    +0.000 A 
ATOM     26  C   UNL     1      -3.506  14.644  22.366  0.00  0.00    +0.000 A 
ATOM     27  C   UNL     1      -4.726  14.903  22.990  0.00  0.00    +0.000 A 
ATOM     28  C   UNL     1      -5.228  14.005  23.926  0.00  0.00    +0.000 A 
ATOM     29  C   UNL     1      -4.508  12.848  24.213  0.00  0.00    +0.000 A 
ATOM     30  C   UNL     1      -3.293  12.578  23.583  0.00  0.00    +0.000 A 
BRANCH  29  31
ATOM     31  O   UNL     1      -4.968  11.946  25.128  0.00  0.00    +0.000 OA
ATOM     32  H   UNL     1      -4.487  12.083  25.961  0.00  0.00    +0.000 HD
ENDBRANCH  29  31
ENDBRANCH  23  25
ENDBRANCH   4  23
TORSDOF 6
ENDMDL
MODEL 5
REMARK VINA RESULT:      -7.8      4.401     10.517
REMARK  Name = 
REMARK  6 active torsions:
REMARK  status: ('A' for Active; 'I' for Inactive)
REMARK    1  A    between atoms: C_2  and  C_3
REMARK    2  A    between atoms: C_6  and  N_7
REMARK    3  A    between atoms: C_10  and  N_11
REMARK    4  A    between atoms: N_11  and  C_12
REMARK    5  A    between atoms: C_16  and  O_17
REMARK    6  A    between atoms: C_20  and  C_21
REMARK                            x       y       z     vdW  Elec       q    Type
REMARK                         _______ _______ _______ _____ _____    ______ ____
ROOT
ATOM      1  N   UNL     1       2.243   8.771  17.623  0.00  0.00    +0.000 N 
ATOM      2  C   UNL     1       2.966   7.598  17.957  0.00  0.00    +0.000 A 
ATOM      3  C   UNL     1       4.201   7.376  17.383  0.00  0.00    +0.000 A 
ATOM      4  C   UNL     1       4.817   6.170  17.652  0.00  0.00    +0.000 A 
ATOM      5  N   UNL     1       4.245   5.249  18.444  0.00  0.00    +0.000 NA
ATOM      6  C   UNL     1       3.043   5.532  18.964  0.00  0.00    +0.000 A 
ATOM      7  N   UNL     1       2.386   6.680  18.745  0.00  0.00    +0.000 NA
ATOM      8  H   UNL     1       2.867   9.489  17.266  0.00  0.00    +0.000 HD
ENDROOT
BRANCH   1  12
ATOM      9  C   UNL     1      -0.503  10.813  20.104  0.00  0.00    +0.000 A 
ATOM     10  C   UNL     1       0.637  10.233  20.666  0.00  0.00    +0.000 A 
ATOM     11  C   UNL     1       1.533   9.537  19.856  0.00  0.00    +0.000 A 
ATOM     12  C   UNL     1       1.296   9.386  18.481  0.00  0.00    +0.000 A 
ATOM     13  C   UNL     1       0.160   9.988  17.924  0.00  0.00    +0.000 A 
ATOM     14  C   UNL     1      -0.743  10.685  18.735  0.00  0.00    +0.000 A 
BRANCH   9  16
ATOM     15  N   UNL     1      -2.143  12.137  21.612  0.00  0.00    +0.000 NA
ATOM     16  C   UNL     1      -1.407  11.534  20.939  0.00  0.00    +0.000 C 
ENDBRANCH   9  16
ENDBRANCH   1  12
BRANCH   6  17
ATOM     17  C   UNL     1       2.376   4.514  19.800  0.00  0.00    +0.000 A 
ATOM     18  C   UNL     1       2.750   4.292  21.141  0.00  0.00    +0.000 A 
ATOM     19  C   UNL     1       2.134   3.305  21.922  0.00  0.00    +0.000 A 
ATOM     20  C   UNL     1       1.121   2.518  21.376  0.00  0.00    +0.000 A 
ATOM     21  C   UNL     1       0.719   2.719  20.061  0.00  0.00    +0.000 A 
ATOM     22  C   UNL     1       1.338   3.708  19.287  0.00  0.00    +0.000 A 
ENDBRANCH   6  17
BRANCH   4  23
ATOM     23  N   UNL     1       6.050   5.892  17.015  0.00  0.00    +0.000 N 
ATOM     24  H   UNL     1       6.773   5.631  17.674  0.00  0.00    +0.000 HD
BRANCH  23  25
ATOM     25  C   UNL     1       6.188   5.307  15.740  0.00  0.00    +0.000 A 
ATOM     26  C   UNL     1       5.334   4.270  15.335  0.00  0.00    +0.000 A 
ATOM     27  C   UNL     1       5.474   3.659  14.089  0.00  0.00    +0.000 A 
ATOM     28  C   UNL     1       6.477   4.079  13.223  0.00  0.00    +0.000 A 
ATOM     29  C   UNL     1       7.317   5.120  13.608  0.00  0.00    +0.000 A 
ATOM     30  C   UNL     1       7.175   5.743  14.849  0.00  0.00    +0.000 A 
BRANCH  29  31
ATOM     31  O   UNL     1       8.314   5.557  12.785  0.00  0.00    +0.000 OA
ATOM     32  H   UNL     1       8.066   6.431  12.441  0.00  0.00    +0.000 HD
ENDBRANCH  29  31
ENDBRANCH  23  25
ENDBRANCH   4  23
TORSDOF 6
ENDMDL
MODEL 6
REMARK VINA RESULT:      -7.7      1.048      1.619
REMARK  Name = 
REMARK  6 active torsions:
REMARK  status: ('A' for Active; 'I' for Inactive)
REMARK    1  A    between atoms: C_2  and  C_3
REMARK    2  A    between atoms: C_6  and  N_7
REMARK    3  A    between atoms: C_10  and  N_11
REMARK    4  A    between atoms: N_11  and  C_12
REMARK    5  A    between atoms: C_16  and  O_17
REMARK    6  A    between atoms: C_20  and  C_21
REMARK                            x       y       z     vdW  Elec       q    Type
REMARK                         _______ _______ _______ _____ _____    ______ ____
ROOT
ATOM      1  N   UNL     1       0.821   9.020  20.989  0.00  0.00    +0.000 N 
ATOM      2  C   UNL     1      -0.045  10.077  20.611  0.00  0.00    +0.000 A 
ATOM      3  C   UNL     1      -0.243  11.133  21.476  0.00  0.00    +0.000 A 
ATOM      4  C   UNL     1      -1.178  12.082  21.113  0.00  0.00    +0.000 A 
ATOM      5  N   UNL     1      -1.865  11.989  19.963  0.00  0.00    +0.000 NA
ATOM      6  C   UNL     1      -1.622  10.934  19.173  0.00  0.00    +0.000 A 
ATOM      7  N   UNL     1      -0.731   9.975  19.463  0.00  0.00    +0.000 NA
ATOM      8  H   UNL     1       1.471   9.326  21.707  0.00  0.00    +0.000 HD
ENDROOT
BRANCH   1  12
ATOM      9  C   UNL     1       3.116   6.634  18.360  0.00  0.00    +0.000 A 
ATOM     10  C   UNL     1       2.737   7.921  17.972  0.00  0.00    +0.000 A 
ATOM     11  C   UNL     1       1.959   8.703  18.825  0.00  0.00    +0.000 A 
ATOM     12  C   UNL     1       1.526   8.207  20.064  0.00  0.00    +0.000 A 
ATOM     13  C   UNL     1       1.928   6.923  20.453  0.00  0.00    +0.000 A 
ATOM     14  C   UNL     1       2.706   6.133  19.598  0.00  0.00    +0.000 A 
BRANCH   9  16
ATOM     15  N   UNL     1       4.572   5.207  16.759  0.00  0.00    +0.000 NA
ATOM     16  C   UNL     1       3.922   5.846  17.487  0.00  0.00    +0.000 C 
ENDBRANCH   9  16
ENDBRANCH   1  12
BRANCH   6  17
ATOM     17  C   UNL     1      -2.400  10.788  17.926  0.00  0.00    +0.000 A 
ATOM     18  C   UNL     1      -1.951   9.981  16.861  0.00  0.00    +0.000 A 
ATOM     19  C   UNL     1      -2.677   9.868  15.668  0.00  0.00    +0.000 A 
ATOM     20  C   UNL     1      -3.877  10.561  15.517  0.00  0.00    +0.000 A 
ATOM     21  C   UNL     1      -4.354  11.357  16.552  0.00  0.00    +0.000 A 
ATOM     22  C   UNL     1      -3.625  11.463  17.742  0.00  0.00    +0.000 A 
ENDBRANCH   6  17
BRANCH   4  23
ATOM     23  N   UNL     1      -1.451  13.134  22.020  0.00  0.00    +0.000 N 
ATOM     24  H   UNL     1      -0.972  13.990  21.771  0.00  0.00    +0.000 HD
BRANCH  23  25
ATOM     25  C   UNL     1      -2.676  13.328  22.689  0.00  0.00    +0.000 A 
ATOM     26  C   UNL     1      -3.128  12.394  23.634  0.00  0.00    +0.000 A 
ATOM     27  C   UNL     1      -4.351  12.553  24.284  0.00  0.00    +0.000 A 
ATOM     28  C   UNL     1      -5.147  13.657  23.999  0.00  0.00    +0.000 A 
ATOM     29  C   UNL     1      -4.698  14.599  23.078  0.00  0.00    +0.000 A 
ATOM     30  C   UNL     1      -3.470  14.451  22.432  0.00  0.00    +0.000 A 
BRANCH  29  31
ATOM     31  O   UNL     1      -5.453  15.694  22.770  0.00  0.00    +0.000 OA
ATOM     32  H   UNL     1      -4.856  16.443  22.614  0.00  0.00    +0.000 HD
ENDBRANCH  29  31
ENDBRANCH  23  25
ENDBRANCH   4  23
TORSDOF 6
ENDMDL
MODEL 7
REMARK VINA RESULT:      -7.7      4.870     10.873
REMARK  Name = 
REMARK  6 active torsions:
REMARK  status: ('A' for Active; 'I' for Inactive)
REMARK    1  A    between atoms: C_2  and  C_3
REMARK    2  A    between atoms: C_6  and  N_7
REMARK    3  A    between atoms: C_10  and  N_11
REMARK    4  A    between atoms: N_11  and  C_12
REMARK    5  A    between atoms: C_16  and  O_17
REMARK    6  A    between atoms: C_20  and  C_21
REMARK                            x       y       z     vdW  Elec       q    Type
REMARK                         _______ _______ _______ _____ _____    ______ ____
ROOT
ATOM      1  N   UNL     1       3.001   8.135  17.366  0.00  0.00    +0.000 N 
ATOM      2  C   UNL     1       3.623   6.917  17.740  0.00  0.00    +0.000 A 
ATOM      3  C   UNL     1       4.799   6.541  17.124  0.00  0.00    +0.000 A 
ATOM      4  C   UNL     1       5.309   5.297  17.440  0.00  0.00    +0.000 A 
ATOM      5  N   UNL     1       4.693   4.486  18.315  0.00  0.00    +0.000 NA
ATOM      6  C   UNL     1       3.554   4.917  18.872  0.00  0.00    +0.000 A 
ATOM      7  N   UNL     1       3.000   6.110  18.611  0.00  0.00    +0.000 NA
ATOM      8  H   UNL     1       3.671   8.765  16.936  0.00  0.00    +0.000 HD
ENDROOT
BRANCH   1  12
ATOM      9  C   UNL     1       0.699  10.502  20.006  0.00  0.00    +0.000 A 
ATOM     10  C   UNL     1       0.970   9.171  20.330  0.00  0.00    +0.000 A 
ATOM     11  C   UNL     1       1.708   8.379  19.451  0.00  0.00    +0.000 A 
ATOM     12  C   UNL     1       2.164   8.891  18.227  0.00  0.00    +0.000 A 
ATOM     13  C   UNL     1       1.904  10.233  17.921  0.00  0.00    +0.000 A 
ATOM     14  C   UNL     1       1.161  11.030  18.799  0.00  0.00    +0.000 A 
BRANCH   9  16
ATOM     15  N   UNL     1      -0.660  11.954  21.669  0.00  0.00    +0.000 NA
ATOM     16  C   UNL     1      -0.045  11.308  20.917  0.00  0.00    +0.000 C 
ENDBRANCH   9  16
ENDBRANCH   1  12
BRANCH   6  17
ATOM     17  C   UNL     1       2.836   4.021  19.801  0.00  0.00    +0.000 A 
ATOM     18  C   UNL     1       1.431   4.040  19.915  0.00  0.00    +0.000 A 
ATOM     19  C   UNL     1       0.756   3.210  20.819  0.00  0.00    +0.000 A 
ATOM     20  C   UNL     1       1.477   2.334  21.630  0.00  0.00    +0.000 A 
ATOM     21  C   UNL     1       2.862   2.281  21.535  0.00  0.00    +0.000 A 
ATOM     22  C   UNL     1       3.530   3.112  20.628  0.00  0.00    +0.000 A 
ENDBRANCH   6  17
BRANCH   4  23
ATOM     23  N   UNL     1       6.474   4.860  16.765  0.00  0.00    +0.000 N 
ATOM     24  H   UNL     1       7.003   4.189  17.307  0.00  0.00    +0.000 HD
BRANCH  23  25
ATOM     25  C   UNL     1       6.588   4.700  15.369  0.00  0.00    +0.000 A 
ATOM     26  C   UNL     1       5.769   3.787  14.687  0.00  0.00    +0.000 A 
ATOM     27  C   UNL     1       5.887   3.593  13.311  0.00  0.00    +0.000 A 
ATOM     28  C   UNL     1       6.833   4.313  12.591  0.00  0.00    +0.000 A 
ATOM     29  C   UNL     1       7.637   5.235  13.256  0.00  0.00    +0.000 A 
ATOM     30  C   UNL     1       7.516   5.442  14.630  0.00  0.00    +0.000 A 
BRANCH  29  31
ATOM     31  O   UNL     1       8.578   5.958  12.582  0.00  0.00    +0.000 OA
ATOM     32  H   UNL     1       9.094   5.348  12.029  0.00  0.00    +0.000 HD
ENDBRANCH  29  31
ENDBRANCH  23  25
ENDBRANCH   4  23
TORSDOF 6
ENDMDL
MODEL 8
REMARK VINA RESULT:      -7.6      4.796     10.852
REMARK  Name = 
REMARK  6 active torsions:
REMARK  status: ('A' for Active; 'I' for Inactive)
REMARK    1  A    between atoms: C_2  and  C_3
REMARK    2  A    between atoms: C_6  and  N_7
REMARK    3  A    between atoms: C_10  and  N_11
REMARK    4  A    between atoms: N_11  and  C_12
REMARK    5  A    between atoms: C_16  and  O_17
REMARK    6  A    between atoms: C_20  and  C_21
REMARK                            x       y       z     vdW  Elec       q    Type
REMARK                         _______ _______ _______ _____ _____    ______ ____
ROOT
ATOM      1  N   UNL     1       3.077   8.167  17.383  0.00  0.00    +0.000 N 
ATOM      2  C   UNL     1       3.677   6.938  17.754  0.00  0.00    +0.000 A 
ATOM      3  C   UNL     1       4.841   6.536  17.131  0.00  0.00    +0.000 A 
ATOM      4  C   UNL     1       5.328   5.283  17.446  0.00  0.00    +0.000 A 
ATOM      5  N   UNL     1       4.701   4.486  18.327  0.00  0.00    +0.000 NA
ATOM      6  C   UNL     1       3.575   4.941  18.891  0.00  0.00    +0.000 A 
ATOM      7  N   UNL     1       3.044   6.144  18.631  0.00  0.00    +0.000 NA
ATOM      8  H   UNL     1       3.757   8.783  16.947  0.00  0.00    +0.000 HD
ENDROOT
BRANCH   1  12
ATOM      9  C   UNL     1       0.465  10.340  19.897  0.00  0.00    +0.000 A 
ATOM     10  C   UNL     1       0.889  10.902  18.692  0.00  0.00    +0.000 A 
ATOM     11  C   UNL     1       1.770  10.200  17.870  0.00  0.00    +0.000 A 
ATOM     12  C   UNL     1       2.262   8.941  18.248  0.00  0.00    +0.000 A 
ATOM     13  C   UNL     1       1.814   8.378  19.450  0.00  0.00    +0.000 A 
ATOM     14  C   UNL     1       0.932   9.081  20.279  0.00  0.00    +0.000 A 
BRANCH   9  16
ATOM     15  N   UNL     1      -1.180  11.662  21.403  0.00  0.00    +0.000 NA
ATOM     16  C   UNL     1      -0.446  11.060  20.725  0.00  0.00    +0.000 C 
ENDBRANCH   9  16
ENDBRANCH   1  12
BRANCH   6  17
ATOM     17  C   UNL     1       2.846   4.062  19.827  0.00  0.00    +0.000 A 
ATOM     18  C   UNL     1       3.518   3.155  20.671  0.00  0.00    +0.000 A 
ATOM     19  C   UNL     1       2.822   2.302  21.537  0.00  0.00    +0.000 A 
ATOM     20  C   UNL     1       1.428   2.341  21.580  0.00  0.00    +0.000 A 
ATOM     21  C   UNL     1       0.735   3.232  20.769  0.00  0.00    +0.000 A 
ATOM     22  C   UNL     1       1.437   4.083  19.908  0.00  0.00    +0.000 A 
ENDBRANCH   6  17
BRANCH   4  23
ATOM     23  N   UNL     1       6.479   4.821  16.764  0.00  0.00    +0.000 N 
ATOM     24  H   UNL     1       6.991   4.130  17.298  0.00  0.00    +0.000 HD
BRANCH  23  25
ATOM     25  C   UNL     1       6.586   4.672  15.366  0.00  0.00    +0.000 A 
ATOM     26  C   UNL     1       5.767   3.759  14.683  0.00  0.00    +0.000 A 
ATOM     27  C   UNL     1       5.879   3.576  13.305  0.00  0.00    +0.000 A 
ATOM     28  C   UNL     1       6.816   4.308  12.584  0.00  0.00    +0.000 A 
ATOM     29  C   UNL     1       7.618   5.229  13.251  0.00  0.00    +0.000 A 
ATOM     30  C   UNL     1       7.504   5.425  14.628  0.00  0.00    +0.000 A 
BRANCH  29  31
ATOM     31  O   UNL     1       8.551   5.963  12.577  0.00  0.00    +0.000 OA
ATOM     32  H   UNL     1       8.870   5.436  11.826  0.00  0.00    +0.000 HD
ENDBRANCH  29  31
ENDBRANCH  23  25
ENDBRANCH   4  23
TORSDOF 6
ENDMDL
MODEL 9
REMARK VINA RESULT:      -7.6      1.236      1.755
REMARK  Name = 
REMARK  6 active torsions:
REMARK  status: ('A' for Active; 'I' for Inactive)
REMARK    1  A    between atoms: C_2  and  C_3
REMARK    2  A    between atoms: C_6  and  N_7
REMARK    3  A    between atoms: C_10  and  N_11
REMARK    4  A    between atoms: N_11  and  C_12
REMARK    5  A    between atoms: C_16  and  O_17
REMARK    6  A    between atoms: C_20  and  C_21
REMARK                            x       y       z     vdW  Elec       q    Type
REMARK                         _______ _______ _______ _____ _____    ______ ____
ROOT
ATOM      1  N   UNL     1       0.522   9.253  21.106  0.00  0.00    +0.000 N 
ATOM      2  C   UNL     1      -0.378  10.241  20.633  0.00  0.00    +0.000 A 
ATOM      3  C   UNL     1      -0.752  11.273  21.468  0.00  0.00    +0.000 A 
ATOM      4  C   UNL     1      -1.714  12.148  21.003  0.00  0.00    +0.000 A 
ATOM      5  N   UNL     1      -2.261  12.008  19.784  0.00  0.00    +0.000 NA
ATOM      6  C   UNL     1      -1.851  10.981  19.029  0.00  0.00    +0.000 A 
ATOM      7  N   UNL     1      -0.925  10.092  19.417  0.00  0.00    +0.000 NA
ATOM      8  H   UNL     1       1.064   9.605  21.890  0.00  0.00    +0.000 HD
ENDROOT
BRANCH   1  12
ATOM      9  C   UNL     1       2.908   6.970  18.468  0.00  0.00    +0.000 A 
ATOM     10  C   UNL     1       2.554   6.441  19.711  0.00  0.00    +0.000 A 
ATOM     11  C   UNL     1       1.788   7.201  20.595  0.00  0.00    +0.000 A 
ATOM     12  C   UNL     1       1.385   8.504  20.267  0.00  0.00    +0.000 A 
ATOM     13  C   UNL     1       1.729   9.016  19.009  0.00  0.00    +0.000 A 
ATOM     14  C   UNL     1       2.501   8.259  18.120  0.00  0.00    +0.000 A 
BRANCH   9  16
ATOM     15  N   UNL     1       4.326   5.549  16.827  0.00  0.00    +0.000 NA
ATOM     16  C   UNL     1       3.681   6.182  17.565  0.00  0.00    +0.000 C 
ENDBRANCH   9  16
ENDBRANCH   1  12
BRANCH   6  17
ATOM     17  C   UNL     1      -2.474  10.781  17.705  0.00  0.00    +0.000 A 
ATOM     18  C   UNL     1      -3.659  11.450  17.333  0.00  0.00    +0.000 A 
ATOM     19  C   UNL     1      -4.263  11.236  16.088  0.00  0.00    +0.000 A 
ATOM     20  C   UNL     1      -3.688  10.346  15.180  0.00  0.00    +0.000 A 
ATOM     21  C   UNL     1      -2.514   9.680  15.510  0.00  0.00    +0.000 A 
ATOM     22  C   UNL     1      -1.915   9.900  16.756  0.00  0.00    +0.000 A 
ENDBRANCH   6  17
BRANCH   4  23
ATOM     23  N   UNL     1      -2.166  13.170  21.871  0.00  0.00    +0.000 N 
ATOM     24  H   UNL     1      -1.922  14.094  21.537  0.00  0.00    +0.000 HD
BRANCH  23  25
ATOM     25  C   UNL     1      -3.353  13.121  22.630  0.00  0.00    +0.000 A 
ATOM     26  C   UNL     1      -3.387  12.440  23.857  0.00  0.00    +0.000 A 
ATOM     27  C   UNL     1      -4.560  12.355  24.607  0.00  0.00    +0.000 A 
ATOM     28  C   UNL     1      -5.724  12.955  24.139  0.00  0.00    +0.000 A 
ATOM     29  C   UNL     1      -5.695  13.649  22.933  0.00  0.00    +0.000 A 
ATOM     30  C   UNL     1      -4.522  13.746  22.183  0.00  0.00    +0.000 A 
BRANCH  29  31
ATOM     31  O   UNL     1      -6.819  14.246  22.441  0.00  0.00    +0.000 OA
ATOM     32  H   UNL     1      -7.269  13.616  21.854  0.00  0.00    +0.000 HD
ENDBRANCH  29  31
ENDBRANCH  23  25
ENDBRANCH   4  23
TORSDOF 6
ENDMDL
