MODEL 1
REMARK VINA RESULT:      -8.1      0.000      0.000
REMARK  Name = 
REMARK  4 active torsions:
REMARK  status: ('A' for Active; 'I' for Inactive)
REMARK    1  A    between atoms: C_1  and  N_2
REMARK    2  A    between atoms: C_4  and  C_5
REMARK    3  A    between atoms: C_23  and  S_24
REMARK    4  A    between atoms: S_24  and  N_27
REMARK                            x       y       z     vdW  Elec       q    Type
REMARK                         _______ _______ _______ _____ _____    ______ ____
ROOT
ATOM      1  C   UNL     1       0.130   8.019  22.324  0.00  0.00    +0.000 C 
ATOM      2  N   UNL     1       0.639   8.311  20.980  0.00  0.00    +0.000 N 
ATOM      3  C   UNL     1       0.256   9.450  20.296  0.00  0.00    +0.000 A 
ATOM      4  C   UNL     1       0.766   9.925  19.150  0.00  0.00    +0.000 A 
ATOM      5  C   UNL     1       1.715   9.015  18.446  0.00  0.00    +0.000 A 
ATOM      6  O   UNL     1       2.283   9.309  17.399  0.00  0.00    +0.000 OA
ATOM      7  C   UNL     1       1.987   7.675  19.056  0.00  0.00    +0.000 A 
ATOM      8  C   UNL     1       2.734   6.722  18.332  0.00  0.00    +0.000 A 
ATOM      9  C   UNL     1       2.999   5.478  18.915  0.00  0.00    +0.000 A 
ATOM     10  C   UNL     1       2.532   5.184  20.194  0.00  0.00    +0.000 A 
ATOM     11  C   UNL     1       1.786   6.132  20.901  0.00  0.00    +0.000 A 
ATOM     12  C   UNL     1       1.476   7.377  20.340  0.00  0.00    +0.000 A 
ENDROOT
BRANCH   4  13
ATOM     13  C   UNL     1       0.259  11.197  18.560  0.00  0.00    +0.000 C 
ATOM     14  O   UNL     1      -0.705  11.167  17.794  0.00  0.00    +0.000 OA
ATOM     15  N   UNL     1       0.809  12.418  18.953  0.00  0.00    +0.000 N 
ATOM     16  C   UNL     1       0.073  13.643  18.616  0.00  0.00    +0.000 C 
ATOM     17  C   UNL     1       0.029  14.618  19.810  0.00  0.00    +0.000 C 
ATOM     18  N   UNL     1       1.369  14.832  20.366  0.00  0.00    +0.000 N 
ATOM     19  C   UNL     1       1.890  16.089  20.558  0.00  0.00    +0.000 A 
ATOM     20  C   UNL     1       1.070  17.152  20.936  0.00  0.00    +0.000 A 
ATOM     21  C   UNL     1       1.599  18.431  21.099  0.00  0.00    +0.000 A 
ATOM     22  C   UNL     1       2.950  18.630  20.873  0.00  0.00    +0.000 A 
ATOM     23  C   UNL     1       3.710  17.532  20.519  0.00  0.00    +0.000 A 
ATOM     24  N   UNL     1       3.214  16.280  20.379  0.00  0.00    +0.000 NA
ATOM     25  C   UNL     1       2.183  13.646  20.628  0.00  0.00    +0.000 C 
ATOM     26  C   UNL     1       2.192  12.697  19.412  0.00  0.00    +0.000 C 
ENDBRANCH   4  13
BRANCH   9  27
ATOM     27  S   UNL     1       3.749   4.175  17.959  0.00  0.00    +0.000 S 
ATOM     28  O   UNL     1       4.295   3.224  18.904  0.00  0.00    +0.000 OA
ATOM     29  O   UNL     1       2.790   3.770  16.958  0.00  0.00    +0.000 OA
BRANCH  27  30
ATOM     30  N   UNL     1       5.026   4.934  17.190  0.00  0.00    +0.000 NA
ATOM     31  C   UNL     1       5.226   4.853  15.729  0.00  0.00    +0.000 C 
ATOM     32  C   UNL     1       6.578   4.223  15.380  0.00  0.00    +0.000 C 
ATOM     33  O   UNL     1       7.663   4.828  16.093  0.00  0.00    +0.000 OA
ATOM     34  C   UNL     1       7.467   4.726  17.509  0.00  0.00    +0.000 C 
ATOM     35  C   UNL     1       6.188   5.443  17.943  0.00  0.00    +0.000 C 
ENDBRANCH  27  30
ENDBRANCH   9  27
TORSDOF 3
ENDMDL
MODEL 2
REMARK VINA RESULT:      -7.9      2.938      3.530
REMARK  Name = 
REMARK  4 active torsions:
REMARK  status: ('A' for Active; 'I' for Inactive)
REMARK    1  A    between atoms: C_1  and  N_2
REMARK    2  A    between atoms: C_4  and  C_5
REMARK    3  A    between atoms: C_23  and  S_24
REMARK    4  A    between atoms: S_24  and  N_27
REMARK                            x       y       z     vdW  Elec       q    Type
REMARK                         _______ _______ _______ _____ _____    ______ ____
ROOT
ATOM      1  C   UNL     1       0.940   7.039  21.540  0.00  0.00    +0.000 C 
ATOM      2  N   UNL     1       1.226   7.859  20.358  0.00  0.00    +0.000 N 
ATOM      3  C   UNL     1       0.469   8.977  20.058  0.00  0.00    +0.000 A 
ATOM      4  C   UNL     1       0.718   9.905  19.122  0.00  0.00    +0.000 A 
ATOM      5  C   UNL     1       1.830   9.581  18.180  0.00  0.00    +0.000 A 
ATOM      6  O   UNL     1       2.195  10.332  17.282  0.00  0.00    +0.000 OA
ATOM      7  C   UNL     1       2.532   8.269  18.346  0.00  0.00    +0.000 A 
ATOM      8  C   UNL     1       3.461   7.852  17.371  0.00  0.00    +0.000 A 
ATOM      9  C   UNL     1       4.127   6.633  17.541  0.00  0.00    +0.000 A 
ATOM     10  C   UNL     1       3.877   5.842  18.660  0.00  0.00    +0.000 A 
ATOM     11  C   UNL     1       2.949   6.261  19.619  0.00  0.00    +0.000 A 
ATOM     12  C   UNL     1       2.241   7.461  19.469  0.00  0.00    +0.000 A 
ENDROOT
BRANCH   4  13
ATOM     13  C   UNL     1      -0.186  11.077  18.950  0.00  0.00    +0.000 C 
ATOM     14  O   UNL     1      -0.711  11.281  17.854  0.00  0.00    +0.000 OA
ATOM     15  N   UNL     1      -0.514  11.874  20.047  0.00  0.00    +0.000 N 
ATOM     16  C   UNL     1      -1.651  12.793  19.914  0.00  0.00    +0.000 C 
ATOM     17  C   UNL     1      -2.555  12.755  21.163  0.00  0.00    +0.000 C 
ATOM     18  N   UNL     1      -1.767  12.915  22.389  0.00  0.00    +0.000 N 
ATOM     19  C   UNL     1      -2.078  13.857  23.341  0.00  0.00    +0.000 A 
ATOM     20  C   UNL     1      -3.406  14.188  23.610  0.00  0.00    +0.000 A 
ATOM     21  C   UNL     1      -3.713  15.166  24.554  0.00  0.00    +0.000 A 
ATOM     22  C   UNL     1      -2.679  15.807  25.215  0.00  0.00    +0.000 A 
ATOM     23  C   UNL     1      -1.388  15.419  24.915  0.00  0.00    +0.000 A 
ATOM     24  N   UNL     1      -1.075  14.455  24.017  0.00  0.00    +0.000 NA
ATOM     25  C   UNL     1      -0.567  12.091  22.528  0.00  0.00    +0.000 C 
ATOM     26  C   UNL     1       0.301  12.155  21.255  0.00  0.00    +0.000 C 
ENDBRANCH   4  13
BRANCH   9  27
ATOM     27  S   UNL     1       5.142   5.968  16.236  0.00  0.00    +0.000 S 
ATOM     28  O   UNL     1       4.788   4.572  16.100  0.00  0.00    +0.000 OA
ATOM     29  O   UNL     1       5.051   6.877  15.117  0.00  0.00    +0.000 OA
BRANCH  27  30
ATOM     30  N   UNL     1       6.692   6.052  16.859  0.00  0.00    +0.000 NA
ATOM     31  C   UNL     1       7.206   5.065  17.829  0.00  0.00    +0.000 C 
ATOM     32  C   UNL     1       7.619   5.730  19.146  0.00  0.00    +0.000 C 
ATOM     33  O   UNL     1       8.476   6.860  18.941  0.00  0.00    +0.000 OA
ATOM     34  C   UNL     1       7.840   7.844  18.114  0.00  0.00    +0.000 C 
ATOM     35  C   UNL     1       7.508   7.276  16.735  0.00  0.00    +0.000 C 
ENDBRANCH  27  30
ENDBRANCH   9  27
TORSDOF 3
ENDMDL
MODEL 3
REMARK VINA RESULT:      -7.8      4.001      5.563
REMARK  Name = 
REMARK  4 active torsions:
REMARK  status: ('A' for Active; 'I' for Inactive)
REMARK    1  A    between atoms: C_1  and  N_2
REMARK    2  A    between atoms: C_4  and  C_5
REMARK    3  A    between atoms: C_23  and  S_24
REMARK    4  A    between atoms: S_24  and  N_27
REMARK                            x       y       z     vdW  Elec       q    Type
REMARK                         _______ _______ _______ _____ _____    ______ ____
ROOT
ATOM      1  C   UNL     1       1.232  12.528  18.416  0.00  0.00    +0.000 C 
ATOM      2  N   UNL     1       0.861  11.451  19.339  0.00  0.00    +0.000 N 
ATOM      3  C   UNL     1       0.136  11.706  20.488  0.00  0.00    +0.000 A 
ATOM      4  C   UNL     1      -0.414  10.812  21.323  0.00  0.00    +0.000 A 
ATOM      5  C   UNL     1      -0.029   9.390  21.080  0.00  0.00    +0.000 A 
ATOM      6  O   UNL     1      -0.461   8.451  21.741  0.00  0.00    +0.000 OA
ATOM      7  C   UNL     1       0.932   9.102  19.970  0.00  0.00    +0.000 A 
ATOM      8  C   UNL     1       1.455   7.800  19.826  0.00  0.00    +0.000 A 
ATOM      9  C   UNL     1       2.339   7.533  18.775  0.00  0.00    +0.000 A 
ATOM     10  C   UNL     1       2.698   8.539  17.882  0.00  0.00    +0.000 A 
ATOM     11  C   UNL     1       2.181   9.829  18.037  0.00  0.00    +0.000 A 
ATOM     12  C   UNL     1       1.315  10.142  19.093  0.00  0.00    +0.000 A 
ENDROOT
BRANCH   4  13
ATOM     13  C   UNL     1      -1.201  11.257  22.508  0.00  0.00    +0.000 C 
ATOM     14  O   UNL     1      -0.878  10.868  23.631  0.00  0.00    +0.000 OA
ATOM     15  N   UNL     1      -2.230  12.187  22.353  0.00  0.00    +0.000 N 
ATOM     16  C   UNL     1      -2.748  12.846  23.559  0.00  0.00    +0.000 C 
ATOM     17  C   UNL     1      -2.936  14.360  23.335  0.00  0.00    +0.000 C 
ATOM     18  N   UNL     1      -3.698  14.621  22.110  0.00  0.00    +0.000 N 
ATOM     19  C   UNL     1      -4.811  15.428  22.097  0.00  0.00    +0.000 A 
ATOM     20  C   UNL     1      -4.891  16.546  22.926  0.00  0.00    +0.000 A 
ATOM     21  C   UNL     1      -6.036  17.342  22.931  0.00  0.00    +0.000 A 
ATOM     22  C   UNL     1      -7.093  16.999  22.106  0.00  0.00    +0.000 A 
ATOM     23  C   UNL     1      -6.942  15.890  21.297  0.00  0.00    +0.000 A 
ATOM     24  N   UNL     1      -5.828  15.121  21.264  0.00  0.00    +0.000 NA
ATOM     25  C   UNL     1      -3.284  13.913  20.899  0.00  0.00    +0.000 C 
ATOM     26  C   UNL     1      -3.101  12.406  21.172  0.00  0.00    +0.000 C 
ENDBRANCH   4  13
BRANCH   9  27
ATOM     27  S   UNL     1       3.186   5.968  18.683  0.00  0.00    +0.000 S 
ATOM     28  O   UNL     1       3.671   5.833  17.327  0.00  0.00    +0.000 OA
ATOM     29  O   UNL     1       4.085   5.900  19.811  0.00  0.00    +0.000 OA
BRANCH  27  30
ATOM     30  N   UNL     1       1.967   4.845  18.912  0.00  0.00    +0.000 NA
ATOM     31  C   UNL     1       1.474   4.480  20.255  0.00  0.00    +0.000 C 
ATOM     32  C   UNL     1       1.659   2.986  20.537  0.00  0.00    +0.000 C 
ATOM     33  O   UNL     1       1.153   2.164  19.477  0.00  0.00    +0.000 OA
ATOM     34  C   UNL     1       1.796   2.476  18.234  0.00  0.00    +0.000 C 
ATOM     35  C   UNL     1       1.548   3.930  17.833  0.00  0.00    +0.000 C 
ENDBRANCH  27  30
ENDBRANCH   9  27
TORSDOF 3
ENDMDL
MODEL 4
REMARK VINA RESULT:      -7.8      3.337      4.347
REMARK  Name = 
REMARK  4 active torsions:
REMARK  status: ('A' for Active; 'I' for Inactive)
REMARK    1  A    between atoms: C_1  and  N_2
REMARK    2  A    between atoms: C_4  and  C_5
REMARK    3  A    between atoms: C_23  and  S_24
REMARK    4  A    between atoms: S_24  and  N_27
REMARK                            x       y       z     vdW  Elec       q    Type
REMARK                         _______ _______ _______ _____ _____    ______ ____
ROOT
ATOM      1  C   UNL     1       1.804  11.948  18.136  0.00  0.00    +0.000 C 
ATOM      2  N   UNL     1       1.433  10.907  19.100  0.00  0.00    +0.000 N 
ATOM      3  C   UNL     1       0.765  11.216  20.271  0.00  0.00    +0.000 A 
ATOM      4  C   UNL     1       0.219  10.362  21.149  0.00  0.00    +0.000 A 
ATOM      5  C   UNL     1       0.542   8.922  20.926  0.00  0.00    +0.000 A 
ATOM      6  O   UNL     1       0.104   8.015  21.628  0.00  0.00    +0.000 OA
ATOM      7  C   UNL     1       1.446   8.572  19.786  0.00  0.00    +0.000 A 
ATOM      8  C   UNL     1       1.915   7.249  19.654  0.00  0.00    +0.000 A 
ATOM      9  C   UNL     1       2.746   6.925  18.575  0.00  0.00    +0.000 A 
ATOM     10  C   UNL     1       3.104   7.896  17.643  0.00  0.00    +0.000 A 
ATOM     11  C   UNL     1       2.639   9.207  17.787  0.00  0.00    +0.000 A 
ATOM     12  C   UNL     1       1.830   9.577  18.868  0.00  0.00    +0.000 A 
ENDROOT
BRANCH   4  13
ATOM     13  C   UNL     1      -0.503  10.864  22.353  0.00  0.00    +0.000 C 
ATOM     14  O   UNL     1      -0.198  10.433  23.465  0.00  0.00    +0.000 OA
ATOM     15  N   UNL     1      -1.445  11.887  22.227  0.00  0.00    +0.000 N 
ATOM     16  C   UNL     1      -1.877  12.576  23.449  0.00  0.00    +0.000 C 
ATOM     17  C   UNL     1      -1.928  14.104  23.245  0.00  0.00    +0.000 C 
ATOM     18  N   UNL     1      -2.684  14.449  22.037  0.00  0.00    +0.000 N 
ATOM     19  C   UNL     1      -3.717  15.355  22.053  0.00  0.00    +0.000 A 
ATOM     20  C   UNL     1      -3.679  16.466  22.895  0.00  0.00    +0.000 A 
ATOM     21  C   UNL     1      -4.745  17.364  22.930  0.00  0.00    +0.000 A 
ATOM     22  C   UNL     1      -5.843  17.131  22.121  0.00  0.00    +0.000 A 
ATOM     23  C   UNL     1      -5.810  16.022  21.297  0.00  0.00    +0.000 A 
ATOM     24  N   UNL     1      -4.773  15.154  21.236  0.00  0.00    +0.000 NA
ATOM     25  C   UNL     1      -2.359  13.720  20.811  0.00  0.00    +0.000 C 
ATOM     26  C   UNL     1      -2.312  12.199  21.064  0.00  0.00    +0.000 C 
ENDBRANCH   4  13
BRANCH   9  27
ATOM     27  S   UNL     1       3.532   5.328  18.489  0.00  0.00    +0.000 S 
ATOM     28  O   UNL     1       3.870   4.954  19.845  0.00  0.00    +0.000 OA
ATOM     29  O   UNL     1       2.699   4.485  17.664  0.00  0.00    +0.000 OA
BRANCH  27  30
ATOM     30  N   UNL     1       4.955   5.632  17.665  0.00  0.00    +0.000 NA
ATOM     31  C   UNL     1       5.096   5.381  16.216  0.00  0.00    +0.000 C 
ATOM     32  C   UNL     1       6.209   4.369  15.925  0.00  0.00    +0.000 C 
ATOM     33  O   UNL     1       7.434   4.699  16.590  0.00  0.00    +0.000 OA
ATOM     34  C   UNL     1       7.245   4.771  18.010  0.00  0.00    +0.000 C 
ATOM     35  C   UNL     1       6.228   5.852  18.378  0.00  0.00    +0.000 C 
ENDBRANCH  27  30
ENDBRANCH   9  27
TORSDOF 3
ENDMDL
MODEL 5
REMARK VINA RESULT:      -7.7      0.665      1.119
REMARK  Name = 
REMARK  4 active torsions:
REMARK  status: ('A' for Active; 'I' for Inactive)
REMARK    1  A    between atoms: C_1  and  N_2
REMARK    2  A    between atoms: C_4  and  C_5
REMARK    3  A    between atoms: C_23  and  S_24
REMARK    4  A    between atoms: S_24  and  N_27
REMARK                            x       y       z     vdW  Elec       q    Type
REMARK                         _______ _______ _______ _____ _____    ______ ____
ROOT
ATOM      1  C   UNL     1       0.663   8.154  22.340  0.00  0.00    +0.000 C 
ATOM      2  N   UNL     1       0.996   8.309  20.921  0.00  0.00    +0.000 N 
ATOM      3  C   UNL     1       0.521   9.378  20.183  0.00  0.00    +0.000 A 
ATOM      4  C   UNL     1       0.879   9.736  18.941  0.00  0.00    +0.000 A 
ATOM      5  C   UNL     1       1.739   8.756  18.215  0.00  0.00    +0.000 A 
ATOM      6  O   UNL     1       2.168   8.942  17.081  0.00  0.00    +0.000 OA
ATOM      7  C   UNL     1       2.095   7.480  18.913  0.00  0.00    +0.000 A 
ATOM      8  C   UNL     1       2.751   6.458  18.198  0.00  0.00    +0.000 A 
ATOM      9  C   UNL     1       3.096   5.275  18.862  0.00  0.00    +0.000 A 
ATOM     10  C   UNL     1       2.797   5.110  20.211  0.00  0.00    +0.000 A 
ATOM     11  C   UNL     1       2.139   6.127  20.911  0.00  0.00    +0.000 A 
ATOM     12  C   UNL     1       1.752   7.313  20.274  0.00  0.00    +0.000 A 
ENDROOT
BRANCH   4  13
ATOM     13  C   UNL     1       0.293  10.946  18.297  0.00  0.00    +0.000 C 
ATOM     14  O   UNL     1      -0.623  10.816  17.484  0.00  0.00    +0.000 OA
ATOM     15  N   UNL     1       0.711  12.218  18.690  0.00  0.00    +0.000 N 
ATOM     16  C   UNL     1      -0.112  13.366  18.290  0.00  0.00    +0.000 C 
ATOM     17  C   UNL     1      -0.305  14.355  19.458  0.00  0.00    +0.000 C 
ATOM     18  N   UNL     1       0.979  14.698  20.076  0.00  0.00    +0.000 N 
ATOM     19  C   UNL     1       1.376  16.000  20.267  0.00  0.00    +0.000 A 
ATOM     20  C   UNL     1       0.445  16.991  20.578  0.00  0.00    +0.000 A 
ATOM     21  C   UNL     1       0.850  18.315  20.740  0.00  0.00    +0.000 A 
ATOM     22  C   UNL     1       2.188  18.630  20.578  0.00  0.00    +0.000 A 
ATOM     23  C   UNL     1       3.060  17.599  20.287  0.00  0.00    +0.000 A 
ATOM     24  N   UNL     1       2.685  16.306  20.150  0.00  0.00    +0.000 NA
ATOM     25  C   UNL     1       1.881  13.594  20.405  0.00  0.00    +0.000 C 
ATOM     26  C   UNL     1       2.038  12.629  19.212  0.00  0.00    +0.000 C 
ENDBRANCH   4  13
BRANCH   9  27
ATOM     27  S   UNL     1       3.729   3.880  17.951  0.00  0.00    +0.000 S 
ATOM     28  O   UNL     1       4.107   2.880  18.926  0.00  0.00    +0.000 OA
ATOM     29  O   UNL     1       2.779   3.585  16.904  0.00  0.00    +0.000 OA
BRANCH  27  30
ATOM     30  N   UNL     1       5.126   4.471  17.245  0.00  0.00    +0.000 NA
ATOM     31  C   UNL     1       6.251   4.997  18.043  0.00  0.00    +0.000 C 
ATOM     32  C   UNL     1       6.546   6.462  17.704  0.00  0.00    +0.000 C 
ATOM     33  O   UNL     1       6.668   6.681  16.293  0.00  0.00    +0.000 OA
ATOM     34  C   UNL     1       5.472   6.288  15.607  0.00  0.00    +0.000 C 
ATOM     35  C   UNL     1       5.184   4.800  15.807  0.00  0.00    +0.000 C 
ENDBRANCH  27  30
ENDBRANCH   9  27
TORSDOF 3
ENDMDL
MODEL 6
REMARK VINA RESULT:      -7.6      3.438      4.723
REMARK  Name = 
REMARK  4 active torsions:
REMARK  status: ('A' for Active; 'I' for Inactive)
REMARK    1  A    between atoms: C_1  and  N_2
REMARK    2  A    between atoms: C_4  and  C_5
REMARK    3  A    between atoms: C_23  and  S_24
REMARK    4  A    between atoms: S_24  and  N_27
REMARK                            x       y       z     vdW  Elec       q    Type
REMARK                         _______ _______ _______ _____ _____    ______ ____
ROOT
ATOM      1  C   UNL     1       2.131  10.588  17.549  0.00  0.00    +0.000 C 
ATOM      2  N   UNL     1       1.904   9.658  18.659  0.00  0.00    +0.000 N 
ATOM      3  C   UNL     1       1.295  10.070  19.830  0.00  0.00    +0.000 A 
ATOM      4  C   UNL     1       0.873   9.302  20.846  0.00  0.00    +0.000 A 
ATOM      5  C   UNL     1       1.288   7.870  20.780  0.00  0.00    +0.000 A 
ATOM      6  O   UNL     1       0.968   7.035  21.619  0.00  0.00    +0.000 OA
ATOM      7  C   UNL     1       2.139   7.437  19.627  0.00  0.00    +0.000 A 
ATOM      8  C   UNL     1       2.697   6.142  19.625  0.00  0.00    +0.000 A 
ATOM      9  C   UNL     1       3.476   5.738  18.535  0.00  0.00    +0.000 A 
ATOM     10  C   UNL     1       3.697   6.602  17.466  0.00  0.00    +0.000 A 
ATOM     11  C   UNL     1       3.145   7.886  17.480  0.00  0.00    +0.000 A 
ATOM     12  C   UNL     1       2.384   8.338  18.565  0.00  0.00    +0.000 A 
ENDROOT
BRANCH   4  13
ATOM     13  C   UNL     1       0.197   9.906  22.029  0.00  0.00    +0.000 C 
ATOM     14  O   UNL     1       0.507   9.531  23.161  0.00  0.00    +0.000 OA
ATOM     15  N   UNL     1      -0.703  10.959  21.858  0.00  0.00    +0.000 N 
ATOM     16  C   UNL     1      -1.082  11.739  23.042  0.00  0.00    +0.000 C 
ATOM     17  C   UNL     1      -1.074  13.252  22.746  0.00  0.00    +0.000 C 
ATOM     18  N   UNL     1      -1.839  13.555  21.533  0.00  0.00    +0.000 N 
ATOM     19  C   UNL     1      -2.834  14.504  21.512  0.00  0.00    +0.000 A 
ATOM     20  C   UNL     1      -2.733  15.661  22.284  0.00  0.00    +0.000 A 
ATOM     21  C   UNL     1      -3.759  16.604  22.282  0.00  0.00    +0.000 A 
ATOM     22  C   UNL     1      -4.883  16.369  21.508  0.00  0.00    +0.000 A 
ATOM     23  C   UNL     1      -4.912  15.213  20.754  0.00  0.00    +0.000 A 
ATOM     24  N   UNL     1      -3.913  14.299  20.728  0.00  0.00    +0.000 NA
ATOM     25  C   UNL     1      -1.569  12.741  20.348  0.00  0.00    +0.000 C 
ATOM     26  C   UNL     1      -1.580  11.237  20.694  0.00  0.00    +0.000 C 
ENDBRANCH   4  13
BRANCH   9  27
ATOM     27  S   UNL     1       4.372   4.199  18.588  0.00  0.00    +0.000 S 
ATOM     28  O   UNL     1       4.574   3.784  17.217  0.00  0.00    +0.000 OA
ATOM     29  O   UNL     1       5.488   4.383  19.487  0.00  0.00    +0.000 OA
BRANCH  27  30
ATOM     30  N   UNL     1       3.293   3.137  19.298  0.00  0.00    +0.000 NA
ATOM     31  C   UNL     1       1.974   2.840  18.705  0.00  0.00    +0.000 C 
ATOM     32  C   UNL     1       0.832   3.210  19.657  0.00  0.00    +0.000 C 
ATOM     33  O   UNL     1       1.023   2.674  20.972  0.00  0.00    +0.000 OA
ATOM     34  C   UNL     1       2.256   3.136  21.540  0.00  0.00    +0.000 C 
ATOM     35  C   UNL     1       3.452   2.694  20.697  0.00  0.00    +0.000 C 
ENDBRANCH  27  30
ENDBRANCH   9  27
TORSDOF 3
ENDMDL
MODEL 7
REMARK VINA RESULT:      -7.3      5.106      9.011
REMARK  Name = 
REMARK  4 active torsions:
REMARK  status: ('A' for Active; 'I' for Inactive)
REMARK    1  A    between atoms: C_1  and  N_2
REMARK    2  A    between atoms: C_4  and  C_5
REMARK    3  A    between atoms: C_23  and  S_24
REMARK    4  A    between atoms: S_24  and  N_27
REMARK                            x       y       z     vdW  Elec       q    Type
REMARK                         _______ _______ _______ _____ _____    ______ ____
ROOT
ATOM      1  C   UNL     1       1.194  17.980  17.307  0.00  0.00    +0.000 C 
ATOM      2  N   UNL     1       2.003  17.069  18.122  0.00  0.00    +0.000 N 
ATOM      3  C   UNL     1       3.334  17.332  18.391  0.00  0.00    +0.000 A 
ATOM      4  C   UNL     1       4.137  16.687  19.250  0.00  0.00    +0.000 A 
ATOM      5  C   UNL     1       3.577  15.430  19.828  0.00  0.00    +0.000 A 
ATOM      6  O   UNL     1       4.176  14.736  20.643  0.00  0.00    +0.000 OA
ATOM      7  C   UNL     1       2.213  15.000  19.387  0.00  0.00    +0.000 A 
ATOM      8  C   UNL     1       1.727  13.733  19.771  0.00  0.00    +0.000 A 
ATOM      9  C   UNL     1       0.444  13.345  19.369  0.00  0.00    +0.000 A 
ATOM     10  C   UNL     1      -0.344  14.198  18.603  0.00  0.00    +0.000 A 
ATOM     11  C   UNL     1       0.149  15.450  18.220  0.00  0.00    +0.000 A 
ATOM     12  C   UNL     1       1.439  15.862  18.578  0.00  0.00    +0.000 A 
ENDROOT
BRANCH   4  13
ATOM     13  C   UNL     1       5.548  17.124  19.450  0.00  0.00    +0.000 C 
ATOM     14  O   UNL     1       5.776  18.227  19.948  0.00  0.00    +0.000 OA
ATOM     15  N   UNL     1       6.597  16.248  19.169  0.00  0.00    +0.000 N 
ATOM     16  C   UNL     1       7.929  16.582  19.689  0.00  0.00    +0.000 C 
ATOM     17  C   UNL     1       8.620  15.346  20.300  0.00  0.00    +0.000 C 
ATOM     18  N   UNL     1       8.583  14.210  19.376  0.00  0.00    +0.000 N 
ATOM     19  C   UNL     1       9.714  13.510  19.028  0.00  0.00    +0.000 A 
ATOM     20  C   UNL     1      10.739  13.308  19.951  0.00  0.00    +0.000 A 
ATOM     21  C   UNL     1      11.897  12.625  19.583  0.00  0.00    +0.000 A 
ATOM     22  C   UNL     1      12.014  12.157  18.285  0.00  0.00    +0.000 A 
ATOM     23  C   UNL     1      10.955  12.375  17.426  0.00  0.00    +0.000 A 
ATOM     24  N   UNL     1       9.815  13.017  17.776  0.00  0.00    +0.000 NA
ATOM     25  C   UNL     1       7.297  13.894  18.753  0.00  0.00    +0.000 C 
ATOM     26  C   UNL     1       6.641  15.159  18.162  0.00  0.00    +0.000 C 
ENDBRANCH   4  13
BRANCH   9  27
ATOM     27  S   UNL     1      -0.123  11.678  19.647  0.00  0.00    +0.000 S 
ATOM     28  O   UNL     1      -1.565  11.703  19.535  0.00  0.00    +0.000 OA
ATOM     29  O   UNL     1       0.679  10.808  18.818  0.00  0.00    +0.000 OA
BRANCH  27  30
ATOM     30  N   UNL     1       0.269  11.390  21.248  0.00  0.00    +0.000 NA
ATOM     31  C   UNL     1       1.287  10.396  21.643  0.00  0.00    +0.000 C 
ATOM     32  C   UNL     1       0.693   9.305  22.539  0.00  0.00    +0.000 C 
ATOM     33  O   UNL     1      -0.061   9.846  23.631  0.00  0.00    +0.000 OA
ATOM     34  C   UNL     1      -1.129  10.676  23.156  0.00  0.00    +0.000 C 
ATOM     35  C   UNL     1      -0.593  11.859  22.350  0.00  0.00    +0.000 C 
ENDBRANCH  27  30
ENDBRANCH   9  27
TORSDOF 3
ENDMDL
MODEL 8
REMARK VINA RESULT:      -7.3      3.051      4.025
REMARK  Name = 
REMARK  4 active torsions:
REMARK  status: ('A' for Active; 'I' for Inactive)
REMARK    1  A    between atoms: C_1  and  N_2
REMARK    2  A    between atoms: C_4  and  C_5
REMARK    3  A    between atoms: C_23  and  S_24
REMARK    4  A    between atoms: S_24  and  N_27
REMARK                            x       y       z     vdW  Elec       q    Type
REMARK                         _______ _______ _______ _____ _____    ______ ____
ROOT
ATOM      1  C   UNL     1       2.210  10.945  17.655  0.00  0.00    +0.000 C 
ATOM      2  N   UNL     1       1.885   9.998  18.726  0.00  0.00    +0.000 N 
ATOM      3  C   UNL     1       1.277  10.414  19.896  0.00  0.00    +0.000 A 
ATOM      4  C   UNL     1       0.774   9.646  20.873  0.00  0.00    +0.000 A 
ATOM      5  C   UNL     1       1.083   8.190  20.766  0.00  0.00    +0.000 A 
ATOM      6  O   UNL     1       0.680   7.352  21.566  0.00  0.00    +0.000 OA
ATOM      7  C   UNL     1       1.929   7.734  19.618  0.00  0.00    +0.000 A 
ATOM      8  C   UNL     1       2.389   6.401  19.582  0.00  0.00    +0.000 A 
ATOM      9  C   UNL     1       3.165   5.977  18.497  0.00  0.00    +0.000 A 
ATOM     10  C   UNL     1       3.477   6.858  17.466  0.00  0.00    +0.000 A 
ATOM     11  C   UNL     1       3.022   8.179  17.513  0.00  0.00    +0.000 A 
ATOM     12  C   UNL     1       2.268   8.649  18.596  0.00  0.00    +0.000 A 
ENDROOT
BRANCH   4  13
ATOM     13  C   UNL     1       0.113  10.258  22.061  0.00  0.00    +0.000 C 
ATOM     14  O   UNL     1       0.431   9.883  23.191  0.00  0.00    +0.000 OA
ATOM     15  N   UNL     1      -0.781  11.316  21.895  0.00  0.00    +0.000 N 
ATOM     16  C   UNL     1      -1.143  12.102  23.082  0.00  0.00    +0.000 C 
ATOM     17  C   UNL     1      -1.127  13.614  22.781  0.00  0.00    +0.000 C 
ATOM     18  N   UNL     1      -1.901  13.920  21.574  0.00  0.00    +0.000 N 
ATOM     19  C   UNL     1      -2.889  14.876  21.560  0.00  0.00    +0.000 A 
ATOM     20  C   UNL     1      -2.772  16.034  22.328  0.00  0.00    +0.000 A 
ATOM     21  C   UNL     1      -3.792  16.985  22.333  0.00  0.00    +0.000 A 
ATOM     22  C   UNL     1      -4.924  16.756  21.571  0.00  0.00    +0.000 A 
ATOM     23  C   UNL     1      -4.969  15.598  20.820  0.00  0.00    +0.000 A 
ATOM     24  N   UNL     1      -3.977  14.677  20.787  0.00  0.00    +0.000 NA
ATOM     25  C   UNL     1      -1.649  13.100  20.390  0.00  0.00    +0.000 C 
ATOM     26  C   UNL     1      -1.667  11.598  20.739  0.00  0.00    +0.000 C 
ENDBRANCH   4  13
BRANCH   9  27
ATOM     27  S   UNL     1       3.943   4.374  18.516  0.00  0.00    +0.000 S 
ATOM     28  O   UNL     1       4.010   3.957  19.901  0.00  0.00    +0.000 OA
ATOM     29  O   UNL     1       3.279   3.563  17.522  0.00  0.00    +0.000 OA
BRANCH  27  30
ATOM     30  N   UNL     1       5.500   4.684  17.991  0.00  0.00    +0.000 NA
ATOM     31  C   UNL     1       6.403   5.609  18.705  0.00  0.00    +0.000 C 
ATOM     32  C   UNL     1       6.843   6.771  17.809  0.00  0.00    +0.000 C 
ATOM     33  O   UNL     1       7.336   6.324  16.540  0.00  0.00    +0.000 OA
ATOM     34  C   UNL     1       6.342   5.563  15.841  0.00  0.00    +0.000 C 
ATOM     35  C   UNL     1       5.944   4.317  16.632  0.00  0.00    +0.000 C 
ENDBRANCH  27  30
ENDBRANCH   9  27
TORSDOF 3
ENDMDL
MODEL 9
REMARK VINA RESULT:      -7.3      1.491      1.848
REMARK  Name = 
REMARK  4 active torsions:
REMARK  status: ('A' for Active; 'I' for Inactive)
REMARK    1  A    between atoms: C_1  and  N_2
REMARK    2  A    between atoms: C_4  and  C_5
REMARK    3  A    between atoms: C_23  and  S_24
REMARK    4  A    between atoms: S_24  and  N_27
REMARK                            x       y       z     vdW  Elec       q    Type
REMARK                         _______ _______ _______ _____ _____    ______ ____
ROOT
ATOM      1  C   UNL     1       0.950   7.142  21.529  0.00  0.00    +0.000 C 
ATOM      2  N   UNL     1       1.293   7.911  20.329  0.00  0.00    +0.000 N 
ATOM      3  C   UNL     1       0.599   9.056  19.985  0.00  0.00    +0.000 A 
ATOM      4  C   UNL     1       0.908   9.943  19.027  0.00  0.00    +0.000 A 
ATOM      5  C   UNL     1       2.015   9.536  18.112  0.00  0.00    +0.000 A 
ATOM      6  O   UNL     1       2.430  10.241  17.199  0.00  0.00    +0.000 OA
ATOM      7  C   UNL     1       2.647   8.196  18.327  0.00  0.00    +0.000 A 
ATOM      8  C   UNL     1       3.567   7.704  17.378  0.00  0.00    +0.000 A 
ATOM      9  C   UNL     1       4.167   6.458  17.594  0.00  0.00    +0.000 A 
ATOM     10  C   UNL     1       3.862   5.715  18.730  0.00  0.00    +0.000 A 
ATOM     11  C   UNL     1       2.943   6.207  19.662  0.00  0.00    +0.000 A 
ATOM     12  C   UNL     1       2.300   7.436  19.467  0.00  0.00    +0.000 A 
ENDROOT
BRANCH   4  13
ATOM     13  C   UNL     1       0.066  11.153  18.808  0.00  0.00    +0.000 C 
ATOM     14  O   UNL     1      -1.055  11.030  18.313  0.00  0.00    +0.000 OA
ATOM     15  N   UNL     1       0.506  12.400  19.254  0.00  0.00    +0.000 N 
ATOM     16  C   UNL     1      -0.475  13.490  19.327  0.00  0.00    +0.000 C 
ATOM     17  C   UNL     1      -0.339  14.283  20.642  0.00  0.00    +0.000 C 
ATOM     18  N   UNL     1       1.051  14.684  20.875  0.00  0.00    +0.000 N 
ATOM     19  C   UNL     1       1.403  15.986  21.143  0.00  0.00    +0.000 A 
ATOM     20  C   UNL     1       0.563  16.812  21.889  0.00  0.00    +0.000 A 
ATOM     21  C   UNL     1       0.911  18.140  22.132  0.00  0.00    +0.000 A 
ATOM     22  C   UNL     1       2.100  18.626  21.614  0.00  0.00    +0.000 A 
ATOM     23  C   UNL     1       2.894  17.750  20.899  0.00  0.00    +0.000 A 
ATOM     24  N   UNL     1       2.580  16.452  20.675  0.00  0.00    +0.000 NA
ATOM     25  C   UNL     1       2.081  13.657  20.719  0.00  0.00    +0.000 C 
ATOM     26  C   UNL     1       1.901  12.886  19.395  0.00  0.00    +0.000 C 
ENDBRANCH   4  13
BRANCH   9  27
ATOM     27  S   UNL     1       5.165   5.705  16.324  0.00  0.00    +0.000 S 
ATOM     28  O   UNL     1       4.820   4.300  16.298  0.00  0.00    +0.000 OA
ATOM     29  O   UNL     1       5.048   6.528  15.142  0.00  0.00    +0.000 OA
BRANCH  27  30
ATOM     30  N   UNL     1       6.725   5.846  16.911  0.00  0.00    +0.000 NA
ATOM     31  C   UNL     1       7.292   4.887  17.880  0.00  0.00    +0.000 C 
ATOM     32  C   UNL     1       7.712   5.580  19.180  0.00  0.00    +0.000 C 
ATOM     33  O   UNL     1       8.527   6.734  18.944  0.00  0.00    +0.000 OA
ATOM     34  C   UNL     1       7.842   7.687  18.122  0.00  0.00    +0.000 C 
ATOM     35  C   UNL     1       7.499   7.093  16.756  0.00  0.00    +0.000 C 
ENDBRANCH  27  30
ENDBRANCH   9  27
TORSDOF 3
ENDMDL
