MODEL 1
REMARK VINA RESULT:      -7.2      0.000      0.000
REMARK  Name = 
REMARK  14 active torsions:
REMARK  status: ('A' for Active; 'I' for Inactive)
REMARK    1  A    between atoms: C_2  and  C_3
REMARK    2  A    between atoms: C_3  and  C_4
REMARK    3  A    between atoms: C_5  and  O_6
REMARK    4  A    between atoms: O_6  and  C_7
REMARK    5  A    between atoms: C_7  and  C_8
REMARK    6  A    between atoms: C_8  and  C_9
REMARK    7  A    between atoms: C_9  and  C_10
REMARK    8  A    between atoms: C_10  and  C_11
REMARK    9  A    between atoms: C_11  and  O_12
REMARK   10  A    between atoms: O_12  and  C_13
REMARK   11  A    between atoms: C_16  and  C_17
REMARK   12  A    between atoms: C_17  and  C_19
REMARK   13  A    between atoms: C_19  and  N_20
REMARK   14  A    between atoms: C_29  and  C_30
REMARK                            x       y       z     vdW  Elec       q    Type
REMARK                         _______ _______ _______ _____ _____    ______ ____
ROOT
ATOM      1  O   UNL     1       1.257   9.603  18.919  0.00  0.00    +0.000 OA
ENDROOT
BRANCH   1   3
ATOM      2  C   UNL     1      -0.552  10.760  19.892  0.00  0.00    +0.000 A 
ATOM      3  C   UNL     1      -0.006  10.114  18.769  0.00  0.00    +0.000 A 
ATOM      4  C   UNL     1      -0.723  10.070  17.561  0.00  0.00    +0.000 A 
ATOM      5  C   UNL     1      -1.993  10.643  17.461  0.00  0.00    +0.000 A 
ATOM      6  C   UNL     1      -2.529  11.316  18.556  0.00  0.00    +0.000 A 
ATOM      7  C   UNL     1      -3.881  11.909  18.493  0.00  0.00    +0.000 A 
ATOM      8  O   UNL     1      -4.546  11.885  17.458  0.00  0.00    +0.000 OA
ATOM      9  C   UNL     1      -4.414  12.453  19.748  0.00  0.00    +0.000 A 
ATOM     10  C   UNL     1      -3.598  12.545  20.799  0.00  0.00    +0.000 A 
ATOM     11  O   UNL     1      -2.267  12.148  20.795  0.00  0.00    +0.000 OA
ATOM     12  C   UNL     1      -1.804  11.403  19.746  0.00  0.00    +0.000 A 
BRANCH  10  13
ATOM     13  C   UNL     1      -4.068  13.127  22.164  0.00  0.00    +0.000 C 
ATOM     14  O   UNL     1      -4.278  14.360  22.161  0.00  0.00    +0.000 OA
ATOM     15  O   UNL     1      -4.147  12.287  23.119  0.00  0.00    +0.000 OA
ENDBRANCH  10  13
BRANCH   2  16
ATOM     16  C   UNL     1       0.178  10.755  21.230  0.00  0.00    +0.000 C 
BRANCH  16  18
ATOM     17  C   UNL     1       0.279   9.436  23.389  0.00  0.00    +0.000 C 
ATOM     18  C   UNL     1      -0.376   9.816  22.282  0.00  0.00    +0.000 C 
ENDBRANCH  16  18
ENDBRANCH   2  16
ENDBRANCH   1   3
BRANCH   1  19
ATOM     19  C   UNL     1       1.749   8.773  17.873  0.00  0.00    +0.000 C 
BRANCH  19  20
ATOM     20  C   UNL     1       1.792   7.317  18.355  0.00  0.00    +0.000 C 
BRANCH  20  21
ATOM     21  C   UNL     1       2.219   7.237  19.824  0.00  0.00    +0.000 C 
BRANCH  21  22
ATOM     22  C   UNL     1       2.169   5.812  20.370  0.00  0.00    +0.000 C 
BRANCH  22  23
ATOM     23  C   UNL     1       3.083   4.884  19.572  0.00  0.00    +0.000 C 
BRANCH  23  24
ATOM     24  O   UNL     1       4.346   5.537  19.392  0.00  0.00    +0.000 OA
BRANCH  24  25
ATOM     25  C   UNL     1       4.882   5.435  18.136  0.00  0.00    +0.000 A 
ATOM     26  C   UNL     1       5.466   4.207  17.822  0.00  0.00    +0.000 A 
ATOM     27  C   UNL     1       6.084   4.010  16.585  0.00  0.00    +0.000 A 
ATOM     28  C   UNL     1       6.099   5.029  15.631  0.00  0.00    +0.000 A 
ATOM     29  C   UNL     1       5.489   6.254  15.932  0.00  0.00    +0.000 A 
ATOM     30  C   UNL     1       4.889   6.455  17.182  0.00  0.00    +0.000 A 
BRANCH  28  31
ATOM     31  C   UNL     1       6.762   4.805  14.309  0.00  0.00    +0.000 C 
ATOM     32  O   UNL     1       7.763   5.449  14.010  0.00  0.00    +0.000 OA
BRANCH  31  33
ATOM     33  C   UNL     1       6.097   3.803  13.350  0.00  0.00    +0.000 C 
BRANCH  33  34
ATOM     34  N   UNL     1       6.817   3.735  12.074  0.00  0.00    +0.000 NA
ATOM     35  H   UNL     1       7.670   4.291  12.154  0.00  0.00    +0.000 HD
ATOM     36  H   UNL     1       6.253   4.158  11.338  0.00  0.00    +0.000 HD
ENDBRANCH  33  34
ENDBRANCH  31  33
ENDBRANCH  28  31
ENDBRANCH  24  25
ENDBRANCH  23  24
ENDBRANCH  22  23
ENDBRANCH  21  22
ENDBRANCH  20  21
ENDBRANCH  19  20
ENDBRANCH   1  19
TORSDOF 14
ENDMDL
MODEL 2
REMARK VINA RESULT:      -7.0      2.308      3.463
REMARK  Name = 
REMARK  14 active torsions:
REMARK  status: ('A' for Active; 'I' for Inactive)
REMARK    1  A    between atoms: C_2  and  C_3
REMARK    2  A    between atoms: C_3  and  C_4
REMARK    3  A    between atoms: C_5  and  O_6
REMARK    4  A    between atoms: O_6  and  C_7
REMARK    5  A    between atoms: C_7  and  C_8
REMARK    6  A    between atoms: C_8  and  C_9
REMARK    7  A    between atoms: C_9  and  C_10
REMARK    8  A    between atoms: C_10  and  C_11
REMARK    9  A    between atoms: C_11  and  O_12
REMARK   10  A    between atoms: O_12  and  C_13
REMARK   11  A    between atoms: C_16  and  C_17
REMARK   12  A    between atoms: C_17  and  C_19
REMARK   13  A    between atoms: C_19  and  N_20
REMARK   14  A    between atoms: C_29  and  C_30
REMARK                            x       y       z     vdW  Elec       q    Type
REMARK                         _______ _______ _______ _____ _____    ______ ____
ROOT
ATOM      1  O   UNL     1       1.919   8.247  18.906  0.00  0.00    +0.000 OA
ENDROOT
BRANCH   1   3
ATOM      2  C   UNL     1       0.899  10.287  19.502  0.00  0.00    +0.000 A 
ATOM      3  C   UNL     1       1.246   8.971  19.855  0.00  0.00    +0.000 A 
ATOM      4  C   UNL     1       0.855   8.447  21.099  0.00  0.00    +0.000 A 
ATOM      5  C   UNL     1       0.137   9.225  22.010  0.00  0.00    +0.000 A 
ATOM      6  C   UNL     1      -0.244  10.518  21.657  0.00  0.00    +0.000 A 
ATOM      7  C   UNL     1      -0.978  11.378  22.608  0.00  0.00    +0.000 A 
ATOM      8  O   UNL     1      -1.333  10.960  23.710  0.00  0.00    +0.000 OA
ATOM      9  C   UNL     1      -1.190  12.771  22.198  0.00  0.00    +0.000 A 
ATOM     10  C   UNL     1      -0.878  13.121  20.949  0.00  0.00    +0.000 A 
ATOM     11  O   UNL     1      -0.351  12.255  20.001  0.00  0.00    +0.000 OA
ATOM     12  C   UNL     1       0.104  11.031  20.406  0.00  0.00    +0.000 A 
BRANCH  10  13
ATOM     13  C   UNL     1      -1.085  14.570  20.419  0.00  0.00    +0.000 C 
ATOM     14  O   UNL     1      -0.070  15.087  19.904  0.00  0.00    +0.000 OA
ATOM     15  O   UNL     1      -2.246  15.061  20.607  0.00  0.00    +0.000 OA
ENDBRANCH  10  13
BRANCH   2  16
ATOM     16  C   UNL     1       1.377  10.897  18.190  0.00  0.00    +0.000 C 
BRANCH  16  18
ATOM     17  C   UNL     1       2.232  13.268  17.950  0.00  0.00    +0.000 C 
ATOM     18  C   UNL     1       2.419  11.990  18.309  0.00  0.00    +0.000 C 
ENDBRANCH  16  18
ENDBRANCH   2  16
ENDBRANCH   1   3
BRANCH   1  19
ATOM     19  C   UNL     1       2.660   7.118  19.356  0.00  0.00    +0.000 C 
BRANCH  19  20
ATOM     20  C   UNL     1       1.765   5.873  19.316  0.00  0.00    +0.000 C 
BRANCH  20  21
ATOM     21  C   UNL     1       1.840   5.098  20.636  0.00  0.00    +0.000 C 
BRANCH  21  22
ATOM     22  C   UNL     1       1.262   3.690  20.520  0.00  0.00    +0.000 C 
BRANCH  22  23
ATOM     23  C   UNL     1       1.793   2.975  19.279  0.00  0.00    +0.000 C 
BRANCH  23  24
ATOM     24  O   UNL     1       3.164   2.624  19.511  0.00  0.00    +0.000 OA
BRANCH  24  25
ATOM     25  C   UNL     1       4.078   3.314  18.761  0.00  0.00    +0.000 A 
ATOM     26  C   UNL     1       3.888   3.268  17.378  0.00  0.00    +0.000 A 
ATOM     27  C   UNL     1       4.790   3.899  16.517  0.00  0.00    +0.000 A 
ATOM     28  C   UNL     1       5.877   4.610  17.027  0.00  0.00    +0.000 A 
ATOM     29  C   UNL     1       6.055   4.681  18.415  0.00  0.00    +0.000 A 
ATOM     30  C   UNL     1       5.161   4.030  19.275  0.00  0.00    +0.000 A 
BRANCH  28  31
ATOM     31  C   UNL     1       6.834   5.281  16.094  0.00  0.00    +0.000 C 
ATOM     32  O   UNL     1       7.493   6.242  16.480  0.00  0.00    +0.000 OA
BRANCH  31  33
ATOM     33  C   UNL     1       6.889   4.758  14.648  0.00  0.00    +0.000 C 
BRANCH  33  34
ATOM     34  N   UNL     1       7.867   5.506  13.852  0.00  0.00    +0.000 NA
ATOM     35  H   UNL     1       8.715   5.627  14.411  0.00  0.00    +0.000 HD
ATOM     36  H   UNL     1       7.507   6.438  13.651  0.00  0.00    +0.000 HD
ENDBRANCH  33  34
ENDBRANCH  31  33
ENDBRANCH  28  31
ENDBRANCH  24  25
ENDBRANCH  23  24
ENDBRANCH  22  23
ENDBRANCH  21  22
ENDBRANCH  20  21
ENDBRANCH  19  20
ENDBRANCH   1  19
TORSDOF 14
ENDMDL
MODEL 3
REMARK VINA RESULT:      -6.9      2.751      4.954
REMARK  Name = 
REMARK  14 active torsions:
REMARK  status: ('A' for Active; 'I' for Inactive)
REMARK    1  A    between atoms: C_2  and  C_3
REMARK    2  A    between atoms: C_3  and  C_4
REMARK    3  A    between atoms: C_5  and  O_6
REMARK    4  A    between atoms: O_6  and  C_7
REMARK    5  A    between atoms: C_7  and  C_8
REMARK    6  A    between atoms: C_8  and  C_9
REMARK    7  A    between atoms: C_9  and  C_10
REMARK    8  A    between atoms: C_10  and  C_11
REMARK    9  A    between atoms: C_11  and  O_12
REMARK   10  A    between atoms: O_12  and  C_13
REMARK   11  A    between atoms: C_16  and  C_17
REMARK   12  A    between atoms: C_17  and  C_19
REMARK   13  A    between atoms: C_19  and  N_20
REMARK   14  A    between atoms: C_29  and  C_30
REMARK                            x       y       z     vdW  Elec       q    Type
REMARK                         _______ _______ _______ _____ _____    ______ ____
ROOT
ATOM      1  O   UNL     1       1.712   8.379  17.939  0.00  0.00    +0.000 OA
ENDROOT
BRANCH   1   3
ATOM      2  C   UNL     1       0.410   9.823  19.273  0.00  0.00    +0.000 A 
ATOM      3  C   UNL     1       1.305   8.741  19.197  0.00  0.00    +0.000 A 
ATOM      4  C   UNL     1       1.689   8.058  20.363  0.00  0.00    +0.000 A 
ATOM      5  C   UNL     1       1.209   8.453  21.615  0.00  0.00    +0.000 A 
ATOM      6  C   UNL     1       0.295   9.500  21.699  0.00  0.00    +0.000 A 
ATOM      7  C   UNL     1      -0.209   9.962  23.009  0.00  0.00    +0.000 A 
ATOM      8  O   UNL     1       0.109   9.397  24.056  0.00  0.00    +0.000 OA
ATOM      9  C   UNL     1      -1.040  11.172  22.998  0.00  0.00    +0.000 A 
ATOM     10  C   UNL     1      -1.433  11.664  21.822  0.00  0.00    +0.000 A 
ATOM     11  O   UNL     1      -1.099  11.113  20.592  0.00  0.00    +0.000 OA
ATOM     12  C   UNL     1      -0.125  10.156  20.540  0.00  0.00    +0.000 A 
BRANCH  10  13
ATOM     13  C   UNL     1      -2.331  12.930  21.713  0.00  0.00    +0.000 C 
ATOM     14  O   UNL     1      -1.761  14.001  22.015  0.00  0.00    +0.000 OA
ATOM     15  O   UNL     1      -3.539  12.717  21.367  0.00  0.00    +0.000 OA
ENDBRANCH  10  13
BRANCH   2  16
ATOM     16  C   UNL     1       0.040  10.622  18.029  0.00  0.00    +0.000 C 
BRANCH  16  18
ATOM     17  C   UNL     1      -2.165   9.722  17.170  0.00  0.00    +0.000 C 
ATOM     18  C   UNL     1      -1.439  10.709  17.714  0.00  0.00    +0.000 C 
ENDBRANCH  16  18
ENDBRANCH   2  16
ENDBRANCH   1   3
BRANCH   1  19
ATOM     19  C   UNL     1       3.106   8.451  17.663  0.00  0.00    +0.000 C 
BRANCH  19  20
ATOM     20  C   UNL     1       3.598   7.087  17.164  0.00  0.00    +0.000 C 
BRANCH  20  21
ATOM     21  C   UNL     1       4.677   7.250  16.088  0.00  0.00    +0.000 C 
BRANCH  21  22
ATOM     22  C   UNL     1       5.360   5.930  15.741  0.00  0.00    +0.000 C 
BRANCH  22  23
ATOM     23  C   UNL     1       6.530   5.649  16.682  0.00  0.00    +0.000 C 
BRANCH  23  24
ATOM     24  O   UNL     1       6.418   4.300  17.153  0.00  0.00    +0.000 OA
BRANCH  24  25
ATOM     25  C   UNL     1       5.262   4.012  17.830  0.00  0.00    +0.000 A 
ATOM     26  C   UNL     1       4.321   3.253  17.131  0.00  0.00    +0.000 A 
ATOM     27  C   UNL     1       3.089   2.942  17.710  0.00  0.00    +0.000 A 
ATOM     28  C   UNL     1       2.791   3.360  19.008  0.00  0.00    +0.000 A 
ATOM     29  C   UNL     1       3.744   4.098  19.723  0.00  0.00    +0.000 A 
ATOM     30  C   UNL     1       4.971   4.426  19.131  0.00  0.00    +0.000 A 
BRANCH  28  31
ATOM     31  C   UNL     1       1.468   3.019  19.617  0.00  0.00    +0.000 C 
ATOM     32  O   UNL     1       0.618   2.439  18.949  0.00  0.00    +0.000 OA
BRANCH  31  33
ATOM     33  C   UNL     1       1.218   3.487  21.061  0.00  0.00    +0.000 C 
BRANCH  33  34
ATOM     34  N   UNL     1       1.598   2.450  22.027  0.00  0.00    +0.000 NA
ATOM     35  H   UNL     1       1.970   2.908  22.862  0.00  0.00    +0.000 HD
ATOM     36  H   UNL     1       2.348   1.879  21.640  0.00  0.00    +0.000 HD
ENDBRANCH  33  34
ENDBRANCH  31  33
ENDBRANCH  28  31
ENDBRANCH  24  25
ENDBRANCH  23  24
ENDBRANCH  22  23
ENDBRANCH  21  22
ENDBRANCH  20  21
ENDBRANCH  19  20
ENDBRANCH   1  19
TORSDOF 14
ENDMDL
MODEL 4
REMARK VINA RESULT:      -6.9      2.777      9.924
REMARK  Name = 
REMARK  14 active torsions:
REMARK  status: ('A' for Active; 'I' for Inactive)
REMARK    1  A    between atoms: C_2  and  C_3
REMARK    2  A    between atoms: C_3  and  C_4
REMARK    3  A    between atoms: C_5  and  O_6
REMARK    4  A    between atoms: O_6  and  C_7
REMARK    5  A    between atoms: C_7  and  C_8
REMARK    6  A    between atoms: C_8  and  C_9
REMARK    7  A    between atoms: C_9  and  C_10
REMARK    8  A    between atoms: C_10  and  C_11
REMARK    9  A    between atoms: C_11  and  O_12
REMARK   10  A    between atoms: O_12  and  C_13
REMARK   11  A    between atoms: C_16  and  C_17
REMARK   12  A    between atoms: C_17  and  C_19
REMARK   13  A    between atoms: C_19  and  N_20
REMARK   14  A    between atoms: C_29  and  C_30
REMARK                            x       y       z     vdW  Elec       q    Type
REMARK                         _______ _______ _______ _____ _____    ______ ____
ROOT
ATOM      1  O   UNL     1       1.488   7.694  20.679  0.00  0.00    +0.000 OA
ENDROOT
BRANCH   1   3
ATOM      2  C   UNL     1       2.766   6.661  18.988  0.00  0.00    +0.000 A 
ATOM      3  C   UNL     1       1.954   6.529  20.129  0.00  0.00    +0.000 A 
ATOM      4  C   UNL     1       1.708   5.258  20.677  0.00  0.00    +0.000 A 
ATOM      5  C   UNL     1       2.243   4.109  20.091  0.00  0.00    +0.000 A 
ATOM      6  C   UNL     1       3.078   4.231  18.982  0.00  0.00    +0.000 A 
ATOM      7  C   UNL     1       3.636   3.034  18.320  0.00  0.00    +0.000 A 
ATOM      8  O   UNL     1       3.439   1.903  18.762  0.00  0.00    +0.000 OA
ATOM      9  C   UNL     1       4.370   3.264  17.069  0.00  0.00    +0.000 A 
ATOM     10  C   UNL     1       4.639   4.520  16.710  0.00  0.00    +0.000 A 
ATOM     11  O   UNL     1       4.261   5.641  17.438  0.00  0.00    +0.000 OA
ATOM     12  C   UNL     1       3.362   5.493  18.457  0.00  0.00    +0.000 A 
BRANCH  10  13
ATOM     13  C   UNL     1       5.427   4.859  15.411  0.00  0.00    +0.000 C 
ATOM     14  O   UNL     1       5.902   3.867  14.816  0.00  0.00    +0.000 OA
ATOM     15  O   UNL     1       5.521   6.099  15.136  0.00  0.00    +0.000 OA
ENDBRANCH  10  13
BRANCH   2  16
ATOM     16  C   UNL     1       2.984   8.021  18.337  0.00  0.00    +0.000 C 
BRANCH  16  18
ATOM     17  C   UNL     1       1.519  10.022  17.828  0.00  0.00    +0.000 C 
ATOM     18  C   UNL     1       1.745   8.701  17.793  0.00  0.00    +0.000 C 
ENDBRANCH  16  18
ENDBRANCH   2  16
ENDBRANCH   1   3
BRANCH   1  19
ATOM     19  C   UNL     1       0.108   7.742  21.024  0.00  0.00    +0.000 C 
BRANCH  19  20
ATOM     20  C   UNL     1      -0.122   8.856  22.052  0.00  0.00    +0.000 C 
BRANCH  20  21
ATOM     21  C   UNL     1       1.031   9.866  22.035  0.00  0.00    +0.000 C 
BRANCH  21  22
ATOM     22  C   UNL     1       0.713  11.101  21.195  0.00  0.00    +0.000 C 
BRANCH  22  23
ATOM     23  C   UNL     1      -0.289  12.009  21.905  0.00  0.00    +0.000 C 
BRANCH  23  24
ATOM     24  O   UNL     1      -0.694  13.037  20.991  0.00  0.00    +0.000 OA
BRANCH  24  25
ATOM     25  C   UNL     1      -1.423  12.605  19.915  0.00  0.00    +0.000 A 
ATOM     26  C   UNL     1      -2.781  12.380  20.152  0.00  0.00    +0.000 A 
ATOM     27  C   UNL     1      -3.607  11.894  19.135  0.00  0.00    +0.000 A 
ATOM     28  C   UNL     1      -3.095  11.655  17.860  0.00  0.00    +0.000 A 
ATOM     29  C   UNL     1      -1.738  11.906  17.611  0.00  0.00    +0.000 A 
ATOM     30  C   UNL     1      -0.908  12.373  18.639  0.00  0.00    +0.000 A 
BRANCH  28  31
ATOM     31  C   UNL     1      -3.991  11.135  16.780  0.00  0.00    +0.000 C 
ATOM     32  O   UNL     1      -5.151  11.529  16.706  0.00  0.00    +0.000 OA
BRANCH  31  33
ATOM     33  C   UNL     1      -3.412  10.061  15.844  0.00  0.00    +0.000 C 
BRANCH  33  34
ATOM     34  N   UNL     1      -3.200  10.593  14.494  0.00  0.00    +0.000 NA
ATOM     35  H   UNL     1      -2.229  10.421  14.228  0.00  0.00    +0.000 HD
ATOM     36  H   UNL     1      -3.334  11.603  14.498  0.00  0.00    +0.000 HD
ENDBRANCH  33  34
ENDBRANCH  31  33
ENDBRANCH  28  31
ENDBRANCH  24  25
ENDBRANCH  23  24
ENDBRANCH  22  23
ENDBRANCH  21  22
ENDBRANCH  20  21
ENDBRANCH  19  20
ENDBRANCH   1  19
TORSDOF 14
ENDMDL
MODEL 5
REMARK VINA RESULT:      -6.9      3.480     11.363
REMARK  Name = 
REMARK  14 active torsions:
REMARK  status: ('A' for Active; 'I' for Inactive)
REMARK    1  A    between atoms: C_2  and  C_3
REMARK    2  A    between atoms: C_3  and  C_4
REMARK    3  A    between atoms: C_5  and  O_6
REMARK    4  A    between atoms: O_6  and  C_7
REMARK    5  A    between atoms: C_7  and  C_8
REMARK    6  A    between atoms: C_8  and  C_9
REMARK    7  A    between atoms: C_9  and  C_10
REMARK    8  A    between atoms: C_10  and  C_11
REMARK    9  A    between atoms: C_11  and  O_12
REMARK   10  A    between atoms: O_12  and  C_13
REMARK   11  A    between atoms: C_16  and  C_17
REMARK   12  A    between atoms: C_17  and  C_19
REMARK   13  A    between atoms: C_19  and  N_20
REMARK   14  A    between atoms: C_29  and  C_30
REMARK                            x       y       z     vdW  Elec       q    Type
REMARK                         _______ _______ _______ _____ _____    ______ ____
ROOT
ATOM      1  O   UNL     1       5.122   4.464  18.716  0.00  0.00    +0.000 OA
ENDROOT
BRANCH   1   3
ATOM      2  C   UNL     1       5.214   3.940  16.419  0.00  0.00    +0.000 A 
ATOM      3  C   UNL     1       5.758   4.635  17.514  0.00  0.00    +0.000 A 
ATOM      4  C   UNL     1       6.856   5.493  17.332  0.00  0.00    +0.000 A 
ATOM      5  C   UNL     1       7.438   5.654  16.072  0.00  0.00    +0.000 A 
ATOM      6  C   UNL     1       6.886   4.999  14.974  0.00  0.00    +0.000 A 
ATOM      7  C   UNL     1       7.494   5.124  13.633  0.00  0.00    +0.000 A 
ATOM      8  O   UNL     1       8.461   5.858  13.431  0.00  0.00    +0.000 OA
ATOM      9  C   UNL     1       6.932   4.269  12.580  0.00  0.00    +0.000 A 
ATOM     10  C   UNL     1       5.819   3.583  12.843  0.00  0.00    +0.000 A 
ATOM     11  O   UNL     1       5.149   3.613  14.059  0.00  0.00    +0.000 OA
ATOM     12  C   UNL     1       5.768   4.178  15.139  0.00  0.00    +0.000 A 
BRANCH  10  13
ATOM     13  C   UNL     1       5.141   2.667  11.783  0.00  0.00    +0.000 C 
ATOM     14  O   UNL     1       5.798   1.647  11.479  0.00  0.00    +0.000 OA
ATOM     15  O   UNL     1       4.025   3.083  11.331  0.00  0.00    +0.000 OA
ENDBRANCH  10  13
BRANCH   2  16
ATOM     16  C   UNL     1       4.072   2.950  16.610  0.00  0.00    +0.000 C 
BRANCH  16  18
ATOM     17  C   UNL     1       1.846   3.014  17.814  0.00  0.00    +0.000 C 
ATOM     18  C   UNL     1       2.725   3.551  16.956  0.00  0.00    +0.000 C 
ENDBRANCH  16  18
ENDBRANCH   2  16
ENDBRANCH   1   3
BRANCH   1  19
ATOM     19  C   UNL     1       4.805   5.638  19.455  0.00  0.00    +0.000 C 
BRANCH  19  20
ATOM     20  C   UNL     1       3.301   5.664  19.750  0.00  0.00    +0.000 C 
BRANCH  20  21
ATOM     21  C   UNL     1       2.524   6.297  18.590  0.00  0.00    +0.000 C 
BRANCH  21  22
ATOM     22  C   UNL     1       3.205   7.550  18.046  0.00  0.00    +0.000 C 
BRANCH  22  23
ATOM     23  C   UNL     1       2.238   8.732  18.008  0.00  0.00    +0.000 C 
BRANCH  23  24
ATOM     24  O   UNL     1       1.550   8.793  19.264  0.00  0.00    +0.000 OA
BRANCH  24  25
ATOM     25  C   UNL     1       0.650   9.818  19.387  0.00  0.00    +0.000 A 
ATOM     26  C   UNL     1       0.753  10.582  20.551  0.00  0.00    +0.000 A 
ATOM     27  C   UNL     1      -0.145  11.623  20.799  0.00  0.00    +0.000 A 
ATOM     28  C   UNL     1      -1.140  11.935  19.872  0.00  0.00    +0.000 A 
ATOM     29  C   UNL     1      -1.230  11.189  18.690  0.00  0.00    +0.000 A 
ATOM     30  C   UNL     1      -0.340  10.131  18.454  0.00  0.00    +0.000 A 
BRANCH  28  31
ATOM     31  C   UNL     1      -2.095  13.053  20.150  0.00  0.00    +0.000 C 
ATOM     32  O   UNL     1      -1.667  14.179  20.384  0.00  0.00    +0.000 OA
BRANCH  31  33
ATOM     33  C   UNL     1      -3.592  12.703  20.194  0.00  0.00    +0.000 C 
BRANCH  33  34
ATOM     34  N   UNL     1      -4.081  12.639  21.575  0.00  0.00    +0.000 NA
ATOM     35  H   UNL     1      -4.910  12.042  21.597  0.00  0.00    +0.000 HD
ATOM     36  H   UNL     1      -4.372  13.566  21.880  0.00  0.00    +0.000 HD
ENDBRANCH  33  34
ENDBRANCH  31  33
ENDBRANCH  28  31
ENDBRANCH  24  25
ENDBRANCH  23  24
ENDBRANCH  22  23
ENDBRANCH  21  22
ENDBRANCH  20  21
ENDBRANCH  19  20
ENDBRANCH   1  19
TORSDOF 14
ENDMDL
MODEL 6
REMARK VINA RESULT:      -6.9      2.003      3.517
REMARK  Name = 
REMARK  14 active torsions:
REMARK  status: ('A' for Active; 'I' for Inactive)
REMARK    1  A    between atoms: C_2  and  C_3
REMARK    2  A    between atoms: C_3  and  C_4
REMARK    3  A    between atoms: C_5  and  O_6
REMARK    4  A    between atoms: O_6  and  C_7
REMARK    5  A    between atoms: C_7  and  C_8
REMARK    6  A    between atoms: C_8  and  C_9
REMARK    7  A    between atoms: C_9  and  C_10
REMARK    8  A    between atoms: C_10  and  C_11
REMARK    9  A    between atoms: C_11  and  O_12
REMARK   10  A    between atoms: O_12  and  C_13
REMARK   11  A    between atoms: C_16  and  C_17
REMARK   12  A    between atoms: C_17  and  C_19
REMARK   13  A    between atoms: C_19  and  N_20
REMARK   14  A    between atoms: C_29  and  C_30
REMARK                            x       y       z     vdW  Elec       q    Type
REMARK                         _______ _______ _______ _____ _____    ______ ____
ROOT
ATOM      1  O   UNL     1       0.724   9.467  17.983  0.00  0.00    +0.000 OA
ENDROOT
BRANCH   1   3
ATOM      2  C   UNL     1      -1.415  10.436  18.194  0.00  0.00    +0.000 A 
ATOM      3  C   UNL     1      -0.103  10.305  18.685  0.00  0.00    +0.000 A 
ATOM      4  C   UNL     1       0.279  10.965  19.865  0.00  0.00    +0.000 A 
ATOM      5  C   UNL     1      -0.624  11.777  20.556  0.00  0.00    +0.000 A 
ATOM      6  C   UNL     1      -1.935  11.886  20.100  0.00  0.00    +0.000 A 
ATOM      7  C   UNL     1      -2.907  12.759  20.790  0.00  0.00    +0.000 A 
ATOM      8  O   UNL     1      -2.611  13.361  21.822  0.00  0.00    +0.000 OA
ATOM      9  C   UNL     1      -4.211  12.928  20.137  0.00  0.00    +0.000 A 
ATOM     10  C   UNL     1      -4.500  12.160  19.085  0.00  0.00    +0.000 A 
ATOM     11  O   UNL     1      -3.641  11.209  18.550  0.00  0.00    +0.000 OA
ATOM     12  C   UNL     1      -2.335  11.199  18.952  0.00  0.00    +0.000 A 
BRANCH  10  13
ATOM     13  C   UNL     1      -5.864  12.255  18.341  0.00  0.00    +0.000 C 
ATOM     14  O   UNL     1      -5.773  12.435  17.107  0.00  0.00    +0.000 OA
ATOM     15  O   UNL     1      -6.898  12.174  19.081  0.00  0.00    +0.000 OA
ENDBRANCH  10  13
BRANCH   2  16
ATOM     16  C   UNL     1      -1.826   9.788  16.878  0.00  0.00    +0.000 C 
BRANCH  16  18
ATOM     17  C   UNL     1      -3.488  10.308  15.040  0.00  0.00    +0.000 C 
ATOM     18  C   UNL     1      -2.519  10.695  15.882  0.00  0.00    +0.000 C 
ENDBRANCH  16  18
ENDBRANCH   2  16
ENDBRANCH   1   3
BRANCH   1  19
ATOM     19  C   UNL     1       1.909   9.027  18.639  0.00  0.00    +0.000 C 
BRANCH  19  20
ATOM     20  C   UNL     1       1.993   7.498  18.566  0.00  0.00    +0.000 C 
BRANCH  20  21
ATOM     21  C   UNL     1       2.136   6.887  19.965  0.00  0.00    +0.000 C 
BRANCH  21  22
ATOM     22  C   UNL     1       1.222   5.682  20.171  0.00  0.00    +0.000 C 
BRANCH  22  23
ATOM     23  C   UNL     1       1.977   4.521  20.816  0.00  0.00    +0.000 C 
BRANCH  23  24
ATOM     24  O   UNL     1       2.275   3.555  19.799  0.00  0.00    +0.000 OA
BRANCH  24  25
ATOM     25  C   UNL     1       3.398   3.815  19.059  0.00  0.00    +0.000 A 
ATOM     26  C   UNL     1       4.543   4.143  19.788  0.00  0.00    +0.000 A 
ATOM     27  C   UNL     1       5.732   4.471  19.132  0.00  0.00    +0.000 A 
ATOM     28  C   UNL     1       5.802   4.447  17.738  0.00  0.00    +0.000 A 
ATOM     29  C   UNL     1       4.662   4.091  17.004  0.00  0.00    +0.000 A 
ATOM     30  C   UNL     1       3.466   3.783  17.665  0.00  0.00    +0.000 A 
BRANCH  28  31
ATOM     31  C   UNL     1       7.081   4.800  17.048  0.00  0.00    +0.000 C 
ATOM     32  O   UNL     1       8.105   4.171  17.298  0.00  0.00    +0.000 OA
BRANCH  31  33
ATOM     33  C   UNL     1       7.054   6.005  16.092  0.00  0.00    +0.000 C 
BRANCH  33  34
ATOM     34  N   UNL     1       7.668   7.185  16.709  0.00  0.00    +0.000 NA
ATOM     35  H   UNL     1       8.682   7.057  16.713  0.00  0.00    +0.000 HD
ATOM     36  H   UNL     1       7.372   7.257  17.681  0.00  0.00    +0.000 HD
ENDBRANCH  33  34
ENDBRANCH  31  33
ENDBRANCH  28  31
ENDBRANCH  24  25
ENDBRANCH  23  24
ENDBRANCH  22  23
ENDBRANCH  21  22
ENDBRANCH  20  21
ENDBRANCH  19  20
ENDBRANCH   1  19
TORSDOF 14
ENDMDL
MODEL 7
REMARK VINA RESULT:      -6.8      2.607      4.032
REMARK  Name = 
REMARK  14 active torsions:
REMARK  status: ('A' for Active; 'I' for Inactive)
REMARK    1  A    between atoms: C_2  and  C_3
REMARK    2  A    between atoms: C_3  and  C_4
REMARK    3  A    between atoms: C_5  and  O_6
REMARK    4  A    between atoms: O_6  and  C_7
REMARK    5  A    between atoms: C_7  and  C_8
REMARK    6  A    between atoms: C_8  and  C_9
REMARK    7  A    between atoms: C_9  and  C_10
REMARK    8  A    between atoms: C_10  and  C_11
REMARK    9  A    between atoms: C_11  and  O_12
REMARK   10  A    between atoms: O_12  and  C_13
REMARK   11  A    between atoms: C_16  and  C_17
REMARK   12  A    between atoms: C_17  and  C_19
REMARK   13  A    between atoms: C_19  and  N_20
REMARK   14  A    between atoms: C_29  and  C_30
REMARK                            x       y       z     vdW  Elec       q    Type
REMARK                         _______ _______ _______ _____ _____    ______ ____
ROOT
ATOM      1  O   UNL     1       0.468   8.022  20.903  0.00  0.00    +0.000 OA
ENDROOT
BRANCH   1   3
ATOM      2  C   UNL     1       0.387  10.341  20.489  0.00  0.00    +0.000 A 
ATOM      3  C   UNL     1       0.147   9.270  21.368  0.00  0.00    +0.000 A 
ATOM      4  C   UNL     1      -0.447   9.503  22.620  0.00  0.00    +0.000 A 
ATOM      5  C   UNL     1      -0.786  10.798  23.022  0.00  0.00    +0.000 A 
ATOM      6  C   UNL     1      -0.585  11.862  22.146  0.00  0.00    +0.000 A 
ATOM      7  C   UNL     1      -0.906  13.246  22.551  0.00  0.00    +0.000 A 
ATOM      8  O   UNL     1      -1.419  13.495  23.641  0.00  0.00    +0.000 OA
ATOM      9  C   UNL     1      -0.508  14.307  21.617  0.00  0.00    +0.000 A 
ATOM     10  C   UNL     1      -0.060  13.957  20.411  0.00  0.00    +0.000 A 
ATOM     11  O   UNL     1       0.069  12.646  19.972  0.00  0.00    +0.000 OA
ATOM     12  C   UNL     1      -0.036  11.633  20.883  0.00  0.00    +0.000 A 
BRANCH  10  13
ATOM     13  C   UNL     1       0.366  15.013  19.348  0.00  0.00    +0.000 C 
ATOM     14  O   UNL     1       1.584  15.004  19.064  0.00  0.00    +0.000 OA
ATOM     15  O   UNL     1      -0.566  15.774  18.928  0.00  0.00    +0.000 OA
ENDBRANCH  10  13
BRANCH   2  16
ATOM     16  C   UNL     1       1.096  10.118  19.159  0.00  0.00    +0.000 C 
BRANCH  16  18
ATOM     17  C   UNL     1      -1.140  10.010  17.977  0.00  0.00    +0.000 C 
ATOM     18  C   UNL     1       0.199   9.946  17.951  0.00  0.00    +0.000 C 
ENDBRANCH  16  18
ENDBRANCH   2  16
ENDBRANCH   1   3
BRANCH   1  19
ATOM     19  C   UNL     1       1.769   7.531  21.209  0.00  0.00    +0.000 C 
BRANCH  19  20
ATOM     20  C   UNL     1       2.055   6.284  20.364  0.00  0.00    +0.000 C 
BRANCH  20  21
ATOM     21  C   UNL     1       0.864   5.320  20.385  0.00  0.00    +0.000 C 
BRANCH  21  22
ATOM     22  C   UNL     1       1.297   3.857  20.420  0.00  0.00    +0.000 C 
BRANCH  22  23
ATOM     23  C   UNL     1       1.338   3.260  19.015  0.00  0.00    +0.000 C 
BRANCH  23  24
ATOM     24  O   UNL     1       2.539   2.488  18.887  0.00  0.00    +0.000 OA
BRANCH  24  25
ATOM     25  C   UNL     1       3.635   3.184  18.449  0.00  0.00    +0.000 A 
ATOM     26  C   UNL     1       3.696   3.418  17.074  0.00  0.00    +0.000 A 
ATOM     27  C   UNL     1       4.794   4.078  16.515  0.00  0.00    +0.000 A 
ATOM     28  C   UNL     1       5.831   4.539  17.326  0.00  0.00    +0.000 A 
ATOM     29  C   UNL     1       5.760   4.330  18.710  0.00  0.00    +0.000 A 
ATOM     30  C   UNL     1       4.667   3.650  19.265  0.00  0.00    +0.000 A 
BRANCH  28  31
ATOM     31  C   UNL     1       7.000   5.245  16.715  0.00  0.00    +0.000 C 
ATOM     32  O   UNL     1       7.610   4.726  15.785  0.00  0.00    +0.000 OA
BRANCH  31  33
ATOM     33  C   UNL     1       7.423   6.582  17.347  0.00  0.00    +0.000 C 
BRANCH  33  34
ATOM     34  N   UNL     1       6.468   7.646  17.021  0.00  0.00    +0.000 NA
ATOM     35  H   UNL     1       6.956   8.364  16.480  0.00  0.00    +0.000 HD
ATOM     36  H   UNL     1       6.141   8.089  17.878  0.00  0.00    +0.000 HD
ENDBRANCH  33  34
ENDBRANCH  31  33
ENDBRANCH  28  31
ENDBRANCH  24  25
ENDBRANCH  23  24
ENDBRANCH  22  23
ENDBRANCH  21  22
ENDBRANCH  20  21
ENDBRANCH  19  20
ENDBRANCH   1  19
TORSDOF 14
ENDMDL
MODEL 8
REMARK VINA RESULT:      -6.8      1.150      1.391
REMARK  Name = 
REMARK  14 active torsions:
REMARK  status: ('A' for Active; 'I' for Inactive)
REMARK    1  A    between atoms: C_2  and  C_3
REMARK    2  A    between atoms: C_3  and  C_4
REMARK    3  A    between atoms: C_5  and  O_6
REMARK    4  A    between atoms: O_6  and  C_7
REMARK    5  A    between atoms: C_7  and  C_8
REMARK    6  A    between atoms: C_8  and  C_9
REMARK    7  A    between atoms: C_9  and  C_10
REMARK    8  A    between atoms: C_10  and  C_11
REMARK    9  A    between atoms: C_11  and  O_12
REMARK   10  A    between atoms: O_12  and  C_13
REMARK   11  A    between atoms: C_16  and  C_17
REMARK   12  A    between atoms: C_17  and  C_19
REMARK   13  A    between atoms: C_19  and  N_20
REMARK   14  A    between atoms: C_29  and  C_30
REMARK                            x       y       z     vdW  Elec       q    Type
REMARK                         _______ _______ _______ _____ _____    ______ ____
ROOT
ATOM      1  O   UNL     1       0.288   9.137  18.085  0.00  0.00    +0.000 OA
ENDROOT
BRANCH   1   3
ATOM      2  C   UNL     1      -0.650  10.552  19.721  0.00  0.00    +0.000 A 
ATOM      3  C   UNL     1      -0.752   9.949  18.455  0.00  0.00    +0.000 A 
ATOM      4  C   UNL     1      -1.847  10.237  17.622  0.00  0.00    +0.000 A 
ATOM      5  C   UNL     1      -2.858  11.104  18.042  0.00  0.00    +0.000 A 
ATOM      6  C   UNL     1      -2.750  11.735  19.280  0.00  0.00    +0.000 A 
ATOM      7  C   UNL     1      -3.815  12.635  19.767  0.00  0.00    +0.000 A 
ATOM      8  O   UNL     1      -4.795  12.907  19.073  0.00  0.00    +0.000 OA
ATOM      9  C   UNL     1      -3.680  13.119  21.146  0.00  0.00    +0.000 A 
ATOM     10  C   UNL     1      -2.542  12.874  21.798  0.00  0.00    +0.000 A 
ATOM     11  O   UNL     1      -1.467  12.176  21.263  0.00  0.00    +0.000 OA
ATOM     12  C   UNL     1      -1.643  11.488  20.095  0.00  0.00    +0.000 A 
BRANCH  10  13
ATOM     13  C   UNL     1      -2.300  13.365  23.255  0.00  0.00    +0.000 C 
ATOM     14  O   UNL     1      -3.338  13.683  23.876  0.00  0.00    +0.000 OA
ATOM     15  O   UNL     1      -1.081  13.417  23.621  0.00  0.00    +0.000 OA
ENDBRANCH  10  13
BRANCH   2  16
ATOM     16  C   UNL     1       0.490  10.196  20.668  0.00  0.00    +0.000 C 
BRANCH  16  18
ATOM     17  C   UNL     1       0.219   9.378  23.048  0.00  0.00    +0.000 C 
ATOM     18  C   UNL     1       0.173   9.160  21.726  0.00  0.00    +0.000 C 
ENDBRANCH  16  18
ENDBRANCH   2  16
ENDBRANCH   1   3
BRANCH   1  19
ATOM     19  C   UNL     1       1.527   9.768  17.782  0.00  0.00    +0.000 C 
BRANCH  19  20
ATOM     20  C   UNL     1       2.641   8.715  17.751  0.00  0.00    +0.000 C 
BRANCH  20  21
ATOM     21  C   UNL     1       2.128   7.358  18.244  0.00  0.00    +0.000 C 
BRANCH  21  22
ATOM     22  C   UNL     1       2.970   6.796  19.388  0.00  0.00    +0.000 C 
BRANCH  22  23
ATOM     23  C   UNL     1       2.826   5.279  19.486  0.00  0.00    +0.000 C 
BRANCH  23  24
ATOM     24  O   UNL     1       4.137   4.699  19.494  0.00  0.00    +0.000 OA
BRANCH  24  25
ATOM     25  C   UNL     1       4.748   4.624  18.271  0.00  0.00    +0.000 A 
ATOM     26  C   UNL     1       6.038   5.156  18.202  0.00  0.00    +0.000 A 
ATOM     27  C   UNL     1       6.735   5.173  16.992  0.00  0.00    +0.000 A 
ATOM     28  C   UNL     1       6.165   4.631  15.839  0.00  0.00    +0.000 A 
ATOM     29  C   UNL     1       4.882   4.070  15.910  0.00  0.00    +0.000 A 
ATOM     30  C   UNL     1       4.178   4.074  17.122  0.00  0.00    +0.000 A 
BRANCH  28  31
ATOM     31  C   UNL     1       6.922   4.654  14.549  0.00  0.00    +0.000 C 
ATOM     32  O   UNL     1       7.892   5.397  14.422  0.00  0.00    +0.000 OA
BRANCH  31  33
ATOM     33  C   UNL     1       6.390   3.775  13.405  0.00  0.00    +0.000 C 
BRANCH  33  34
ATOM     34  N   UNL     1       7.055   4.095  12.138  0.00  0.00    +0.000 NA
ATOM     35  H   UNL     1       7.898   4.636  12.343  0.00  0.00    +0.000 HD
ATOM     36  H   UNL     1       6.450   4.688  11.572  0.00  0.00    +0.000 HD
ENDBRANCH  33  34
ENDBRANCH  31  33
ENDBRANCH  28  31
ENDBRANCH  24  25
ENDBRANCH  23  24
ENDBRANCH  22  23
ENDBRANCH  21  22
ENDBRANCH  20  21
ENDBRANCH  19  20
ENDBRANCH   1  19
TORSDOF 14
ENDMDL
MODEL 9
REMARK VINA RESULT:      -6.8      1.489      3.313
REMARK  Name = 
REMARK  14 active torsions:
REMARK  status: ('A' for Active; 'I' for Inactive)
REMARK    1  A    between atoms: C_2  and  C_3
REMARK    2  A    between atoms: C_3  and  C_4
REMARK    3  A    between atoms: C_5  and  O_6
REMARK    4  A    between atoms: O_6  and  C_7
REMARK    5  A    between atoms: C_7  and  C_8
REMARK    6  A    between atoms: C_8  and  C_9
REMARK    7  A    between atoms: C_9  and  C_10
REMARK    8  A    between atoms: C_10  and  C_11
REMARK    9  A    between atoms: C_11  and  O_12
REMARK   10  A    between atoms: O_12  and  C_13
REMARK   11  A    between atoms: C_16  and  C_17
REMARK   12  A    between atoms: C_17  and  C_19
REMARK   13  A    between atoms: C_19  and  N_20
REMARK   14  A    between atoms: C_29  and  C_30
REMARK                            x       y       z     vdW  Elec       q    Type
REMARK                         _______ _______ _______ _____ _____    ______ ____
ROOT
ATOM      1  O   UNL     1       0.193   9.894  17.814  0.00  0.00    +0.000 OA
ENDROOT
BRANCH   1   3
ATOM      2  C   UNL     1      -2.045  10.602  18.029  0.00  0.00    +0.000 A 
ATOM      3  C   UNL     1      -0.705  10.719  18.439  0.00  0.00    +0.000 A 
ATOM      4  C   UNL     1      -0.359  11.601  19.476  0.00  0.00    +0.000 A 
ATOM      5  C   UNL     1      -1.328  12.390  20.100  0.00  0.00    +0.000 A 
ATOM      6  C   UNL     1      -2.663  12.257  19.727  0.00  0.00    +0.000 A 
ATOM      7  C   UNL     1      -3.710  13.097  20.345  0.00  0.00    +0.000 A 
ATOM      8  O   UNL     1      -3.448  13.888  21.251  0.00  0.00    +0.000 OA
ATOM      9  C   UNL     1      -5.056  12.991  19.769  0.00  0.00    +0.000 A 
ATOM     10  C   UNL     1      -5.289  12.036  18.868  0.00  0.00    +0.000 A 
ATOM     11  O   UNL     1      -4.336  11.130  18.422  0.00  0.00    +0.000 OA
ATOM     12  C   UNL     1      -3.022  11.351  18.727  0.00  0.00    +0.000 A 
BRANCH  10  13
ATOM     13  C   UNL     1      -6.689  11.836  18.217  0.00  0.00    +0.000 C 
ATOM     14  O   UNL     1      -7.206  12.880  17.760  0.00  0.00    +0.000 OA
ATOM     15  O   UNL     1      -7.149  10.649  18.261  0.00  0.00    +0.000 OA
ENDBRANCH  10  13
BRANCH   2  16
ATOM     16  C   UNL     1      -2.430   9.707  16.858  0.00  0.00    +0.000 C 
BRANCH  16  18
ATOM     17  C   UNL     1      -3.080  10.056  14.436  0.00  0.00    +0.000 C 
ATOM     18  C   UNL     1      -3.191  10.378  15.733  0.00  0.00    +0.000 C 
ENDBRANCH  16  18
ENDBRANCH   2  16
ENDBRANCH   1   3
BRANCH   1  19
ATOM     19  C   UNL     1       1.575  10.189  17.989  0.00  0.00    +0.000 C 
BRANCH  19  20
ATOM     20  C   UNL     1       2.388   8.893  17.894  0.00  0.00    +0.000 C 
BRANCH  20  21
ATOM     21  C   UNL     1       1.478   7.664  17.988  0.00  0.00    +0.000 C 
BRANCH  21  22
ATOM     22  C   UNL     1       2.265   6.365  18.150  0.00  0.00    +0.000 C 
BRANCH  22  23
ATOM     23  C   UNL     1       3.277   6.471  19.289  0.00  0.00    +0.000 C 
BRANCH  23  24
ATOM     24  O   UNL     1       4.129   5.319  19.245  0.00  0.00    +0.000 OA
BRANCH  24  25
ATOM     25  C   UNL     1       4.722   5.078  18.034  0.00  0.00    +0.000 A 
ATOM     26  C   UNL     1       5.377   6.166  17.451  0.00  0.00    +0.000 A 
ATOM     27  C   UNL     1       5.976   6.043  16.195  0.00  0.00    +0.000 A 
ATOM     28  C   UNL     1       5.955   4.824  15.517  0.00  0.00    +0.000 A 
ATOM     29  C   UNL     1       5.323   3.723  16.111  0.00  0.00    +0.000 A 
ATOM     30  C   UNL     1       4.705   3.855  17.362  0.00  0.00    +0.000 A 
BRANCH  28  31
ATOM     31  C   UNL     1       6.601   4.706  14.173  0.00  0.00    +0.000 C 
ATOM     32  O   UNL     1       7.672   5.265  13.957  0.00  0.00    +0.000 OA
BRANCH  31  33
ATOM     33  C   UNL     1       5.834   3.927  13.090  0.00  0.00    +0.000 C 
BRANCH  33  34
ATOM     34  N   UNL     1       6.689   2.915  12.461  0.00  0.00    +0.000 NA
ATOM     35  H   UNL     1       6.207   2.014  12.501  0.00  0.00    +0.000 HD
ATOM     36  H   UNL     1       7.552   2.815  12.992  0.00  0.00    +0.000 HD
ENDBRANCH  33  34
ENDBRANCH  31  33
ENDBRANCH  28  31
ENDBRANCH  24  25
ENDBRANCH  23  24
ENDBRANCH  22  23
ENDBRANCH  21  22
ENDBRANCH  20  21
ENDBRANCH  19  20
ENDBRANCH   1  19
TORSDOF 14
ENDMDL
