MODEL 1
REMARK VINA RESULT:      -6.8      0.000      0.000
REMARK  Name = 
REMARK  4 active torsions:
REMARK  status: ('A' for Active; 'I' for Inactive)
REMARK    1  A    between atoms: C_1  and  C_2
REMARK    2  A    between atoms: C_2  and  O_4
REMARK    3  A    between atoms: O_4  and  C_5
REMARK    4  A    between atoms: N_7  and  C_8
REMARK                            x       y       z     vdW  Elec       q    Type
REMARK                         _______ _______ _______ _____ _____    ______ ____
ROOT
ATOM      1  C   UNL     1       5.364   4.477  18.508  0.00  0.00    +0.000 A 
ATOM      2  C   UNL     1       6.155   5.173  19.434  0.00  0.00    +0.000 A 
ATOM      3  C   UNL     1       7.268   5.899  19.024  0.00  0.00    +0.000 A 
ATOM      4  C   UNL     1       7.603   5.925  17.677  0.00  0.00    +0.000 A 
ATOM      5  C   UNL     1       6.846   5.207  16.742  0.00  0.00    +0.000 A 
ATOM      6  C   UNL     1       7.189   5.237  15.388  0.00  0.00    +0.000 A 
ATOM      7  C   UNL     1       6.437   4.520  14.469  0.00  0.00    +0.000 A 
ATOM      8  C   UNL     1       5.361   3.795  14.942  0.00  0.00    +0.000 A 
ATOM      9  N   UNL     1       4.985   3.751  16.243  0.00  0.00    +0.000 NA
ATOM     10  C   UNL     1       5.715   4.450  17.145  0.00  0.00    +0.000 A 
ENDROOT
BRANCH   1  13
ATOM     11  C   UNL     1       4.128   2.704  19.731  0.00  0.00    +0.000 C 
ATOM     12  O   UNL     1       5.079   2.133  20.251  0.00  0.00    +0.000 OA
ATOM     13  N   UNL     1       4.184   3.796  18.904  0.00  0.00    +0.000 N 
ATOM     14  H   UNL     1       3.307   4.255  18.678  0.00  0.00    +0.000 HD
BRANCH  11  15
ATOM     15  O   UNL     1       2.839   2.341  19.967  0.00  0.00    +0.000 OA
BRANCH  15  17
ATOM     16  C   UNL     1       0.758   2.515  18.730  0.00  0.00    +0.000 C 
ATOM     17  C   UNL     1       1.903   3.266  19.398  0.00  0.00    +0.000 C 
ATOM     18 CL   UNL     1       1.257   4.284  20.715  0.00  0.00    +0.000 Cl
ENDBRANCH  15  17
ENDBRANCH  11  15
ENDBRANCH   1  13
TORSDOF 3
ENDMDL
MODEL 2
REMARK VINA RESULT:      -6.7      3.139      5.627
REMARK  Name = 
REMARK  4 active torsions:
REMARK  status: ('A' for Active; 'I' for Inactive)
REMARK    1  A    between atoms: C_1  and  C_2
REMARK    2  A    between atoms: C_2  and  O_4
REMARK    3  A    between atoms: O_4  and  C_5
REMARK    4  A    between atoms: N_7  and  C_8
REMARK                            x       y       z     vdW  Elec       q    Type
REMARK                         _______ _______ _______ _____ _____    ______ ____
ROOT
ATOM      1  C   UNL     1       3.380   5.159  17.814  0.00  0.00    +0.000 A 
ATOM      2  C   UNL     1       3.366   6.551  17.994  0.00  0.00    +0.000 A 
ATOM      3  C   UNL     1       2.695   7.128  19.066  0.00  0.00    +0.000 A 
ATOM      4  C   UNL     1       2.023   6.312  19.966  0.00  0.00    +0.000 A 
ATOM      5  C   UNL     1       1.997   4.923  19.783  0.00  0.00    +0.000 A 
ATOM      6  C   UNL     1       1.319   4.107  20.692  0.00  0.00    +0.000 A 
ATOM      7  C   UNL     1       1.294   2.734  20.503  0.00  0.00    +0.000 A 
ATOM      8  C   UNL     1       1.954   2.223  19.403  0.00  0.00    +0.000 A 
ATOM      9  N   UNL     1       2.636   2.975  18.506  0.00  0.00    +0.000 NA
ATOM     10  C   UNL     1       2.665   4.318  18.687  0.00  0.00    +0.000 A 
ENDROOT
BRANCH   1  13
ATOM     11  C   UNL     1       5.442   4.187  16.829  0.00  0.00    +0.000 C 
ATOM     12  O   UNL     1       6.196   4.330  17.784  0.00  0.00    +0.000 OA
ATOM     13  N   UNL     1       4.123   4.554  16.768  0.00  0.00    +0.000 N 
ATOM     14  H   UNL     1       3.585   4.228  15.970  0.00  0.00    +0.000 HD
BRANCH  11  15
ATOM     15  O   UNL     1       5.826   3.567  15.681  0.00  0.00    +0.000 OA
BRANCH  15  17
ATOM     16  C   UNL     1       7.225   5.128  14.456  0.00  0.00    +0.000 C 
ATOM     17  C   UNL     1       5.857   4.466  14.564  0.00  0.00    +0.000 C 
ATOM     18 CL   UNL     1       5.534   3.523  13.083  0.00  0.00    +0.000 Cl
ENDBRANCH  15  17
ENDBRANCH  11  15
ENDBRANCH   1  13
TORSDOF 3
ENDMDL
MODEL 3
REMARK VINA RESULT:      -6.7      3.692      5.496
REMARK  Name = 
REMARK  4 active torsions:
REMARK  status: ('A' for Active; 'I' for Inactive)
REMARK    1  A    between atoms: C_1  and  C_2
REMARK    2  A    between atoms: C_2  and  O_4
REMARK    3  A    between atoms: O_4  and  C_5
REMARK    4  A    between atoms: N_7  and  C_8
REMARK                            x       y       z     vdW  Elec       q    Type
REMARK                         _______ _______ _______ _____ _____    ______ ____
ROOT
ATOM      1  C   UNL     1       6.222   4.264  16.915  0.00  0.00    +0.000 A 
ATOM      2  C   UNL     1       7.465   4.677  17.418  0.00  0.00    +0.000 A 
ATOM      3  C   UNL     1       7.561   5.352  18.629  0.00  0.00    +0.000 A 
ATOM      4  C   UNL     1       6.405   5.629  19.346  0.00  0.00    +0.000 A 
ATOM      5  C   UNL     1       5.151   5.255  18.844  0.00  0.00    +0.000 A 
ATOM      6  C   UNL     1       3.991   5.536  19.570  0.00  0.00    +0.000 A 
ATOM      7  C   UNL     1       2.753   5.168  19.064  0.00  0.00    +0.000 A 
ATOM      8  C   UNL     1       2.721   4.526  17.842  0.00  0.00    +0.000 A 
ATOM      9  N   UNL     1       3.822   4.221  17.113  0.00  0.00    +0.000 NA
ATOM     10  C   UNL     1       5.034   4.578  17.603  0.00  0.00    +0.000 A 
ENDROOT
BRANCH   1  13
ATOM     11  C   UNL     1       6.343   3.981  14.451  0.00  0.00    +0.000 C 
ATOM     12  O   UNL     1       6.654   5.125  14.143  0.00  0.00    +0.000 OA
ATOM     13  N   UNL     1       6.119   3.510  15.719  0.00  0.00    +0.000 N 
ATOM     14  H   UNL     1       6.025   2.505  15.833  0.00  0.00    +0.000 HD
BRANCH  11  15
ATOM     15  O   UNL     1       6.231   2.982  13.536  0.00  0.00    +0.000 OA
BRANCH  15  17
ATOM     16  C   UNL     1       7.070   2.617  11.288  0.00  0.00    +0.000 C 
ATOM     17  C   UNL     1       6.199   3.480  12.192  0.00  0.00    +0.000 C 
ATOM     18 CL   UNL     1       4.509   3.423  11.619  0.00  0.00    +0.000 Cl
ENDBRANCH  15  17
ENDBRANCH  11  15
ENDBRANCH   1  13
TORSDOF 3
ENDMDL
MODEL 4
REMARK VINA RESULT:      -6.6      1.759      1.977
REMARK  Name = 
REMARK  4 active torsions:
REMARK  status: ('A' for Active; 'I' for Inactive)
REMARK    1  A    between atoms: C_1  and  C_2
REMARK    2  A    between atoms: C_2  and  O_4
REMARK    3  A    between atoms: O_4  and  C_5
REMARK    4  A    between atoms: N_7  and  C_8
REMARK                            x       y       z     vdW  Elec       q    Type
REMARK                         _______ _______ _______ _____ _____    ______ ____
ROOT
ATOM      1  C   UNL     1       5.034   4.742  18.187  0.00  0.00    +0.000 A 
ATOM      2  C   UNL     1       5.790   5.208  19.274  0.00  0.00    +0.000 A 
ATOM      3  C   UNL     1       7.095   5.653  19.102  0.00  0.00    +0.000 A 
ATOM      4  C   UNL     1       7.660   5.626  17.834  0.00  0.00    +0.000 A 
ATOM      5  C   UNL     1       6.933   5.133  16.742  0.00  0.00    +0.000 A 
ATOM      6  C   UNL     1       7.507   5.109  15.469  0.00  0.00    +0.000 A 
ATOM      7  C   UNL     1       6.783   4.615  14.394  0.00  0.00    +0.000 A 
ATOM      8  C   UNL     1       5.502   4.160  14.634  0.00  0.00    +0.000 A 
ATOM      9  N   UNL     1       4.902   4.179  15.849  0.00  0.00    +0.000 NA
ATOM     10  C   UNL     1       5.604   4.662  16.903  0.00  0.00    +0.000 A 
ENDROOT
BRANCH   1  13
ATOM     11  C   UNL     1       2.595   5.197  18.288  0.00  0.00    +0.000 C 
ATOM     12  O   UNL     1       2.619   6.410  18.119  0.00  0.00    +0.000 OA
ATOM     13  N   UNL     1       3.677   4.357  18.338  0.00  0.00    +0.000 N 
ATOM     14  H   UNL     1       3.494   3.358  18.324  0.00  0.00    +0.000 HD
BRANCH  11  15
ATOM     15  O   UNL     1       1.434   4.497  18.396  0.00  0.00    +0.000 OA
BRANCH  15  17
ATOM     16  C   UNL     1       1.102   3.799  20.697  0.00  0.00    +0.000 C 
ATOM     17  C   UNL     1       1.550   3.390  19.299  0.00  0.00    +0.000 C 
ATOM     18 CL   UNL     1       0.503   2.073  18.702  0.00  0.00    +0.000 Cl
ENDBRANCH  15  17
ENDBRANCH  11  15
ENDBRANCH   1  13
TORSDOF 3
ENDMDL
MODEL 5
REMARK VINA RESULT:      -6.5      1.070      1.187
REMARK  Name = 
REMARK  4 active torsions:
REMARK  status: ('A' for Active; 'I' for Inactive)
REMARK    1  A    between atoms: C_1  and  C_2
REMARK    2  A    between atoms: C_2  and  O_4
REMARK    3  A    between atoms: O_4  and  C_5
REMARK    4  A    between atoms: N_7  and  C_8
REMARK                            x       y       z     vdW  Elec       q    Type
REMARK                         _______ _______ _______ _____ _____    ______ ____
ROOT
ATOM      1  C   UNL     1       6.055   4.591  18.476  0.00  0.00    +0.000 A 
ATOM      2  C   UNL     1       6.808   5.517  19.213  0.00  0.00    +0.000 A 
ATOM      3  C   UNL     1       7.620   6.450  18.578  0.00  0.00    +0.000 A 
ATOM      4  C   UNL     1       7.691   6.456  17.192  0.00  0.00    +0.000 A 
ATOM      5  C   UNL     1       6.973   5.517  16.439  0.00  0.00    +0.000 A 
ATOM      6  C   UNL     1       7.049   5.528  15.044  0.00  0.00    +0.000 A 
ATOM      7  C   UNL     1       6.339   4.593  14.306  0.00  0.00    +0.000 A 
ATOM      8  C   UNL     1       5.573   3.674  14.996  0.00  0.00    +0.000 A 
ATOM      9  N   UNL     1       5.460   3.637  16.346  0.00  0.00    +0.000 NA
ATOM     10  C   UNL     1       6.150   4.550  17.072  0.00  0.00    +0.000 A 
ENDROOT
BRANCH   1  13
ATOM     11  C   UNL     1       3.903   3.980  19.553  0.00  0.00    +0.000 C 
ATOM     12  O   UNL     1       3.342   5.067  19.489  0.00  0.00    +0.000 OA
ATOM     13  N   UNL     1       5.166   3.686  19.109  0.00  0.00    +0.000 N 
ATOM     14  H   UNL     1       5.435   2.707  19.085  0.00  0.00    +0.000 HD
BRANCH  11  15
ATOM     15  O   UNL     1       3.291   2.870  20.045  0.00  0.00    +0.000 OA
BRANCH  15  17
ATOM     16  C   UNL     1       1.168   2.183  19.092  0.00  0.00    +0.000 C 
ATOM     17  C   UNL     1       1.870   3.032  20.143  0.00  0.00    +0.000 C 
ATOM     18 CL   UNL     1       1.361   2.503  21.771  0.00  0.00    +0.000 Cl
ENDBRANCH  15  17
ENDBRANCH  11  15
ENDBRANCH   1  13
TORSDOF 3
ENDMDL
MODEL 6
REMARK VINA RESULT:      -6.5      3.485      5.646
REMARK  Name = 
REMARK  4 active torsions:
REMARK  status: ('A' for Active; 'I' for Inactive)
REMARK    1  A    between atoms: C_1  and  C_2
REMARK    2  A    between atoms: C_2  and  O_4
REMARK    3  A    between atoms: O_4  and  C_5
REMARK    4  A    between atoms: N_7  and  C_8
REMARK                            x       y       z     vdW  Elec       q    Type
REMARK                         _______ _______ _______ _____ _____    ______ ____
ROOT
ATOM      1  C   UNL     1       3.261   6.014  18.195  0.00  0.00    +0.000 A 
ATOM      2  C   UNL     1       2.715   7.271  18.493  0.00  0.00    +0.000 A 
ATOM      3  C   UNL     1       2.022   7.491  19.678  0.00  0.00    +0.000 A 
ATOM      4  C   UNL     1       1.863   6.443  20.575  0.00  0.00    +0.000 A 
ATOM      5  C   UNL     1       2.372   5.171  20.280  0.00  0.00    +0.000 A 
ATOM      6  C   UNL     1       2.209   4.121  21.187  0.00  0.00    +0.000 A 
ATOM      7  C   UNL     1       2.710   2.864  20.887  0.00  0.00    +0.000 A 
ATOM      8  C   UNL     1       3.363   2.702  19.681  0.00  0.00    +0.000 A 
ATOM      9  N   UNL     1       3.557   3.696  18.780  0.00  0.00    +0.000 NA
ATOM     10  C   UNL     1       3.069   4.927  19.069  0.00  0.00    +0.000 A 
ENDROOT
BRANCH   1  13
ATOM     11  C   UNL     1       5.186   6.461  16.691  0.00  0.00    +0.000 C 
ATOM     12  O   UNL     1       5.728   7.351  17.336  0.00  0.00    +0.000 OA
ATOM     13  N   UNL     1       4.034   5.798  17.025  0.00  0.00    +0.000 N 
ATOM     14  H   UNL     1       3.792   4.978  16.477  0.00  0.00    +0.000 HD
BRANCH  11  15
ATOM     15  O   UNL     1       5.716   5.964  15.542  0.00  0.00    +0.000 OA
BRANCH  15  17
ATOM     16  C   UNL     1       6.384   4.003  14.277  0.00  0.00    +0.000 C 
ATOM     17  C   UNL     1       6.010   4.564  15.644  0.00  0.00    +0.000 C 
ATOM     18 CL   UNL     1       7.387   4.366  16.763  0.00  0.00    +0.000 Cl
ENDBRANCH  15  17
ENDBRANCH  11  15
ENDBRANCH   1  13
TORSDOF 3
ENDMDL
MODEL 7
REMARK VINA RESULT:      -6.5      3.648      5.789
REMARK  Name = 
REMARK  4 active torsions:
REMARK  status: ('A' for Active; 'I' for Inactive)
REMARK    1  A    between atoms: C_1  and  C_2
REMARK    2  A    between atoms: C_2  and  O_4
REMARK    3  A    between atoms: O_4  and  C_5
REMARK    4  A    between atoms: N_7  and  C_8
REMARK                            x       y       z     vdW  Elec       q    Type
REMARK                         _______ _______ _______ _____ _____    ______ ____
ROOT
ATOM      1  C   UNL     1       4.454   5.509  16.825  0.00  0.00    +0.000 A 
ATOM      2  C   UNL     1       4.348   6.879  17.110  0.00  0.00    +0.000 A 
ATOM      3  C   UNL     1       3.426   7.350  18.037  0.00  0.00    +0.000 A 
ATOM      4  C   UNL     1       2.591   6.447  18.683  0.00  0.00    +0.000 A 
ATOM      5  C   UNL     1       2.658   5.079  18.386  0.00  0.00    +0.000 A 
ATOM      6  C   UNL     1       1.816   4.177  19.039  0.00  0.00    +0.000 A 
ATOM      7  C   UNL     1       1.884   2.825  18.737  0.00  0.00    +0.000 A 
ATOM      8  C   UNL     1       2.800   2.423  17.786  0.00  0.00    +0.000 A 
ATOM      9  N   UNL     1       3.646   3.262  17.140  0.00  0.00    +0.000 NA
ATOM     10  C   UNL     1       3.584   4.584  17.432  0.00  0.00    +0.000 A 
ENDROOT
BRANCH   1  13
ATOM     11  C   UNL     1       6.748   5.421  15.878  0.00  0.00    +0.000 C 
ATOM     12  O   UNL     1       7.272   6.288  16.567  0.00  0.00    +0.000 OA
ATOM     13  N   UNL     1       5.441   5.010  15.937  0.00  0.00    +0.000 N 
ATOM     14  H   UNL     1       5.192   4.174  15.417  0.00  0.00    +0.000 HD
BRANCH  11  15
ATOM     15  O   UNL     1       7.445   4.690  14.969  0.00  0.00    +0.000 OA
BRANCH  15  17
ATOM     16  C   UNL     1       8.289   5.445  12.822  0.00  0.00    +0.000 C 
ATOM     17  C   UNL     1       7.070   5.002  13.620  0.00  0.00    +0.000 C 
ATOM     18 CL   UNL     1       6.379   3.530  12.881  0.00  0.00    +0.000 Cl
ENDBRANCH  15  17
ENDBRANCH  11  15
ENDBRANCH   1  13
TORSDOF 3
ENDMDL
MODEL 8
REMARK VINA RESULT:      -6.5      3.155      5.455
REMARK  Name = 
REMARK  4 active torsions:
REMARK  status: ('A' for Active; 'I' for Inactive)
REMARK    1  A    between atoms: C_1  and  C_2
REMARK    2  A    between atoms: C_2  and  O_4
REMARK    3  A    between atoms: O_4  and  C_5
REMARK    4  A    between atoms: N_7  and  C_8
REMARK                            x       y       z     vdW  Elec       q    Type
REMARK                         _______ _______ _______ _____ _____    ______ ____
ROOT
ATOM      1  C   UNL     1       4.120   3.725  18.984  0.00  0.00    +0.000 A 
ATOM      2  C   UNL     1       4.077   2.541  19.736  0.00  0.00    +0.000 A 
ATOM      3  C   UNL     1       3.240   2.421  20.839  0.00  0.00    +0.000 A 
ATOM      4  C   UNL     1       2.442   3.497  21.206  0.00  0.00    +0.000 A 
ATOM      5  C   UNL     1       2.497   4.700  20.489  0.00  0.00    +0.000 A 
ATOM      6  C   UNL     1       1.692   5.778  20.863  0.00  0.00    +0.000 A 
ATOM      7  C   UNL     1       1.755   6.967  20.152  0.00  0.00    +0.000 A 
ATOM      8  C   UNL     1       2.628   7.034  19.084  0.00  0.00    +0.000 A 
ATOM      9  N   UNL     1       3.415   6.008  18.678  0.00  0.00    +0.000 NA
ATOM     10  C   UNL     1       3.356   4.843  19.368  0.00  0.00    +0.000 A 
ENDROOT
BRANCH   1  13
ATOM     11  C   UNL     1       6.207   4.284  17.760  0.00  0.00    +0.000 C 
ATOM     12  O   UNL     1       6.882   4.678  18.703  0.00  0.00    +0.000 OA
ATOM     13  N   UNL     1       4.914   3.833  17.814  0.00  0.00    +0.000 N 
ATOM     14  H   UNL     1       4.539   3.390  16.980  0.00  0.00    +0.000 HD
BRANCH  11  15
ATOM     15  O   UNL     1       6.700   4.191  16.496  0.00  0.00    +0.000 OA
BRANCH  15  17
ATOM     16  C   UNL     1       5.466   5.945  15.360  0.00  0.00    +0.000 C 
ATOM     17  C   UNL     1       5.698   4.446  15.503  0.00  0.00    +0.000 C 
ATOM     18 CL   UNL     1       6.275   3.783  13.948  0.00  0.00    +0.000 Cl
ENDBRANCH  15  17
ENDBRANCH  11  15
ENDBRANCH   1  13
TORSDOF 3
ENDMDL
MODEL 9
REMARK VINA RESULT:      -6.5      3.443      5.561
REMARK  Name = 
REMARK  4 active torsions:
REMARK  status: ('A' for Active; 'I' for Inactive)
REMARK    1  A    between atoms: C_1  and  C_2
REMARK    2  A    between atoms: C_2  and  O_4
REMARK    3  A    between atoms: O_4  and  C_5
REMARK    4  A    between atoms: N_7  and  C_8
REMARK                            x       y       z     vdW  Elec       q    Type
REMARK                         _______ _______ _______ _____ _____    ______ ____
ROOT
ATOM      1  C   UNL     1       3.209   5.853  18.178  0.00  0.00    +0.000 A 
ATOM      2  C   UNL     1       2.942   6.922  19.047  0.00  0.00    +0.000 A 
ATOM      3  C   UNL     1       2.153   6.747  20.178  0.00  0.00    +0.000 A 
ATOM      4  C   UNL     1       1.614   5.495  20.443  0.00  0.00    +0.000 A 
ATOM      5  C   UNL     1       1.841   4.424  19.569  0.00  0.00    +0.000 A 
ATOM      6  C   UNL     1       1.297   3.166  19.841  0.00  0.00    +0.000 A 
ATOM      7  C   UNL     1       1.521   2.112  18.969  0.00  0.00    +0.000 A 
ATOM      8  C   UNL     1       2.289   2.356  17.847  0.00  0.00    +0.000 A 
ATOM      9  N   UNL     1       2.849   3.554  17.553  0.00  0.00    +0.000 NA
ATOM     10  C   UNL     1       2.633   4.588  18.403  0.00  0.00    +0.000 A 
ENDROOT
BRANCH   1  13
ATOM     11  C   UNL     1       5.444   5.983  17.103  0.00  0.00    +0.000 C 
ATOM     12  O   UNL     1       6.143   5.850  18.101  0.00  0.00    +0.000 OA
ATOM     13  N   UNL     1       4.074   6.001  17.064  0.00  0.00    +0.000 N 
ATOM     14  H   UNL     1       3.633   5.959  16.149  0.00  0.00    +0.000 HD
BRANCH  11  15
ATOM     15  O   UNL     1       5.966   6.078  15.852  0.00  0.00    +0.000 OA
BRANCH  15  17
ATOM     16  C   UNL     1       5.918   3.675  15.514  0.00  0.00    +0.000 C 
ATOM     17  C   UNL     1       6.768   4.939  15.512  0.00  0.00    +0.000 C 
ATOM     18 CL   UNL     1       7.439   5.200  13.877  0.00  0.00    +0.000 Cl
ENDBRANCH  15  17
ENDBRANCH  11  15
ENDBRANCH   1  13
TORSDOF 3
ENDMDL
