MODEL 1
REMARK VINA RESULT:      -7.2      0.000      0.000
REMARK  Name = 
REMARK  3 active torsions:
REMARK  status: ('A' for Active; 'I' for Inactive)
REMARK    1  A    between atoms: C_1  and  C_2
REMARK    2  A    between atoms: C_2  and  C_3
REMARK    3  A    between atoms: N_12  and  C_13
REMARK                            x       y       z     vdW  Elec       q    Type
REMARK                         _______ _______ _______ _____ _____    ______ ____
ROOT
ATOM      1  C   UNL     1       7.195   6.347  17.479  0.00  0.00    +0.000 A 
ATOM      2  N   UNL     1       7.516   6.161  16.203  0.00  0.00    +0.000 NA
ATOM      3  C   UNL     1       6.753   5.288  15.570  0.00  0.00    +0.000 A 
ATOM      4  N   UNL     1       7.027   5.074  14.232  0.00  0.00    +0.000 N 
ATOM      5  N   UNL     1       5.721   4.645  16.097  0.00  0.00    +0.000 NA
ATOM      6  C   UNL     1       5.474   4.881  17.382  0.00  0.00    +0.000 A 
ATOM      7  N   UNL     1       4.369   4.305  17.981  0.00  0.00    +0.000 N 
ATOM      8  C   UNL     1       3.704   3.192  17.301  0.00  0.00    +0.000 C 
ATOM      9  C   UNL     1       2.260   3.061  17.845  0.00  0.00    +0.000 C 
ATOM     10  N   UNL     1       2.198   2.921  19.320  0.00  0.00    +0.000 NA
ATOM     11  C   UNL     1       0.808   2.910  19.771  0.00  0.00    +0.000 C 
ATOM     12  C   UNL     1       2.930   4.042  19.954  0.00  0.00    +0.000 C 
ATOM     13  C   UNL     1       4.382   4.186  19.444  0.00  0.00    +0.000 C 
ATOM     14  N   UNL     1       6.198   5.729  18.107  0.00  0.00    +0.000 NA
ATOM     15  H   UNL     1       7.516   5.872  13.854  0.00  0.00    +0.000 HD
ATOM     16  H   UNL     1       6.183   4.781  13.757  0.00  0.00    +0.000 HD
ENDROOT
BRANCH   1  18
ATOM     17  C   UNL     1       7.952   8.695  17.736  0.00  0.00    +0.000 C 
ATOM     18  C   UNL     1       8.039   7.283  18.295  0.00  0.00    +0.000 C 
ENDBRANCH   1  18
TORSDOF 1
ENDMDL
MODEL 2
REMARK VINA RESULT:      -6.9      1.240      2.994
REMARK  Name = 
REMARK  3 active torsions:
REMARK  status: ('A' for Active; 'I' for Inactive)
REMARK    1  A    between atoms: C_1  and  C_2
REMARK    2  A    between atoms: C_2  and  C_3
REMARK    3  A    between atoms: N_12  and  C_13
REMARK                            x       y       z     vdW  Elec       q    Type
REMARK                         _______ _______ _______ _____ _____    ______ ____
ROOT
ATOM      1  C   UNL     1       6.432   4.926  15.548  0.00  0.00    +0.000 A 
ATOM      2  N   UNL     1       7.212   5.954  15.862  0.00  0.00    +0.000 NA
ATOM      3  C   UNL     1       6.852   6.599  16.956  0.00  0.00    +0.000 A 
ATOM      4  N   UNL     1       7.643   7.664  17.344  0.00  0.00    +0.000 N 
ATOM      5  N   UNL     1       5.830   6.276  17.737  0.00  0.00    +0.000 NA
ATOM      6  C   UNL     1       5.094   5.239  17.346  0.00  0.00    +0.000 A 
ATOM      7  N   UNL     1       4.059   4.797  18.148  0.00  0.00    +0.000 N 
ATOM      8  C   UNL     1       3.577   5.675  19.216  0.00  0.00    +0.000 C 
ATOM      9  C   UNL     1       2.828   4.820  20.269  0.00  0.00    +0.000 C 
ATOM     10  N   UNL     1       1.735   4.002  19.692  0.00  0.00    +0.000 NA
ATOM     11  C   UNL     1       1.145   3.146  20.719  0.00  0.00    +0.000 C 
ATOM     12  C   UNL     1       2.266   3.176  18.584  0.00  0.00    +0.000 C 
ATOM     13  C   UNL     1       3.003   4.005  17.507  0.00  0.00    +0.000 C 
ATOM     14  N   UNL     1       5.368   4.540  16.248  0.00  0.00    +0.000 NA
ATOM     15  H   UNL     1       8.567   7.560  16.951  0.00  0.00    +0.000 HD
ATOM     16  H   UNL     1       7.578   7.788  18.346  0.00  0.00    +0.000 HD
ENDROOT
BRANCH   1  18
ATOM     17  C   UNL     1       5.460   3.938  13.491  0.00  0.00    +0.000 C 
ATOM     18  C   UNL     1       6.733   4.162  14.291  0.00  0.00    +0.000 C 
ENDBRANCH   1  18
TORSDOF 1
ENDMDL
MODEL 3
REMARK VINA RESULT:      -6.7      1.694      6.049
REMARK  Name = 
REMARK  3 active torsions:
REMARK  status: ('A' for Active; 'I' for Inactive)
REMARK    1  A    between atoms: C_1  and  C_2
REMARK    2  A    between atoms: C_2  and  C_3
REMARK    3  A    between atoms: N_12  and  C_13
REMARK                            x       y       z     vdW  Elec       q    Type
REMARK                         _______ _______ _______ _____ _____    ______ ____
ROOT
ATOM      1  C   UNL     1       2.921   3.561  18.641  0.00  0.00    +0.000 A 
ATOM      2  N   UNL     1       3.310   2.523  19.372  0.00  0.00    +0.000 NA
ATOM      3  C   UNL     1       4.593   2.525  19.686  0.00  0.00    +0.000 A 
ATOM      4  N   UNL     1       5.048   1.480  20.468  0.00  0.00    +0.000 N 
ATOM      5  N   UNL     1       5.462   3.471  19.357  0.00  0.00    +0.000 NA
ATOM      6  C   UNL     1       4.993   4.471  18.617  0.00  0.00    +0.000 A 
ATOM      7  N   UNL     1       5.821   5.531  18.299  0.00  0.00    +0.000 N 
ATOM      8  C   UNL     1       7.265   5.370  18.482  0.00  0.00    +0.000 C 
ATOM      9  C   UNL     1       7.919   6.771  18.575  0.00  0.00    +0.000 C 
ATOM     10  N   UNL     1       7.603   7.645  17.420  0.00  0.00    +0.000 NA
ATOM     11  C   UNL     1       8.162   8.980  17.625  0.00  0.00    +0.000 C 
ATOM     12  C   UNL     1       6.134   7.729  17.249  0.00  0.00    +0.000 C 
ATOM     13  C   UNL     1       5.456   6.345  17.134  0.00  0.00    +0.000 C 
ATOM     14  N   UNL     1       3.721   4.545  18.236  0.00  0.00    +0.000 NA
ATOM     15  H   UNL     1       4.276   1.080  20.981  0.00  0.00    +0.000 HD
ATOM     16  H   UNL     1       5.852   1.781  21.001  0.00  0.00    +0.000 HD
ENDROOT
BRANCH   1  18
ATOM     17  C   UNL     1       0.693   2.486  18.819  0.00  0.00    +0.000 C 
ATOM     18  C   UNL     1       1.490   3.619  18.193  0.00  0.00    +0.000 C 
ENDBRANCH   1  18
TORSDOF 1
ENDMDL
MODEL 4
REMARK VINA RESULT:      -6.6      2.334      4.435
REMARK  Name = 
REMARK  3 active torsions:
REMARK  status: ('A' for Active; 'I' for Inactive)
REMARK    1  A    between atoms: C_1  and  C_2
REMARK    2  A    between atoms: C_2  and  C_3
REMARK    3  A    between atoms: N_12  and  C_13
REMARK                            x       y       z     vdW  Elec       q    Type
REMARK                         _______ _______ _______ _____ _____    ______ ____
ROOT
ATOM      1  C   UNL     1       6.294   3.680  12.753  0.00  0.00    +0.000 A 
ATOM      2  N   UNL     1       7.334   4.443  12.436  0.00  0.00    +0.000 NA
ATOM      3  C   UNL     1       7.780   5.197  13.425  0.00  0.00    +0.000 A 
ATOM      4  N   UNL     1       8.878   5.994  13.157  0.00  0.00    +0.000 N 
ATOM      5  N   UNL     1       7.296   5.211  14.659  0.00  0.00    +0.000 NA
ATOM      6  C   UNL     1       6.249   4.424  14.890  0.00  0.00    +0.000 A 
ATOM      7  N   UNL     1       5.738   4.329  16.171  0.00  0.00    +0.000 N 
ATOM      8  C   UNL     1       6.126   5.339  17.157  0.00  0.00    +0.000 C 
ATOM      9  C   UNL     1       5.886   4.773  18.578  0.00  0.00    +0.000 C 
ATOM     10  N   UNL     1       4.500   4.295  18.795  0.00  0.00    +0.000 NA
ATOM     11  C   UNL     1       4.374   3.679  20.114  0.00  0.00    +0.000 C 
ATOM     12  C   UNL     1       4.142   3.317  17.741  0.00  0.00    +0.000 C 
ATOM     13  C   UNL     1       4.354   3.862  16.310  0.00  0.00    +0.000 C 
ATOM     14  N   UNL     1       5.718   3.644  13.953  0.00  0.00    +0.000 NA
ATOM     15  H   UNL     1       9.391   5.612  12.376  0.00  0.00    +0.000 HD
ATOM     16  H   UNL     1       9.392   6.160  14.012  0.00  0.00    +0.000 HD
ENDROOT
BRANCH   1  18
ATOM     17  C   UNL     1       4.253   3.259  11.409  0.00  0.00    +0.000 C 
ATOM     18  C   UNL     1       5.685   2.826  11.679  0.00  0.00    +0.000 C 
ENDBRANCH   1  18
TORSDOF 1
ENDMDL
MODEL 5
REMARK VINA RESULT:      -6.5      2.148      6.072
REMARK  Name = 
REMARK  3 active torsions:
REMARK  status: ('A' for Active; 'I' for Inactive)
REMARK    1  A    between atoms: C_1  and  C_2
REMARK    2  A    between atoms: C_2  and  C_3
REMARK    3  A    between atoms: N_12  and  C_13
REMARK                            x       y       z     vdW  Elec       q    Type
REMARK                         _______ _______ _______ _____ _____    ______ ____
ROOT
ATOM      1  C   UNL     1       1.749   4.375  20.035  0.00  0.00    +0.000 A 
ATOM      2  N   UNL     1       1.428   5.533  20.600  0.00  0.00    +0.000 NA
ATOM      3  C   UNL     1       2.136   6.563  20.175  0.00  0.00    +0.000 A 
ATOM      4  N   UNL     1       1.827   7.800  20.712  0.00  0.00    +0.000 N 
ATOM      5  N   UNL     1       3.077   6.516  19.242  0.00  0.00    +0.000 NA
ATOM      6  C   UNL     1       3.343   5.317  18.734  0.00  0.00    +0.000 A 
ATOM      7  N   UNL     1       4.257   5.200  17.704  0.00  0.00    +0.000 N 
ATOM      8  C   UNL     1       5.156   6.324  17.435  0.00  0.00    +0.000 C 
ATOM      9  C   UNL     1       5.694   6.202  15.988  0.00  0.00    +0.000 C 
ATOM     10  N   UNL     1       6.344   4.899  15.710  0.00  0.00    +0.000 NA
ATOM     11  C   UNL     1       6.731   4.812  14.304  0.00  0.00    +0.000 C 
ATOM     12  C   UNL     1       5.412   3.798  16.050  0.00  0.00    +0.000 C 
ATOM     13  C   UNL     1       4.872   3.884  17.496  0.00  0.00    +0.000 C 
ATOM     14  N   UNL     1       2.696   4.218  19.113  0.00  0.00    +0.000 NA
ATOM     15  H   UNL     1       0.881   7.789  21.064  0.00  0.00    +0.000 HD
ATOM     16  H   UNL     1       2.067   8.526  20.050  0.00  0.00    +0.000 HD
ENDROOT
BRANCH   1  18
ATOM     17  C   UNL     1       1.699   2.570  21.736  0.00  0.00    +0.000 C 
ATOM     18  C   UNL     1       1.033   3.137  20.493  0.00  0.00    +0.000 C 
ENDBRANCH   1  18
TORSDOF 1
ENDMDL
MODEL 6
REMARK VINA RESULT:      -6.4      1.837      2.643
REMARK  Name = 
REMARK  3 active torsions:
REMARK  status: ('A' for Active; 'I' for Inactive)
REMARK    1  A    between atoms: C_1  and  C_2
REMARK    2  A    between atoms: C_2  and  C_3
REMARK    3  A    between atoms: N_12  and  C_13
REMARK                            x       y       z     vdW  Elec       q    Type
REMARK                         _______ _______ _______ _____ _____    ______ ____
ROOT
ATOM      1  C   UNL     1       6.983   6.763  18.010  0.00  0.00    +0.000 A 
ATOM      2  N   UNL     1       7.983   6.440  18.822  0.00  0.00    +0.000 NA
ATOM      3  C   UNL     1       7.694   5.494  19.696  0.00  0.00    +0.000 A 
ATOM      4  N   UNL     1       8.707   5.100  20.551  0.00  0.00    +0.000 N 
ATOM      5  N   UNL     1       6.534   4.858  19.784  0.00  0.00    +0.000 NA
ATOM      6  C   UNL     1       5.583   5.248  18.940  0.00  0.00    +0.000 A 
ATOM      7  N   UNL     1       4.372   4.581  18.921  0.00  0.00    +0.000 N 
ATOM      8  C   UNL     1       4.038   3.704  20.045  0.00  0.00    +0.000 C 
ATOM      9  C   UNL     1       2.949   2.700  19.593  0.00  0.00    +0.000 C 
ATOM     10  N   UNL     1       1.745   3.354  19.028  0.00  0.00    +0.000 NA
ATOM     11  C   UNL     1       0.809   2.350  18.526  0.00  0.00    +0.000 C 
ATOM     12  C   UNL     1       2.146   4.267  17.932  0.00  0.00    +0.000 C 
ATOM     13  C   UNL     1       3.219   5.294  18.359  0.00  0.00    +0.000 C 
ATOM     14  N   UNL     1       5.775   6.206  18.037  0.00  0.00    +0.000 NA
ATOM     15  H   UNL     1       9.602   5.326  20.142  0.00  0.00    +0.000 HD
ATOM     16  H   UNL     1       8.556   4.142  20.835  0.00  0.00    +0.000 HD
ENDROOT
BRANCH   1  18
ATOM     17  C   UNL     1       8.011   8.990  17.642  0.00  0.00    +0.000 C 
ATOM     18  C   UNL     1       7.202   7.866  17.015  0.00  0.00    +0.000 C 
ENDBRANCH   1  18
TORSDOF 1
ENDMDL
MODEL 7
REMARK VINA RESULT:      -6.1      1.744      2.923
REMARK  Name = 
REMARK  3 active torsions:
REMARK  status: ('A' for Active; 'I' for Inactive)
REMARK    1  A    between atoms: C_1  and  C_2
REMARK    2  A    between atoms: C_2  and  C_3
REMARK    3  A    between atoms: N_12  and  C_13
REMARK                            x       y       z     vdW  Elec       q    Type
REMARK                         _______ _______ _______ _____ _____    ______ ____
ROOT
ATOM      1  C   UNL     1       6.345   4.250  15.676  0.00  0.00    +0.000 A 
ATOM      2  N   UNL     1       7.508   4.413  16.296  0.00  0.00    +0.000 NA
ATOM      3  C   UNL     1       7.418   4.498  17.611  0.00  0.00    +0.000 A 
ATOM      4  N   UNL     1       8.602   4.644  18.311  0.00  0.00    +0.000 N 
ATOM      5  N   UNL     1       6.297   4.403  18.312  0.00  0.00    +0.000 NA
ATOM      6  C   UNL     1       5.176   4.250  17.613  0.00  0.00    +0.000 A 
ATOM      7  N   UNL     1       3.978   4.069  18.278  0.00  0.00    +0.000 N 
ATOM      8  C   UNL     1       3.912   4.392  19.704  0.00  0.00    +0.000 C 
ATOM      9  C   UNL     1       2.707   3.650  20.333  0.00  0.00    +0.000 C 
ATOM     10  N   UNL     1       1.423   3.926  19.645  0.00  0.00    +0.000 NA
ATOM     11  C   UNL     1       0.353   3.114  20.221  0.00  0.00    +0.000 C 
ATOM     12  C   UNL     1       1.562   3.633  18.200  0.00  0.00    +0.000 C 
ATOM     13  C   UNL     1       2.746   4.375  17.541  0.00  0.00    +0.000 C 
ATOM     14  N   UNL     1       5.165   4.173  16.286  0.00  0.00    +0.000 NA
ATOM     15  H   UNL     1       9.369   4.296  17.754  0.00  0.00    +0.000 HD
ATOM     16  H   UNL     1       8.494   4.261  19.241  0.00  0.00    +0.000 HD
ENDROOT
BRANCH   1  18
ATOM     17  C   UNL     1       7.495   5.009  13.613  0.00  0.00    +0.000 C 
ATOM     18  C   UNL     1       6.342   4.194  14.175  0.00  0.00    +0.000 C 
ENDBRANCH   1  18
TORSDOF 1
ENDMDL
MODEL 8
REMARK VINA RESULT:      -6.0      3.830      6.130
REMARK  Name = 
REMARK  3 active torsions:
REMARK  status: ('A' for Active; 'I' for Inactive)
REMARK    1  A    between atoms: C_1  and  C_2
REMARK    2  A    between atoms: C_2  and  C_3
REMARK    3  A    between atoms: N_12  and  C_13
REMARK                            x       y       z     vdW  Elec       q    Type
REMARK                         _______ _______ _______ _____ _____    ______ ____
ROOT
ATOM      1  C   UNL     1       3.060   3.831  18.697  0.00  0.00    +0.000 A 
ATOM      2  N   UNL     1       2.887   3.161  19.831  0.00  0.00    +0.000 NA
ATOM      3  C   UNL     1       2.430   3.890  20.833  0.00  0.00    +0.000 A 
ATOM      4  N   UNL     1       2.208   3.238  22.031  0.00  0.00    +0.000 N 
ATOM      5  N   UNL     1       2.119   5.177  20.766  0.00  0.00    +0.000 NA
ATOM      6  C   UNL     1       2.331   5.775  19.598  0.00  0.00    +0.000 A 
ATOM      7  N   UNL     1       1.960   7.096  19.430  0.00  0.00    +0.000 N 
ATOM      8  C   UNL     1       1.672   7.898  20.621  0.00  0.00    +0.000 C 
ATOM      9  C   UNL     1       0.807   9.115  20.210  0.00  0.00    +0.000 C 
ATOM     10  N   UNL     1       1.413   9.930  19.130  0.00  0.00    +0.000 NA
ATOM     11  C   UNL     1       0.498  10.993  18.720  0.00  0.00    +0.000 C 
ATOM     12  C   UNL     1       1.733   9.061  17.974  0.00  0.00    +0.000 C 
ATOM     13  C   UNL     1       2.612   7.847  18.351  0.00  0.00    +0.000 C 
ATOM     14  N   UNL     1       2.806   5.128  18.538  0.00  0.00    +0.000 NA
ATOM     15  H   UNL     1       2.077   2.251  21.861  0.00  0.00    +0.000 HD
ATOM     16  H   UNL     1       1.484   3.718  22.549  0.00  0.00    +0.000 HD
ENDROOT
BRANCH   1  18
ATOM     17  C   UNL     1       4.519   4.017  16.700  0.00  0.00    +0.000 C 
ATOM     18  C   UNL     1       3.626   3.097  17.516  0.00  0.00    +0.000 C 
ENDBRANCH   1  18
TORSDOF 1
ENDMDL
MODEL 9
REMARK VINA RESULT:      -5.9      2.382      5.703
REMARK  Name = 
REMARK  3 active torsions:
REMARK  status: ('A' for Active; 'I' for Inactive)
REMARK    1  A    between atoms: C_1  and  C_2
REMARK    2  A    between atoms: C_2  and  C_3
REMARK    3  A    between atoms: N_12  and  C_13
REMARK                            x       y       z     vdW  Elec       q    Type
REMARK                         _______ _______ _______ _____ _____    ______ ____
ROOT
ATOM      1  C   UNL     1       1.869   6.472  20.331  0.00  0.00    +0.000 A 
ATOM      2  N   UNL     1       1.192   5.423  20.785  0.00  0.00    +0.000 NA
ATOM      3  C   UNL     1       1.434   4.296  20.141  0.00  0.00    +0.000 A 
ATOM      4  N   UNL     1       0.774   3.166  20.588  0.00  0.00    +0.000 N 
ATOM      5  N   UNL     1       2.293   4.151  19.142  0.00  0.00    +0.000 NA
ATOM      6  C   UNL     1       2.923   5.252  18.743  0.00  0.00    +0.000 A 
ATOM      7  N   UNL     1       3.889   5.166  17.757  0.00  0.00    +0.000 N 
ATOM      8  C   UNL     1       3.950   3.951  16.942  0.00  0.00    +0.000 C 
ATOM      9  C   UNL     1       5.357   3.846  16.303  0.00  0.00    +0.000 C 
ATOM     10  N   UNL     1       5.743   5.050  15.529  0.00  0.00    +0.000 NA
ATOM     11  C   UNL     1       7.117   4.925  15.046  0.00  0.00    +0.000 C 
ATOM     12  C   UNL     1       5.611   6.252  16.384  0.00  0.00    +0.000 C 
ATOM     13  C   UNL     1       4.210   6.394  17.021  0.00  0.00    +0.000 C 
ATOM     14  N   UNL     1       2.730   6.436  19.317  0.00  0.00    +0.000 NA
ATOM     15  H   UNL     1       0.497   3.293  21.550  0.00  0.00    +0.000 HD
ATOM     16  H   UNL     1       1.322   2.345  20.368  0.00  0.00    +0.000 HD
ENDROOT
BRANCH   1  18
ATOM     17  C   UNL     1       1.299   8.848  19.906  0.00  0.00    +0.000 C 
ATOM     18  C   UNL     1       1.621   7.808  20.968  0.00  0.00    +0.000 C 
ENDBRANCH   1  18
TORSDOF 1
ENDMDL
