MODEL 1
REMARK VINA RESULT:      -7.2      0.000      0.000
REMARK  Name = 
REMARK  6 active torsions:
REMARK  status: ('A' for Active; 'I' for Inactive)
REMARK    1  A    between atoms: S_2  and  N_4
REMARK    2  A    between atoms: S_2  and  C_12
REMARK    3  A    between atoms: N_4  and  C_5
REMARK    4  A    between atoms: C_5  and  C_6
REMARK    5  A    between atoms: C_17  and  C_18
REMARK    6  A    between atoms: C_21  and  S_22
REMARK                            x       y       z     vdW  Elec       q    Type
REMARK                         _______ _______ _______ _____ _____    ______ ____
ROOT
ATOM      1  C   UNL     1       4.745   5.335  18.001  0.00  0.00    +0.000 A 
ATOM      2  C   UNL     1       3.834   5.791  18.970  0.00  0.00    +0.000 A 
ATOM      3  C   UNL     1       3.097   6.956  18.752  0.00  0.00    +0.000 A 
ATOM      4  C   UNL     1       3.261   7.669  17.570  0.00  0.00    +0.000 A 
ATOM      5  C   UNL     1       4.160   7.216  16.602  0.00  0.00    +0.000 A 
ATOM      6  C   UNL     1       4.919   6.043  16.792  0.00  0.00    +0.000 A 
ENDROOT
BRANCH   6   7
ATOM      7  C   UNL     1       5.863   5.639  15.753  0.00  0.00    +0.000 A 
ATOM      8  N   UNL     1       7.135   5.928  15.587  0.00  0.00    +0.000 NA
ATOM      9  N   UNL     1       7.547   5.290  14.442  0.00  0.00    +0.000 NA
ATOM     10  C   UNL     1       6.493   4.662  13.972  0.00  0.00    +0.000 A 
ATOM     11  O   UNL     1       5.380   4.838  14.748  0.00  0.00    +0.000 OA
BRANCH  10  12
ATOM     12  S   UNL     1       6.512   3.749  12.503  0.00  0.00    +0.000 S 
ATOM     13  H   UNL     1       7.096   2.668  13.041  0.00  0.00    +0.000 HD
ENDBRANCH  10  12
ENDBRANCH   6   7
BRANCH   1  15
ATOM     14  O   UNL     1       7.072   4.274  18.417  0.00  0.00    +0.000 OA
ATOM     15  S   UNL     1       5.697   3.852  18.283  0.00  0.00    +0.000 S 
ATOM     16  O   UNL     1       5.234   2.865  17.338  0.00  0.00    +0.000 OA
BRANCH  15  17
ATOM     17  N   UNL     1       5.268   3.301  19.814  0.00  0.00    +0.000 NA
ATOM     18  H   UNL     1       5.073   4.041  20.482  0.00  0.00    +0.000 HD
BRANCH  17  19
ATOM     19  C   UNL     1       4.414   2.118  19.859  0.00  0.00    +0.000 C 
BRANCH  19  20
ATOM     20  C   UNL     1       2.941   2.440  19.825  0.00  0.00    +0.000 A 
ATOM     21  C   UNL     1       2.388   3.142  20.907  0.00  0.00    +0.000 A 
ATOM     22  C   UNL     1       1.041   3.496  20.911  0.00  0.00    +0.000 A 
ATOM     23  C   UNL     1       0.231   3.161  19.827  0.00  0.00    +0.000 A 
ATOM     24  C   UNL     1       0.772   2.490  18.731  0.00  0.00    +0.000 A 
ATOM     25  C   UNL     1       2.127   2.138  18.724  0.00  0.00    +0.000 A 
ENDBRANCH  19  20
ENDBRANCH  17  19
ENDBRANCH  15  17
ENDBRANCH   1  15
TORSDOF 6
ENDMDL
MODEL 2
REMARK VINA RESULT:      -7.1      0.127      1.012
REMARK  Name = 
REMARK  6 active torsions:
REMARK  status: ('A' for Active; 'I' for Inactive)
REMARK    1  A    between atoms: S_2  and  N_4
REMARK    2  A    between atoms: S_2  and  C_12
REMARK    3  A    between atoms: N_4  and  C_5
REMARK    4  A    between atoms: C_5  and  C_6
REMARK    5  A    between atoms: C_17  and  C_18
REMARK    6  A    between atoms: C_21  and  S_22
REMARK                            x       y       z     vdW  Elec       q    Type
REMARK                         _______ _______ _______ _____ _____    ______ ____
ROOT
ATOM      1  C   UNL     1       4.729   5.407  18.067  0.00  0.00    +0.000 A 
ATOM      2  C   UNL     1       3.815   5.874  19.029  0.00  0.00    +0.000 A 
ATOM      3  C   UNL     1       3.062   7.024  18.785  0.00  0.00    +0.000 A 
ATOM      4  C   UNL     1       3.213   7.710  17.587  0.00  0.00    +0.000 A 
ATOM      5  C   UNL     1       4.115   7.246  16.627  0.00  0.00    +0.000 A 
ATOM      6  C   UNL     1       4.889   6.088  16.841  0.00  0.00    +0.000 A 
ENDROOT
BRANCH   6   7
ATOM      7  C   UNL     1       5.835   5.672  15.809  0.00  0.00    +0.000 A 
ATOM      8  N   UNL     1       7.108   5.958  15.643  0.00  0.00    +0.000 NA
ATOM      9  N   UNL     1       7.522   5.306  14.505  0.00  0.00    +0.000 NA
ATOM     10  C   UNL     1       6.469   4.673  14.041  0.00  0.00    +0.000 A 
ATOM     11  O   UNL     1       5.354   4.859  14.813  0.00  0.00    +0.000 OA
BRANCH  10  12
ATOM     12  S   UNL     1       6.491   3.744  12.583  0.00  0.00    +0.000 S 
ATOM     13  H   UNL     1       7.541   4.383  12.048  0.00  0.00    +0.000 HD
ENDBRANCH  10  12
ENDBRANCH   6   7
BRANCH   1  15
ATOM     14  O   UNL     1       7.071   4.386  18.501  0.00  0.00    +0.000 OA
ATOM     15  S   UNL     1       5.701   3.944  18.382  0.00  0.00    +0.000 S 
ATOM     16  O   UNL     1       5.248   2.928  17.462  0.00  0.00    +0.000 OA
BRANCH  15  17
ATOM     17  N   UNL     1       5.284   3.423  19.927  0.00  0.00    +0.000 NA
ATOM     18  H   UNL     1       5.106   4.177  20.585  0.00  0.00    +0.000 HD
BRANCH  17  19
ATOM     19  C   UNL     1       4.416   2.253  20.002  0.00  0.00    +0.000 C 
BRANCH  19  20
ATOM     20  C   UNL     1       2.949   2.586  19.905  0.00  0.00    +0.000 A 
ATOM     21  C   UNL     1       2.231   2.119  18.793  0.00  0.00    +0.000 A 
ATOM     22  C   UNL     1       0.867   2.368  18.671  0.00  0.00    +0.000 A 
ATOM     23  C   UNL     1       0.199   3.079  19.666  0.00  0.00    +0.000 A 
ATOM     24  C   UNL     1       0.890   3.525  20.792  0.00  0.00    +0.000 A 
ATOM     25  C   UNL     1       2.260   3.270  20.918  0.00  0.00    +0.000 A 
ENDBRANCH  19  20
ENDBRANCH  17  19
ENDBRANCH  15  17
ENDBRANCH   1  15
TORSDOF 6
ENDMDL
MODEL 3
REMARK VINA RESULT:      -7.0      2.814      6.230
REMARK  Name = 
REMARK  6 active torsions:
REMARK  status: ('A' for Active; 'I' for Inactive)
REMARK    1  A    between atoms: S_2  and  N_4
REMARK    2  A    between atoms: S_2  and  C_12
REMARK    3  A    between atoms: N_4  and  C_5
REMARK    4  A    between atoms: C_5  and  C_6
REMARK    5  A    between atoms: C_17  and  C_18
REMARK    6  A    between atoms: C_21  and  S_22
REMARK                            x       y       z     vdW  Elec       q    Type
REMARK                         _______ _______ _______ _____ _____    ______ ____
ROOT
ATOM      1  C   UNL     1       3.816   4.181  18.112  0.00  0.00    +0.000 A 
ATOM      2  C   UNL     1       3.954   2.832  17.739  0.00  0.00    +0.000 A 
ATOM      3  C   UNL     1       2.861   1.966  17.812  0.00  0.00    +0.000 A 
ATOM      4  C   UNL     1       1.631   2.438  18.251  0.00  0.00    +0.000 A 
ATOM      5  C   UNL     1       1.489   3.778  18.616  0.00  0.00    +0.000 A 
ATOM      6  C   UNL     1       2.572   4.679  18.554  0.00  0.00    +0.000 A 
ENDROOT
BRANCH   6   7
ATOM      7  C   UNL     1       2.364   6.061  18.977  0.00  0.00    +0.000 A 
ATOM      8  N   UNL     1       2.330   6.597  20.178  0.00  0.00    +0.000 NA
ATOM      9  N   UNL     1       2.098   7.942  20.012  0.00  0.00    +0.000 NA
ATOM     10  C   UNL     1       1.990   8.139  18.718  0.00  0.00    +0.000 A 
ATOM     11  O   UNL     1       2.144   6.990  17.991  0.00  0.00    +0.000 OA
BRANCH  10  12
ATOM     12  S   UNL     1       1.647   9.684  18.021  0.00  0.00    +0.000 S 
ATOM     13  H   UNL     1       0.495   9.305  17.448  0.00  0.00    +0.000 HD
ENDBRANCH  10  12
ENDBRANCH   6   7
BRANCH   1  15
ATOM     14  O   UNL     1       5.722   5.396  19.379  0.00  0.00    +0.000 OA
ATOM     15  S   UNL     1       5.215   5.287  18.032  0.00  0.00    +0.000 S 
ATOM     16  O   UNL     1       4.821   6.409  17.213  0.00  0.00    +0.000 OA
BRANCH  15  17
ATOM     17  N   UNL     1       6.417   4.466  17.187  0.00  0.00    +0.000 NA
ATOM     18  H   UNL     1       6.188   3.499  16.974  0.00  0.00    +0.000 HD
BRANCH  17  19
ATOM     19  C   UNL     1       7.120   5.228  16.160  0.00  0.00    +0.000 C 
BRANCH  19  20
ATOM     20  C   UNL     1       6.875   4.719  14.762  0.00  0.00    +0.000 A 
ATOM     21  C   UNL     1       5.743   3.924  14.531  0.00  0.00    +0.000 A 
ATOM     22  C   UNL     1       5.450   3.456  13.252  0.00  0.00    +0.000 A 
ATOM     23  C   UNL     1       6.281   3.788  12.184  0.00  0.00    +0.000 A 
ATOM     24  C   UNL     1       7.394   4.602  12.391  0.00  0.00    +0.000 A 
ATOM     25  C   UNL     1       7.687   5.077  13.674  0.00  0.00    +0.000 A 
ENDBRANCH  19  20
ENDBRANCH  17  19
ENDBRANCH  15  17
ENDBRANCH   1  15
TORSDOF 6
ENDMDL
MODEL 4
REMARK VINA RESULT:      -7.0      2.821      6.194
REMARK  Name = 
REMARK  6 active torsions:
REMARK  status: ('A' for Active; 'I' for Inactive)
REMARK    1  A    between atoms: S_2  and  N_4
REMARK    2  A    between atoms: S_2  and  C_12
REMARK    3  A    between atoms: N_4  and  C_5
REMARK    4  A    between atoms: C_5  and  C_6
REMARK    5  A    between atoms: C_17  and  C_18
REMARK    6  A    between atoms: C_21  and  S_22
REMARK                            x       y       z     vdW  Elec       q    Type
REMARK                         _______ _______ _______ _____ _____    ______ ____
ROOT
ATOM      1  C   UNL     1       3.826   4.158  18.231  0.00  0.00    +0.000 A 
ATOM      2  C   UNL     1       3.971   2.805  17.875  0.00  0.00    +0.000 A 
ATOM      3  C   UNL     1       2.871   1.946  17.909  0.00  0.00    +0.000 A 
ATOM      4  C   UNL     1       1.626   2.428  18.292  0.00  0.00    +0.000 A 
ATOM      5  C   UNL     1       1.477   3.773  18.640  0.00  0.00    +0.000 A 
ATOM      6  C   UNL     1       2.567   4.666  18.616  0.00  0.00    +0.000 A 
ENDROOT
BRANCH   6   7
ATOM      7  C   UNL     1       2.349   6.053  19.019  0.00  0.00    +0.000 A 
ATOM      8  N   UNL     1       2.273   6.601  20.213  0.00  0.00    +0.000 NA
ATOM      9  N   UNL     1       2.053   7.944  20.026  0.00  0.00    +0.000 NA
ATOM     10  C   UNL     1       1.994   8.130  18.727  0.00  0.00    +0.000 A 
ATOM     11  O   UNL     1       2.170   6.974  18.017  0.00  0.00    +0.000 OA
BRANCH  10  12
ATOM     12  S   UNL     1       1.684   9.670  18.004  0.00  0.00    +0.000 S 
ATOM     13  H   UNL     1       0.352   9.602  18.142  0.00  0.00    +0.000 HD
ENDBRANCH  10  12
ENDBRANCH   6   7
BRANCH   1  15
ATOM     14  O   UNL     1       5.685   5.371  19.568  0.00  0.00    +0.000 OA
ATOM     15  S   UNL     1       5.233   5.255  18.201  0.00  0.00    +0.000 S 
ATOM     16  O   UNL     1       4.880   6.374  17.359  0.00  0.00    +0.000 OA
BRANCH  15  17
ATOM     17  N   UNL     1       6.464   4.422  17.413  0.00  0.00    +0.000 NA
ATOM     18  H   UNL     1       6.245   3.450  17.213  0.00  0.00    +0.000 HD
BRANCH  17  19
ATOM     19  C   UNL     1       7.197   5.165  16.392  0.00  0.00    +0.000 C 
BRANCH  19  20
ATOM     20  C   UNL     1       6.871   4.733  14.985  0.00  0.00    +0.000 A 
ATOM     21  C   UNL     1       7.708   5.164  13.945  0.00  0.00    +0.000 A 
ATOM     22  C   UNL     1       7.474   4.765  12.631  0.00  0.00    +0.000 A 
ATOM     23  C   UNL     1       6.403   3.920  12.342  0.00  0.00    +0.000 A 
ATOM     24  C   UNL     1       5.579   3.459  13.368  0.00  0.00    +0.000 A 
ATOM     25  C   UNL     1       5.817   3.855  14.689  0.00  0.00    +0.000 A 
ENDBRANCH  19  20
ENDBRANCH  17  19
ENDBRANCH  15  17
ENDBRANCH   1  15
TORSDOF 6
ENDMDL
MODEL 5
REMARK VINA RESULT:      -6.9      0.990      1.109
REMARK  Name = 
REMARK  6 active torsions:
REMARK  status: ('A' for Active; 'I' for Inactive)
REMARK    1  A    between atoms: S_2  and  N_4
REMARK    2  A    between atoms: S_2  and  C_12
REMARK    3  A    between atoms: N_4  and  C_5
REMARK    4  A    between atoms: C_5  and  C_6
REMARK    5  A    between atoms: C_17  and  C_18
REMARK    6  A    between atoms: C_21  and  S_22
REMARK                            x       y       z     vdW  Elec       q    Type
REMARK                         _______ _______ _______ _____ _____    ______ ____
ROOT
ATOM      1  C   UNL     1       4.415   5.424  18.489  0.00  0.00    +0.000 A 
ATOM      2  C   UNL     1       3.496   5.828  19.474  0.00  0.00    +0.000 A 
ATOM      3  C   UNL     1       2.695   6.952  19.271  0.00  0.00    +0.000 A 
ATOM      4  C   UNL     1       2.801   7.675  18.090  0.00  0.00    +0.000 A 
ATOM      5  C   UNL     1       3.707   7.274  17.106  0.00  0.00    +0.000 A 
ATOM      6  C   UNL     1       4.531   6.143  17.280  0.00  0.00    +0.000 A 
ENDROOT
BRANCH   6   7
ATOM      7  C   UNL     1       5.479   5.793  16.225  0.00  0.00    +0.000 A 
ATOM      8  N   UNL     1       6.669   6.278  15.942  0.00  0.00    +0.000 NA
ATOM      9  N   UNL     1       7.131   5.594  14.843  0.00  0.00    +0.000 NA
ATOM     10  C   UNL     1       6.185   4.744  14.515  0.00  0.00    +0.000 A 
ATOM     11  O   UNL     1       5.098   4.812  15.344  0.00  0.00    +0.000 OA
BRANCH  10  12
ATOM     12  S   UNL     1       6.294   3.687  13.151  0.00  0.00    +0.000 S 
ATOM     13  H   UNL     1       7.601   3.427  13.303  0.00  0.00    +0.000 HD
ENDBRANCH  10  12
ENDBRANCH   6   7
BRANCH   1  15
ATOM     14  O   UNL     1       5.210   3.565  20.109  0.00  0.00    +0.000 OA
ATOM     15  S   UNL     1       5.451   3.994  18.752  0.00  0.00    +0.000 S 
ATOM     16  O   UNL     1       6.752   4.309  18.212  0.00  0.00    +0.000 OA
BRANCH  15  17
ATOM     17  N   UNL     1       4.810   2.767  17.796  0.00  0.00    +0.000 NA
ATOM     18  H   UNL     1       5.437   2.440  17.066  0.00  0.00    +0.000 HD
BRANCH  17  19
ATOM     19  C   UNL     1       4.008   1.762  18.486  0.00  0.00    +0.000 C 
BRANCH  19  20
ATOM     20  C   UNL     1       2.697   2.295  19.007  0.00  0.00    +0.000 A 
ATOM     21  C   UNL     1       2.486   2.303  20.395  0.00  0.00    +0.000 A 
ATOM     22  C   UNL     1       1.308   2.817  20.932  0.00  0.00    +0.000 A 
ATOM     23  C   UNL     1       0.330   3.340  20.088  0.00  0.00    +0.000 A 
ATOM     24  C   UNL     1       0.536   3.366  18.709  0.00  0.00    +0.000 A 
ATOM     25  C   UNL     1       1.722   2.855  18.169  0.00  0.00    +0.000 A 
ENDBRANCH  19  20
ENDBRANCH  17  19
ENDBRANCH  15  17
ENDBRANCH   1  15
TORSDOF 6
ENDMDL
MODEL 6
REMARK VINA RESULT:      -6.9      2.497      3.992
REMARK  Name = 
REMARK  6 active torsions:
REMARK  status: ('A' for Active; 'I' for Inactive)
REMARK    1  A    between atoms: S_2  and  N_4
REMARK    2  A    between atoms: S_2  and  C_12
REMARK    3  A    between atoms: N_4  and  C_5
REMARK    4  A    between atoms: C_5  and  C_6
REMARK    5  A    between atoms: C_17  and  C_18
REMARK    6  A    between atoms: C_21  and  S_22
REMARK                            x       y       z     vdW  Elec       q    Type
REMARK                         _______ _______ _______ _____ _____    ______ ____
ROOT
ATOM      1  C   UNL     1       5.419   4.520  15.764  0.00  0.00    +0.000 A 
ATOM      2  C   UNL     1       4.948   3.805  14.649  0.00  0.00    +0.000 A 
ATOM      3  C   UNL     1       5.724   3.712  13.493  0.00  0.00    +0.000 A 
ATOM      4  C   UNL     1       6.969   4.325  13.442  0.00  0.00    +0.000 A 
ATOM      5  C   UNL     1       7.444   5.031  14.550  0.00  0.00    +0.000 A 
ATOM      6  C   UNL     1       6.685   5.143  15.733  0.00  0.00    +0.000 A 
ENDROOT
BRANCH   6   7
ATOM      7  C   UNL     1       7.227   5.920  16.846  0.00  0.00    +0.000 A 
ATOM      8  N   UNL     1       7.568   5.557  18.063  0.00  0.00    +0.000 NA
ATOM      9  N   UNL     1       8.018   6.684  18.708  0.00  0.00    +0.000 NA
ATOM     10  C   UNL     1       7.908   7.669  17.846  0.00  0.00    +0.000 A 
ATOM     11  O   UNL     1       7.408   7.265  16.638  0.00  0.00    +0.000 OA
BRANCH  10  12
ATOM     12  S   UNL     1       8.314   9.307  18.225  0.00  0.00    +0.000 S 
ATOM     13  H   UNL     1       7.642   9.332  19.385  0.00  0.00    +0.000 HD
ENDBRANCH  10  12
ENDBRANCH   6   7
BRANCH   1  15
ATOM     14  O   UNL     1       4.109   6.053  17.392  0.00  0.00    +0.000 OA
ATOM     15  S   UNL     1       4.423   4.652  17.240  0.00  0.00    +0.000 S 
ATOM     16  O   UNL     1       5.057   3.842  18.252  0.00  0.00    +0.000 OA
BRANCH  15  17
ATOM     17  N   UNL     1       2.951   3.920  16.882  0.00  0.00    +0.000 NA
ATOM     18  H   UNL     1       3.014   2.918  16.721  0.00  0.00    +0.000 HD
BRANCH  17  19
ATOM     19  C   UNL     1       1.791   4.405  17.622  0.00  0.00    +0.000 C 
BRANCH  19  20
ATOM     20  C   UNL     1       1.802   4.015  19.079  0.00  0.00    +0.000 A 
ATOM     21  C   UNL     1       1.583   2.669  19.409  0.00  0.00    +0.000 A 
ATOM     22  C   UNL     1       1.617   2.247  20.736  0.00  0.00    +0.000 A 
ATOM     23  C   UNL     1       1.883   3.166  21.750  0.00  0.00    +0.000 A 
ATOM     24  C   UNL     1       2.132   4.501  21.437  0.00  0.00    +0.000 A 
ATOM     25  C   UNL     1       2.103   4.925  20.103  0.00  0.00    +0.000 A 
ENDBRANCH  19  20
ENDBRANCH  17  19
ENDBRANCH  15  17
ENDBRANCH   1  15
TORSDOF 6
ENDMDL
MODEL 7
REMARK VINA RESULT:      -6.8      1.018      1.442
REMARK  Name = 
REMARK  6 active torsions:
REMARK  status: ('A' for Active; 'I' for Inactive)
REMARK    1  A    between atoms: S_2  and  N_4
REMARK    2  A    between atoms: S_2  and  C_12
REMARK    3  A    between atoms: N_4  and  C_5
REMARK    4  A    between atoms: C_5  and  C_6
REMARK    5  A    between atoms: C_17  and  C_18
REMARK    6  A    between atoms: C_21  and  S_22
REMARK                            x       y       z     vdW  Elec       q    Type
REMARK                         _______ _______ _______ _____ _____    ______ ____
ROOT
ATOM      1  C   UNL     1       4.390   5.406  18.554  0.00  0.00    +0.000 A 
ATOM      2  C   UNL     1       3.472   5.798  19.545  0.00  0.00    +0.000 A 
ATOM      3  C   UNL     1       2.660   6.917  19.351  0.00  0.00    +0.000 A 
ATOM      4  C   UNL     1       2.756   7.646  18.173  0.00  0.00    +0.000 A 
ATOM      5  C   UNL     1       3.661   7.257  17.183  0.00  0.00    +0.000 A 
ATOM      6  C   UNL     1       4.495   6.132  17.348  0.00  0.00    +0.000 A 
ENDROOT
BRANCH   6   7
ATOM      7  C   UNL     1       5.440   5.794  16.287  0.00  0.00    +0.000 A 
ATOM      8  N   UNL     1       6.626   6.288  16.002  0.00  0.00    +0.000 NA
ATOM      9  N   UNL     1       7.087   5.614  14.897  0.00  0.00    +0.000 NA
ATOM     10  C   UNL     1       6.145   4.760  14.567  0.00  0.00    +0.000 A 
ATOM     11  O   UNL     1       5.062   4.816  15.401  0.00  0.00    +0.000 OA
BRANCH  10  12
ATOM     12  S   UNL     1       6.256   3.712  13.196  0.00  0.00    +0.000 S 
ATOM     13  H   UNL     1       5.057   4.045  12.694  0.00  0.00    +0.000 HD
ENDBRANCH  10  12
ENDBRANCH   6   7
BRANCH   1  15
ATOM     14  O   UNL     1       5.188   3.530  20.153  0.00  0.00    +0.000 OA
ATOM     15  S   UNL     1       5.438   3.983  18.805  0.00  0.00    +0.000 S 
ATOM     16  O   UNL     1       6.741   4.320  18.284  0.00  0.00    +0.000 OA
BRANCH  15  17
ATOM     17  N   UNL     1       4.821   2.764  17.823  0.00  0.00    +0.000 NA
ATOM     18  H   UNL     1       5.470   2.435  17.113  0.00  0.00    +0.000 HD
BRANCH  17  19
ATOM     19  C   UNL     1       3.987   1.763  18.481  0.00  0.00    +0.000 C 
BRANCH  19  20
ATOM     20  C   UNL     1       2.718   2.330  19.066  0.00  0.00    +0.000 A 
ATOM     21  C   UNL     1       1.741   2.823  18.188  0.00  0.00    +0.000 A 
ATOM     22  C   UNL     1       0.536   3.324  18.673  0.00  0.00    +0.000 A 
ATOM     23  C   UNL     1       0.288   3.329  20.044  0.00  0.00    +0.000 A 
ATOM     24  C   UNL     1       1.235   2.815  20.929  0.00  0.00    +0.000 A 
ATOM     25  C   UNL     1       2.444   2.306  20.442  0.00  0.00    +0.000 A 
ENDBRANCH  19  20
ENDBRANCH  17  19
ENDBRANCH  15  17
ENDBRANCH   1  15
TORSDOF 6
ENDMDL
MODEL 8
REMARK VINA RESULT:      -6.8      2.366      3.847
REMARK  Name = 
REMARK  6 active torsions:
REMARK  status: ('A' for Active; 'I' for Inactive)
REMARK    1  A    between atoms: S_2  and  N_4
REMARK    2  A    between atoms: S_2  and  C_12
REMARK    3  A    between atoms: N_4  and  C_5
REMARK    4  A    between atoms: C_5  and  C_6
REMARK    5  A    between atoms: C_17  and  C_18
REMARK    6  A    between atoms: C_21  and  S_22
REMARK                            x       y       z     vdW  Elec       q    Type
REMARK                         _______ _______ _______ _____ _____    ______ ____
ROOT
ATOM      1  C   UNL     1       5.468   4.465  15.385  0.00  0.00    +0.000 A 
ATOM      2  C   UNL     1       5.028   3.794  14.231  0.00  0.00    +0.000 A 
ATOM      3  C   UNL     1       5.839   3.737  13.096  0.00  0.00    +0.000 A 
ATOM      4  C   UNL     1       7.090   4.343  13.108  0.00  0.00    +0.000 A 
ATOM      5  C   UNL     1       7.533   5.004  14.255  0.00  0.00    +0.000 A 
ATOM      6  C   UNL     1       6.738   5.080  15.417  0.00  0.00    +0.000 A 
ENDROOT
BRANCH   6   7
ATOM      7  C   UNL     1       7.248   5.812  16.573  0.00  0.00    +0.000 A 
ATOM      8  N   UNL     1       7.638   5.388  17.756  0.00  0.00    +0.000 NA
ATOM      9  N   UNL     1       8.024   6.496  18.473  0.00  0.00    +0.000 NA
ATOM     10  C   UNL     1       7.831   7.529  17.685  0.00  0.00    +0.000 A 
ATOM     11  O   UNL     1       7.335   7.177  16.459  0.00  0.00    +0.000 OA
BRANCH  10  12
ATOM     12  S   UNL     1       8.134   9.160  18.173  0.00  0.00    +0.000 S 
ATOM     13  H   UNL     1       9.465   9.019  18.245  0.00  0.00    +0.000 HD
ENDBRANCH  10  12
ENDBRANCH   6   7
BRANCH   1  15
ATOM     14  O   UNL     1       3.286   3.708  16.560  0.00  0.00    +0.000 OA
ATOM     15  S   UNL     1       4.426   4.551  16.832  0.00  0.00    +0.000 S 
ATOM     16  O   UNL     1       4.344   5.940  17.213  0.00  0.00    +0.000 OA
BRANCH  15  17
ATOM     17  N   UNL     1       5.259   3.758  18.060  0.00  0.00    +0.000 NA
ATOM     18  H   UNL     1       6.230   3.552  17.838  0.00  0.00    +0.000 HD
BRANCH  17  19
ATOM     19  C   UNL     1       4.964   4.187  19.424  0.00  0.00    +0.000 C 
BRANCH  19  20
ATOM     20  C   UNL     1       3.553   3.878  19.858  0.00  0.00    +0.000 A 
ATOM     21  C   UNL     1       2.718   4.947  20.218  0.00  0.00    +0.000 A 
ATOM     22  C   UNL     1       1.396   4.721  20.592  0.00  0.00    +0.000 A 
ATOM     23  C   UNL     1       0.888   3.423  20.601  0.00  0.00    +0.000 A 
ATOM     24  C   UNL     1       1.696   2.353  20.218  0.00  0.00    +0.000 A 
ATOM     25  C   UNL     1       3.023   2.579  19.836  0.00  0.00    +0.000 A 
ENDBRANCH  19  20
ENDBRANCH  17  19
ENDBRANCH  15  17
ENDBRANCH   1  15
TORSDOF 6
ENDMDL
MODEL 9
REMARK VINA RESULT:      -6.8      2.654      6.315
REMARK  Name = 
REMARK  6 active torsions:
REMARK  status: ('A' for Active; 'I' for Inactive)
REMARK    1  A    between atoms: S_2  and  N_4
REMARK    2  A    between atoms: S_2  and  C_12
REMARK    3  A    between atoms: N_4  and  C_5
REMARK    4  A    between atoms: C_5  and  C_6
REMARK    5  A    between atoms: C_17  and  C_18
REMARK    6  A    between atoms: C_21  and  S_22
REMARK                            x       y       z     vdW  Elec       q    Type
REMARK                         _______ _______ _______ _____ _____    ______ ____
ROOT
ATOM      1  C   UNL     1       6.062   6.213  17.703  0.00  0.00    +0.000 A 
ATOM      2  C   UNL     1       7.106   7.109  17.411  0.00  0.00    +0.000 A 
ATOM      3  C   UNL     1       8.200   7.221  18.271  0.00  0.00    +0.000 A 
ATOM      4  C   UNL     1       8.261   6.441  19.420  0.00  0.00    +0.000 A 
ATOM      5  C   UNL     1       7.229   5.546  19.709  0.00  0.00    +0.000 A 
ATOM      6  C   UNL     1       6.111   5.409  18.862  0.00  0.00    +0.000 A 
ENDROOT
BRANCH   6   7
ATOM      7  C   UNL     1       5.052   4.475  19.237  0.00  0.00    +0.000 A 
ATOM      8  N   UNL     1       4.929   3.183  19.024  0.00  0.00    +0.000 NA
ATOM      9  N   UNL     1       3.737   2.794  19.586  0.00  0.00    +0.000 NA
ATOM     10  C   UNL     1       3.199   3.879  20.095  0.00  0.00    +0.000 A 
ATOM     11  O   UNL     1       3.974   4.992  19.911  0.00  0.00    +0.000 OA
BRANCH  10  12
ATOM     12  S   UNL     1       1.655   3.895  20.874  0.00  0.00    +0.000 S 
ATOM     13  H   UNL     1       0.946   3.911  19.735  0.00  0.00    +0.000 HD
ENDBRANCH  10  12
ENDBRANCH   6   7
BRANCH   1  15
ATOM     14  O   UNL     1       4.971   6.872  15.447  0.00  0.00    +0.000 OA
ATOM     15  S   UNL     1       4.656   6.079  16.611  0.00  0.00    +0.000 S 
ATOM     16  O   UNL     1       3.473   6.249  17.421  0.00  0.00    +0.000 OA
BRANCH  15  17
ATOM     17  N   UNL     1       4.641   4.491  16.055  0.00  0.00    +0.000 NA
ATOM     18  H   UNL     1       3.875   4.280  15.423  0.00  0.00    +0.000 HD
BRANCH  17  19
ATOM     19  C   UNL     1       5.941   3.901  15.749  0.00  0.00    +0.000 C 
BRANCH  19  20
ATOM     20  C   UNL     1       6.368   4.099  14.317  0.00  0.00    +0.000 A 
ATOM     21  C   UNL     1       7.402   5.009  14.049  0.00  0.00    +0.000 A 
ATOM     22  C   UNL     1       7.859   5.204  12.748  0.00  0.00    +0.000 A 
ATOM     23  C   UNL     1       7.295   4.482  11.698  0.00  0.00    +0.000 A 
ATOM     24  C   UNL     1       6.287   3.552  11.950  0.00  0.00    +0.000 A 
ATOM     25  C   UNL     1       5.830   3.351  13.258  0.00  0.00    +0.000 A 
ENDBRANCH  19  20
ENDBRANCH  17  19
ENDBRANCH  15  17
ENDBRANCH   1  15
TORSDOF 6
ENDMDL
