MODEL 1
REMARK VINA RESULT:      -6.5      0.000      0.000
REMARK  Name = 
REMARK  2 active torsions:
REMARK  status: ('A' for Active; 'I' for Inactive)
REMARK    1  A    between atoms: C_2  and  O_3
REMARK    2  A    between atoms: C_2  and  C_4
REMARK                            x       y       z     vdW  Elec       q    Type
REMARK                         _______ _______ _______ _____ _____    ______ ____
ROOT
ATOM      1  C   UNL     1       5.627   4.905  16.956  0.00  0.00    +0.000 A 
ATOM      2  C   UNL     1       4.873   6.039  17.294  0.00  0.00    +0.000 A 
ATOM      3  C   UNL     1       3.542   5.899  17.689  0.00  0.00    +0.000 A 
ATOM      4  C   UNL     1       2.970   4.627  17.748  0.00  0.00    +0.000 A 
ATOM      5  C   UNL     1       3.713   3.489  17.382  0.00  0.00    +0.000 A 
ATOM      6  C   UNL     1       5.042   3.633  16.977  0.00  0.00    +0.000 A 
ATOM      7  C   UNL     1       2.998   2.162  17.364  0.00  0.00    +0.000 C 
ATOM      8  N   UNL     1       2.154   1.932  18.541  0.00  0.00    +0.000 NA
ATOM      9  C   UNL     1       1.511   3.142  19.080  0.00  0.00    +0.000 C 
ATOM     10  C   UNL     1       1.547   4.389  18.181  0.00  0.00    +0.000 C 
ATOM     11  H   UNL     1       2.725   1.514  19.276  0.00  0.00    +0.000 HD
ENDROOT
BRANCH   1  13
ATOM     12  O   UNL     1       7.413   5.803  15.662  0.00  0.00    +0.000 OA
ATOM     13  C   UNL     1       7.040   5.019  16.522  0.00  0.00    +0.000 C 
BRANCH  13  14
ATOM     14  O   UNL     1       7.863   4.142  17.133  0.00  0.00    +0.000 OA
ATOM     15  H   UNL     1       7.746   3.215  16.853  0.00  0.00    +0.000 HD
ENDBRANCH  13  14
ENDBRANCH   1  13
TORSDOF 2
ENDMDL
MODEL 2
REMARK VINA RESULT:      -6.3      3.433      4.837
REMARK  Name = 
REMARK  2 active torsions:
REMARK  status: ('A' for Active; 'I' for Inactive)
REMARK    1  A    between atoms: C_2  and  O_3
REMARK    2  A    between atoms: C_2  and  C_4
REMARK                            x       y       z     vdW  Elec       q    Type
REMARK                         _______ _______ _______ _____ _____    ______ ____
ROOT
ATOM      1  C   UNL     1       3.540   3.877  17.920  0.00  0.00    +0.000 A 
ATOM      2  C   UNL     1       3.786   4.433  19.184  0.00  0.00    +0.000 A 
ATOM      3  C   UNL     1       4.980   5.113  19.427  0.00  0.00    +0.000 A 
ATOM      4  C   UNL     1       5.922   5.237  18.405  0.00  0.00    +0.000 A 
ATOM      5  C   UNL     1       5.694   4.656  17.144  0.00  0.00    +0.000 A 
ATOM      6  C   UNL     1       4.503   3.967  16.907  0.00  0.00    +0.000 A 
ATOM      7  C   UNL     1       6.802   4.735  16.125  0.00  0.00    +0.000 C 
ATOM      8  N   UNL     1       7.423   6.061  16.032  0.00  0.00    +0.000 NA
ATOM      9  C   UNL     1       7.501   6.792  17.308  0.00  0.00    +0.000 C 
ATOM     10  C   UNL     1       7.227   5.971  18.580  0.00  0.00    +0.000 C 
ATOM     11  H   UNL     1       6.893   6.625  15.368  0.00  0.00    +0.000 HD
ENDROOT
BRANCH   1  13
ATOM     12  O   UNL     1       1.217   3.693  17.431  0.00  0.00    +0.000 OA
ATOM     13  C   UNL     1       2.287   3.139  17.631  0.00  0.00    +0.000 C 
BRANCH  13  14
ATOM     14  O   UNL     1       2.433   1.798  17.660  0.00  0.00    +0.000 OA
ATOM     15  H   UNL     1       3.212   1.465  17.178  0.00  0.00    +0.000 HD
ENDBRANCH  13  14
ENDBRANCH   1  13
TORSDOF 2
ENDMDL
MODEL 3
REMARK VINA RESULT:      -6.3      1.473      1.680
REMARK  Name = 
REMARK  2 active torsions:
REMARK  status: ('A' for Active; 'I' for Inactive)
REMARK    1  A    between atoms: C_2  and  O_3
REMARK    2  A    between atoms: C_2  and  C_4
REMARK                            x       y       z     vdW  Elec       q    Type
REMARK                         _______ _______ _______ _____ _____    ______ ____
ROOT
ATOM      1  C   UNL     1       5.605   5.035  15.800  0.00  0.00    +0.000 A 
ATOM      2  C   UNL     1       5.392   6.373  16.163  0.00  0.00    +0.000 A 
ATOM      3  C   UNL     1       4.400   6.697  17.088  0.00  0.00    +0.000 A 
ATOM      4  C   UNL     1       3.624   5.681  17.650  0.00  0.00    +0.000 A 
ATOM      5  C   UNL     1       3.812   4.340  17.267  0.00  0.00    +0.000 A 
ATOM      6  C   UNL     1       4.799   4.021  16.333  0.00  0.00    +0.000 A 
ATOM      7  C   UNL     1       2.865   3.311  17.830  0.00  0.00    +0.000 C 
ATOM      8  N   UNL     1       2.623   3.460  19.270  0.00  0.00    +0.000 NA
ATOM      9  C   UNL     1       2.617   4.852  19.749  0.00  0.00    +0.000 C 
ATOM     10  C   UNL     1       2.545   5.943  18.668  0.00  0.00    +0.000 C 
ATOM     11  H   UNL     1       3.342   2.945  19.778  0.00  0.00    +0.000 HD
ENDROOT
BRANCH   1  13
ATOM     12  O   UNL     1       7.630   5.343  14.586  0.00  0.00    +0.000 OA
ATOM     13  C   UNL     1       6.643   4.658  14.812  0.00  0.00    +0.000 C 
BRANCH  13  14
ATOM     14  O   UNL     1       6.370   3.513  14.153  0.00  0.00    +0.000 OA
ATOM     15  H   UNL     1       7.014   3.281  13.460  0.00  0.00    +0.000 HD
ENDBRANCH  13  14
ENDBRANCH   1  13
TORSDOF 2
ENDMDL
MODEL 4
REMARK VINA RESULT:      -6.2      3.690      5.143
REMARK  Name = 
REMARK  2 active torsions:
REMARK  status: ('A' for Active; 'I' for Inactive)
REMARK    1  A    between atoms: C_2  and  O_3
REMARK    2  A    between atoms: C_2  and  C_4
REMARK                            x       y       z     vdW  Elec       q    Type
REMARK                         _______ _______ _______ _____ _____    ______ ____
ROOT
ATOM      1  C   UNL     1       2.485   3.472  19.643  0.00  0.00    +0.000 A 
ATOM      2  C   UNL     1       1.937   3.436  18.352  0.00  0.00    +0.000 A 
ATOM      3  C   UNL     1       2.707   3.824  17.255  0.00  0.00    +0.000 A 
ATOM      4  C   UNL     1       4.023   4.245  17.452  0.00  0.00    +0.000 A 
ATOM      5  C   UNL     1       4.569   4.311  18.747  0.00  0.00    +0.000 A 
ATOM      6  C   UNL     1       3.793   3.932  19.844  0.00  0.00    +0.000 A 
ATOM      7  C   UNL     1       5.958   4.880  18.894  0.00  0.00    +0.000 C 
ATOM      8  N   UNL     1       6.911   4.367  17.904  0.00  0.00    +0.000 NA
ATOM      9  C   UNL     1       6.331   4.093  16.579  0.00  0.00    +0.000 C 
ATOM     10  C   UNL     1       4.926   4.663  16.321  0.00  0.00    +0.000 C 
ATOM     11  H   UNL     1       7.323   3.505  18.262  0.00  0.00    +0.000 HD
ENDROOT
BRANCH   1  13
ATOM     12  O   UNL     1       2.196   2.788  21.905  0.00  0.00    +0.000 OA
ATOM     13  C   UNL     1       1.691   3.076  20.830  0.00  0.00    +0.000 C 
BRANCH  13  14
ATOM     14  O   UNL     1       0.364   3.018  20.596  0.00  0.00    +0.000 OA
ATOM     15  H   UNL     1      -0.171   2.741  21.362  0.00  0.00    +0.000 HD
ENDBRANCH  13  14
ENDBRANCH   1  13
TORSDOF 2
ENDMDL
MODEL 5
REMARK VINA RESULT:      -6.2      1.241      1.524
REMARK  Name = 
REMARK  2 active torsions:
REMARK  status: ('A' for Active; 'I' for Inactive)
REMARK    1  A    between atoms: C_2  and  O_3
REMARK    2  A    between atoms: C_2  and  C_4
REMARK                            x       y       z     vdW  Elec       q    Type
REMARK                         _______ _______ _______ _____ _____    ______ ____
ROOT
ATOM      1  C   UNL     1       4.291   5.670  17.154  0.00  0.00    +0.000 A 
ATOM      2  C   UNL     1       3.535   6.463  18.029  0.00  0.00    +0.000 A 
ATOM      3  C   UNL     1       2.504   5.891  18.775  0.00  0.00    +0.000 A 
ATOM      4  C   UNL     1       2.235   4.528  18.646  0.00  0.00    +0.000 A 
ATOM      5  C   UNL     1       2.971   3.733  17.748  0.00  0.00    +0.000 A 
ATOM      6  C   UNL     1       3.995   4.311  16.995  0.00  0.00    +0.000 A 
ATOM      7  C   UNL     1       2.551   2.294  17.580  0.00  0.00    +0.000 C 
ATOM      8  N   UNL     1       2.278   1.609  18.847  0.00  0.00    +0.000 NA
ATOM      9  C   UNL     1       1.686   2.463  19.891  0.00  0.00    +0.000 C 
ATOM     10  C   UNL     1       1.152   3.830  19.429  0.00  0.00    +0.000 C 
ATOM     11  H   UNL     1       3.150   1.220  19.204  0.00  0.00    +0.000 HD
ENDROOT
BRANCH   1  13
ATOM     12  O   UNL     1       5.200   6.789  15.259  0.00  0.00    +0.000 OA
ATOM     13  C   UNL     1       5.386   6.248  16.339  0.00  0.00    +0.000 C 
BRANCH  13  14
ATOM     14  O   UNL     1       6.609   6.076  16.880  0.00  0.00    +0.000 OA
ATOM     15  H   UNL     1       6.693   5.291  17.452  0.00  0.00    +0.000 HD
ENDBRANCH  13  14
ENDBRANCH   1  13
TORSDOF 2
ENDMDL
MODEL 6
REMARK VINA RESULT:      -6.1      1.011      1.021
REMARK  Name = 
REMARK  2 active torsions:
REMARK  status: ('A' for Active; 'I' for Inactive)
REMARK    1  A    between atoms: C_2  and  O_3
REMARK    2  A    between atoms: C_2  and  C_4
REMARK                            x       y       z     vdW  Elec       q    Type
REMARK                         _______ _______ _______ _____ _____    ______ ____
ROOT
ATOM      1  C   UNL     1       5.692   4.758  17.355  0.00  0.00    +0.000 A 
ATOM      2  C   UNL     1       5.502   5.532  18.509  0.00  0.00    +0.000 A 
ATOM      3  C   UNL     1       4.381   5.325  19.312  0.00  0.00    +0.000 A 
ATOM      4  C   UNL     1       3.454   4.342  18.962  0.00  0.00    +0.000 A 
ATOM      5  C   UNL     1       3.624   3.581  17.790  0.00  0.00    +0.000 A 
ATOM      6  C   UNL     1       4.741   3.799  16.982  0.00  0.00    +0.000 A 
ATOM      7  C   UNL     1       2.527   2.616  17.416  0.00  0.00    +0.000 C 
ATOM      8  N   UNL     1       2.039   1.815  18.544  0.00  0.00    +0.000 NA
ATOM      9  C   UNL     1       2.035   2.518  19.838  0.00  0.00    +0.000 C 
ATOM     10  C   UNL     1       2.228   4.042  19.785  0.00  0.00    +0.000 C 
ATOM     11  H   UNL     1       2.621   0.982  18.630  0.00  0.00    +0.000 HD
ENDROOT
BRANCH   1  13
ATOM     12  O   UNL     1       6.808   5.558  15.410  0.00  0.00    +0.000 OA
ATOM     13  C   UNL     1       6.866   4.960  16.473  0.00  0.00    +0.000 C 
BRANCH  13  14
ATOM     14  O   UNL     1       7.992   4.378  16.934  0.00  0.00    +0.000 OA
ATOM     15  H   UNL     1       8.081   3.433  16.712  0.00  0.00    +0.000 HD
ENDBRANCH  13  14
ENDBRANCH   1  13
TORSDOF 2
ENDMDL
MODEL 7
REMARK VINA RESULT:      -6.1      1.009      1.143
REMARK  Name = 
REMARK  2 active torsions:
REMARK  status: ('A' for Active; 'I' for Inactive)
REMARK    1  A    between atoms: C_2  and  O_3
REMARK    2  A    between atoms: C_2  and  C_4
REMARK                            x       y       z     vdW  Elec       q    Type
REMARK                         _______ _______ _______ _____ _____    ______ ____
ROOT
ATOM      1  C   UNL     1       5.699   4.954  18.044  0.00  0.00    +0.000 A 
ATOM      2  C   UNL     1       4.820   6.038  17.903  0.00  0.00    +0.000 A 
ATOM      3  C   UNL     1       3.448   5.815  17.794  0.00  0.00    +0.000 A 
ATOM      4  C   UNL     1       2.957   4.508  17.830  0.00  0.00    +0.000 A 
ATOM      5  C   UNL     1       3.836   3.415  17.942  0.00  0.00    +0.000 A 
ATOM      6  C   UNL     1       5.210   3.641  18.040  0.00  0.00    +0.000 A 
ATOM      7  C   UNL     1       3.245   2.030  17.862  0.00  0.00    +0.000 C 
ATOM      8  N   UNL     1       2.028   1.862  18.664  0.00  0.00    +0.000 NA
ATOM      9  C   UNL     1       1.173   3.058  18.737  0.00  0.00    +0.000 C 
ATOM     10  C   UNL     1       1.489   4.183  17.737  0.00  0.00    +0.000 C 
ATOM     11  H   UNL     1       2.295   1.597  19.612  0.00  0.00    +0.000 HD
ENDROOT
BRANCH   1  13
ATOM     12  O   UNL     1       7.669   6.024  18.846  0.00  0.00    +0.000 OA
ATOM     13  C   UNL     1       7.163   5.155  18.151  0.00  0.00    +0.000 C 
BRANCH  13  14
ATOM     14  O   UNL     1       7.880   4.320  17.372  0.00  0.00    +0.000 OA
ATOM     15  H   UNL     1       8.789   4.156  17.683  0.00  0.00    +0.000 HD
ENDBRANCH  13  14
ENDBRANCH   1  13
TORSDOF 2
ENDMDL
MODEL 8
REMARK VINA RESULT:      -6.0      2.019      2.367
REMARK  Name = 
REMARK  2 active torsions:
REMARK  status: ('A' for Active; 'I' for Inactive)
REMARK    1  A    between atoms: C_2  and  O_3
REMARK    2  A    between atoms: C_2  and  C_4
REMARK                            x       y       z     vdW  Elec       q    Type
REMARK                         _______ _______ _______ _____ _____    ______ ____
ROOT
ATOM      1  C   UNL     1       6.325   5.322  18.569  0.00  0.00    +0.000 A 
ATOM      2  C   UNL     1       6.190   5.137  17.185  0.00  0.00    +0.000 A 
ATOM      3  C   UNL     1       5.039   4.540  16.669  0.00  0.00    +0.000 A 
ATOM      4  C   UNL     1       4.025   4.133  17.538  0.00  0.00    +0.000 A 
ATOM      5  C   UNL     1       4.167   4.290  18.930  0.00  0.00    +0.000 A 
ATOM      6  C   UNL     1       5.325   4.878  19.443  0.00  0.00    +0.000 A 
ATOM      7  C   UNL     1       3.082   3.727  19.813  0.00  0.00    +0.000 C 
ATOM      8  N   UNL     1       1.726   4.033  19.345  0.00  0.00    +0.000 NA
ATOM      9  C   UNL     1       1.578   4.076  17.880  0.00  0.00    +0.000 C 
ATOM     10  C   UNL     1       2.744   3.499  17.062  0.00  0.00    +0.000 C 
ATOM     11  H   UNL     1       1.444   4.936  19.726  0.00  0.00    +0.000 HD
ENDROOT
BRANCH   1  13
ATOM     12  O   UNL     1       8.174   6.821  18.588  0.00  0.00    +0.000 OA
ATOM     13  C   UNL     1       7.538   5.942  19.150  0.00  0.00    +0.000 C 
BRANCH  13  14
ATOM     14  O   UNL     1       7.901   5.409  20.336  0.00  0.00    +0.000 OA
ATOM     15  H   UNL     1       8.771   4.970  20.334  0.00  0.00    +0.000 HD
ENDBRANCH  13  14
ENDBRANCH   1  13
TORSDOF 2
ENDMDL
MODEL 9
REMARK VINA RESULT:      -6.0      3.663      4.917
REMARK  Name = 
REMARK  2 active torsions:
REMARK  status: ('A' for Active; 'I' for Inactive)
REMARK    1  A    between atoms: C_2  and  O_3
REMARK    2  A    between atoms: C_2  and  C_4
REMARK                            x       y       z     vdW  Elec       q    Type
REMARK                         _______ _______ _______ _____ _____    ______ ____
ROOT
ATOM      1  C   UNL     1       1.948   3.924  18.775  0.00  0.00    +0.000 A 
ATOM      2  C   UNL     1       2.055   5.205  19.336  0.00  0.00    +0.000 A 
ATOM      3  C   UNL     1       3.066   6.069  18.917  0.00  0.00    +0.000 A 
ATOM      4  C   UNL     1       3.968   5.651  17.937  0.00  0.00    +0.000 A 
ATOM      5  C   UNL     1       3.885   4.357  17.391  0.00  0.00    +0.000 A 
ATOM      6  C   UNL     1       2.877   3.490  17.820  0.00  0.00    +0.000 A 
ATOM      7  C   UNL     1       4.958   3.936  16.419  0.00  0.00    +0.000 C 
ATOM      8  N   UNL     1       5.272   4.955  15.412  0.00  0.00    +0.000 NA
ATOM      9  C   UNL     1       5.175   6.343  15.894  0.00  0.00    +0.000 C 
ATOM     10  C   UNL     1       5.077   6.529  17.417  0.00  0.00    +0.000 C 
ATOM     11  H   UNL     1       4.637   4.841  14.622  0.00  0.00    +0.000 HD
ENDROOT
BRANCH   1  13
ATOM     12  O   UNL     1       0.348   2.193  18.442  0.00  0.00    +0.000 OA
ATOM     13  C   UNL     1       0.892   2.977  19.204  0.00  0.00    +0.000 C 
BRANCH  13  14
ATOM     14  O   UNL     1       0.556   3.099  20.505  0.00  0.00    +0.000 OA
ATOM     15  H   UNL     1       0.522   4.017  20.830  0.00  0.00    +0.000 HD
ENDBRANCH  13  14
ENDBRANCH   1  13
TORSDOF 2
ENDMDL
