MODEL 1
REMARK VINA RESULT:      -8.7      0.000      0.000
REMARK  Name = 
REMARK  7 active torsions:
REMARK  status: ('A' for Active; 'I' for Inactive)
REMARK    1  A    between atoms: C_1  and  C_2
REMARK    2  A    between atoms: C_2  and  C_3
REMARK    3  A    between atoms: C_5  and  C_6
REMARK    4  A    between atoms: C_9  and  C_10
REMARK    5  A    between atoms: C_13  and  C_14
REMARK    6  A    between atoms: N_18  and  C_19
REMARK    7  A    between atoms: C_22  and  C_23
REMARK                            x       y       z     vdW  Elec       q    Type
REMARK                         _______ _______ _______ _____ _____    ______ ____
ROOT
ATOM      1  C   UNL     1       8.423   9.273  18.282  0.00  0.00    +0.000 A 
ATOM      2  N   UNL     1       8.836   8.190  18.962  0.00  0.00    +0.000 NA
ATOM      3  O   UNL     1       8.041   7.159  18.461  0.00  0.00    +0.000 OA
ATOM      4  C   UNL     1       7.222   7.725  17.532  0.00  0.00    +0.000 A 
ATOM      5  N   UNL     1       7.406   9.014  17.392  0.00  0.00    +0.000 NA
ENDROOT
BRANCH   1   9
ATOM      6  C   UNL     1      10.128  13.178  18.705  0.00  0.00    +0.000 A 
ATOM      7  C   UNL     1       9.097  12.951  17.783  0.00  0.00    +0.000 A 
ATOM      8  C   UNL     1       8.542  11.675  17.634  0.00  0.00    +0.000 A 
ATOM      9  C   UNL     1       9.006  10.602  18.404  0.00  0.00    +0.000 A 
ATOM     10  C   UNL     1      10.034  10.831  19.330  0.00  0.00    +0.000 A 
ATOM     11  C   UNL     1      10.587  12.106  19.481  0.00  0.00    +0.000 A 
BRANCH   6  14
ATOM     12  C   UNL     1      10.700  16.635  19.478  0.00  0.00    +0.000 A 
ATOM     13  N   UNL     1       9.970  15.543  19.417  0.00  0.00    +0.000 NA
ATOM     14  C   UNL     1      10.716  14.498  18.896  0.00  0.00    +0.000 A 
ATOM     15  C   UNL     1      12.028  14.814  18.603  0.00  0.00    +0.000 A 
ATOM     16  S   UNL     1      12.331  16.462  18.966  0.00  0.00    +0.000 S 
BRANCH  12  18
ATOM     17  C   UNL     1       8.685  17.913  20.185  0.00  0.00    +0.000 C 
ATOM     18  C   UNL     1      10.184  17.961  19.939  0.00  0.00    +0.000 C 
ENDBRANCH  12  18
ENDBRANCH   6  14
ENDBRANCH   1   9
BRANCH   4  19
ATOM     19  C   UNL     1       6.385   6.817  16.726  0.00  0.00    +0.000 C 
ATOM     20  C   UNL     1       7.115   5.560  16.280  0.00  0.00    +0.000 C 
ATOM     21  C   UNL     1       6.033   4.507  16.270  0.00  0.00    +0.000 C 
ATOM     22  O   UNL     1       6.166   3.438  15.697  0.00  0.00    +0.000 OA
ATOM     23  N   UNL     1       4.951   4.980  17.026  0.00  0.00    +0.000 N 
ATOM     24  C   UNL     1       5.236   6.287  17.564  0.00  0.00    +0.000 C 
BRANCH  23  25
ATOM     25  C   UNL     1       3.825   4.225  17.451  0.00  0.00    +0.000 A 
ATOM     26  C   UNL     1       3.845   2.826  17.478  0.00  0.00    +0.000 A 
ATOM     27  C   UNL     1       2.752   2.093  17.955  0.00  0.00    +0.000 A 
ATOM     28  C   UNL     1       1.599   2.740  18.399  0.00  0.00    +0.000 A 
ATOM     29  C   UNL     1       0.427   1.964  18.919  0.00  0.00    +0.000 C 
ATOM     30  C   UNL     1       1.554   4.134  18.352  0.00  0.00    +0.000 A 
ATOM     31  C   UNL     1       2.655   4.865  17.893  0.00  0.00    +0.000 A 
ENDBRANCH  23  25
ENDBRANCH   4  19
TORSDOF 5
ENDMDL
MODEL 2
REMARK VINA RESULT:      -8.2      6.888     10.936
REMARK  Name = 
REMARK  7 active torsions:
REMARK  status: ('A' for Active; 'I' for Inactive)
REMARK    1  A    between atoms: C_1  and  C_2
REMARK    2  A    between atoms: C_2  and  C_3
REMARK    3  A    between atoms: C_5  and  C_6
REMARK    4  A    between atoms: C_9  and  C_10
REMARK    5  A    between atoms: C_13  and  C_14
REMARK    6  A    between atoms: N_18  and  C_19
REMARK    7  A    between atoms: C_22  and  C_23
REMARK                            x       y       z     vdW  Elec       q    Type
REMARK                         _______ _______ _______ _____ _____    ______ ____
ROOT
ATOM      1  C   UNL     1       2.575   6.596  19.359  0.00  0.00    +0.000 A 
ATOM      2  N   UNL     1       2.345   5.906  20.488  0.00  0.00    +0.000 NA
ATOM      3  O   UNL     1       1.463   6.718  21.201  0.00  0.00    +0.000 OA
ATOM      4  C   UNL     1       1.253   7.822  20.432  0.00  0.00    +0.000 A 
ATOM      5  N   UNL     1       1.916   7.803  19.303  0.00  0.00    +0.000 NA
ENDROOT
BRANCH   1   9
ATOM      6  C   UNL     1       4.949   5.250  16.059  0.00  0.00    +0.000 A 
ATOM      7  C   UNL     1       4.251   4.329  16.852  0.00  0.00    +0.000 A 
ATOM      8  C   UNL     1       3.480   4.763  17.937  0.00  0.00    +0.000 A 
ATOM      9  C   UNL     1       3.393   6.125  18.250  0.00  0.00    +0.000 A 
ATOM     10  C   UNL     1       4.088   7.046  17.453  0.00  0.00    +0.000 A 
ATOM     11  C   UNL     1       4.855   6.613  16.368  0.00  0.00    +0.000 A 
BRANCH   6  14
ATOM     12  C   UNL     1       6.113   3.765  13.008  0.00  0.00    +0.000 A 
ATOM     13  N   UNL     1       5.207   4.026  13.924  0.00  0.00    +0.000 NA
ATOM     14  C   UNL     1       5.747   4.833  14.913  0.00  0.00    +0.000 A 
ATOM     15  C   UNL     1       7.061   5.203  14.704  0.00  0.00    +0.000 A 
ATOM     16  S   UNL     1       7.644   4.509  13.249  0.00  0.00    +0.000 S 
BRANCH  12  18
ATOM     17  C   UNL     1       4.455   3.008  11.314  0.00  0.00    +0.000 C 
ATOM     18  C   UNL     1       5.879   2.873  11.829  0.00  0.00    +0.000 C 
ENDBRANCH  12  18
ENDBRANCH   6  14
ENDBRANCH   1   9
BRANCH   4  19
ATOM     19  C   UNL     1       0.222   8.775  20.883  0.00  0.00    +0.000 C 
ATOM     20  C   UNL     1       0.413   9.234  22.320  0.00  0.00    +0.000 C 
ATOM     21  C   UNL     1      -0.089  10.657  22.307  0.00  0.00    +0.000 C 
ATOM     22  O   UNL     1      -0.363  11.264  23.330  0.00  0.00    +0.000 OA
ATOM     23  N   UNL     1      -0.138  11.095  20.977  0.00  0.00    +0.000 N 
ATOM     24  C   UNL     1       0.315  10.060  20.081  0.00  0.00    +0.000 C 
BRANCH  23  25
ATOM     25  C   UNL     1      -0.344  12.430  20.534  0.00  0.00    +0.000 A 
ATOM     26  C   UNL     1      -1.550  13.102  20.764  0.00  0.00    +0.000 A 
ATOM     27  C   UNL     1      -1.722  14.436  20.377  0.00  0.00    +0.000 A 
ATOM     28  C   UNL     1      -0.698  15.130  19.732  0.00  0.00    +0.000 A 
ATOM     29  C   UNL     1      -0.871  16.561  19.322  0.00  0.00    +0.000 C 
ATOM     30  C   UNL     1       0.500  14.463  19.473  0.00  0.00    +0.000 A 
ATOM     31  C   UNL     1       0.677  13.135  19.876  0.00  0.00    +0.000 A 
ENDBRANCH  23  25
ENDBRANCH   4  19
TORSDOF 5
ENDMDL
MODEL 3
REMARK VINA RESULT:      -8.1      6.944      8.972
REMARK  Name = 
REMARK  7 active torsions:
REMARK  status: ('A' for Active; 'I' for Inactive)
REMARK    1  A    between atoms: C_1  and  C_2
REMARK    2  A    between atoms: C_2  and  C_3
REMARK    3  A    between atoms: C_5  and  C_6
REMARK    4  A    between atoms: C_9  and  C_10
REMARK    5  A    between atoms: C_13  and  C_14
REMARK    6  A    between atoms: N_18  and  C_19
REMARK    7  A    between atoms: C_22  and  C_23
REMARK                            x       y       z     vdW  Elec       q    Type
REMARK                         _______ _______ _______ _____ _____    ______ ____
ROOT
ATOM      1  C   UNL     1       2.329   7.917  18.819  0.00  0.00    +0.000 A 
ATOM      2  N   UNL     1       2.462   6.697  19.366  0.00  0.00    +0.000 NA
ATOM      3  O   UNL     1       3.582   6.165  18.726  0.00  0.00    +0.000 OA
ATOM      4  C   UNL     1       4.010   7.117  17.851  0.00  0.00    +0.000 A 
ATOM      5  N   UNL     1       3.274   8.200  17.860  0.00  0.00    +0.000 NA
ENDROOT
BRANCH   1   9
ATOM      6  C   UNL     1      -0.645  10.756  20.013  0.00  0.00    +0.000 A 
ATOM      7  C   UNL     1      -0.301  10.618  18.662  0.00  0.00    +0.000 A 
ATOM      8  C   UNL     1       0.678   9.697  18.266  0.00  0.00    +0.000 A 
ATOM      9  C   UNL     1       1.328   8.898  19.214  0.00  0.00    +0.000 A 
ATOM     10  C   UNL     1       0.978   9.035  20.566  0.00  0.00    +0.000 A 
ATOM     11  C   UNL     1      -0.000   9.951  20.960  0.00  0.00    +0.000 A 
BRANCH   6  14
ATOM     12  C   UNL     1      -2.769  12.906  21.948  0.00  0.00    +0.000 A 
ATOM     13  N   UNL     1      -1.763  12.075  21.784  0.00  0.00    +0.000 NA
ATOM     14  C   UNL     1      -1.670  11.694  20.455  0.00  0.00    +0.000 A 
ATOM     15  C   UNL     1      -2.599  12.282  19.619  0.00  0.00    +0.000 A 
ATOM     16  S   UNL     1      -3.627  13.318  20.517  0.00  0.00    +0.000 S 
BRANCH  12  18
ATOM     17  C   UNL     1      -3.807  12.394  24.151  0.00  0.00    +0.000 C 
ATOM     18  C   UNL     1      -3.185  13.466  23.272  0.00  0.00    +0.000 C 
ENDBRANCH  12  18
ENDBRANCH   6  14
ENDBRANCH   1   9
BRANCH   4  19
ATOM     19  C   UNL     1       5.287   6.873  17.157  0.00  0.00    +0.000 C 
ATOM     20  C   UNL     1       6.195   5.899  17.890  0.00  0.00    +0.000 C 
ATOM     21  C   UNL     1       6.915   5.178  16.777  0.00  0.00    +0.000 C 
ATOM     22  O   UNL     1       7.928   4.525  16.967  0.00  0.00    +0.000 OA
ATOM     23  N   UNL     1       6.204   5.385  15.586  0.00  0.00    +0.000 N 
ATOM     24  C   UNL     1       5.033   6.193  15.824  0.00  0.00    +0.000 C 
BRANCH  23  25
ATOM     25  C   UNL     1       6.411   4.713  14.352  0.00  0.00    +0.000 A 
ATOM     26  C   UNL     1       7.461   5.058  13.494  0.00  0.00    +0.000 A 
ATOM     27  C   UNL     1       7.693   4.350  12.308  0.00  0.00    +0.000 A 
ATOM     28  C   UNL     1       6.867   3.288  11.939  0.00  0.00    +0.000 A 
ATOM     29  C   UNL     1       7.112   2.520  10.675  0.00  0.00    +0.000 C 
ATOM     30  C   UNL     1       5.800   2.951  12.771  0.00  0.00    +0.000 A 
ATOM     31  C   UNL     1       5.581   3.648  13.965  0.00  0.00    +0.000 A 
ENDBRANCH  23  25
ENDBRANCH   4  19
TORSDOF 5
ENDMDL
MODEL 4
REMARK VINA RESULT:      -8.1      7.402      9.775
REMARK  Name = 
REMARK  7 active torsions:
REMARK  status: ('A' for Active; 'I' for Inactive)
REMARK    1  A    between atoms: C_1  and  C_2
REMARK    2  A    between atoms: C_2  and  C_3
REMARK    3  A    between atoms: C_5  and  C_6
REMARK    4  A    between atoms: C_9  and  C_10
REMARK    5  A    between atoms: C_13  and  C_14
REMARK    6  A    between atoms: N_18  and  C_19
REMARK    7  A    between atoms: C_22  and  C_23
REMARK                            x       y       z     vdW  Elec       q    Type
REMARK                         _______ _______ _______ _____ _____    ______ ____
ROOT
ATOM      1  C   UNL     1       1.080   9.244  19.611  0.00  0.00    +0.000 A 
ATOM      2  N   UNL     1       1.161   9.423  18.282  0.00  0.00    +0.000 NA
ATOM      3  O   UNL     1       2.041   8.425  17.864  0.00  0.00    +0.000 OA
ATOM      4  C   UNL     1       2.408   7.745  18.985  0.00  0.00    +0.000 A 
ATOM      5  N   UNL     1       1.859   8.211  20.079  0.00  0.00    +0.000 NA
ENDROOT
BRANCH   1   9
ATOM      6  C   UNL     1      -1.426  11.553  22.203  0.00  0.00    +0.000 A 
ATOM      7  C   UNL     1      -0.612  10.538  22.725  0.00  0.00    +0.000 A 
ATOM      8  C   UNL     1       0.203   9.774  21.881  0.00  0.00    +0.000 A 
ATOM      9  C   UNL     1       0.219  10.011  20.501  0.00  0.00    +0.000 A 
ATOM     10  C   UNL     1      -0.593  11.030  19.982  0.00  0.00    +0.000 A 
ATOM     11  C   UNL     1      -1.404  11.794  20.824  0.00  0.00    +0.000 A 
BRANCH   6  14
ATOM     12  C   UNL     1      -4.130  12.875  24.157  0.00  0.00    +0.000 A 
ATOM     13  N   UNL     1      -3.552  11.967  23.402  0.00  0.00    +0.000 NA
ATOM     14  C   UNL     1      -2.274  12.377  23.057  0.00  0.00    +0.000 A 
ATOM     15  C   UNL     1      -1.889  13.589  23.597  0.00  0.00    +0.000 A 
ATOM     16  S   UNL     1      -3.163  14.244  24.539  0.00  0.00    +0.000 S 
BRANCH  12  18
ATOM     17  C   UNL     1      -6.537  13.001  23.535  0.00  0.00    +0.000 C 
ATOM     18  C   UNL     1      -5.537  12.774  24.657  0.00  0.00    +0.000 C 
ENDBRANCH  12  18
ENDBRANCH   6  14
ENDBRANCH   1   9
BRANCH   4  19
ATOM     19  C   UNL     1       3.214   6.524  18.803  0.00  0.00    +0.000 C 
ATOM     20  C   UNL     1       2.376   5.279  18.560  0.00  0.00    +0.000 C 
ATOM     21  C   UNL     1       3.230   4.452  17.631  0.00  0.00    +0.000 C 
ATOM     22  O   UNL     1       3.027   3.264  17.438  0.00  0.00    +0.000 OA
ATOM     23  N   UNL     1       4.205   5.287  17.068  0.00  0.00    +0.000 N 
ATOM     24  C   UNL     1       4.057   6.640  17.546  0.00  0.00    +0.000 C 
BRANCH  23  25
ATOM     25  C   UNL     1       5.069   4.966  15.986  0.00  0.00    +0.000 A 
ATOM     26  C   UNL     1       4.603   4.306  14.844  0.00  0.00    +0.000 A 
ATOM     27  C   UNL     1       5.448   4.047  13.759  0.00  0.00    +0.000 A 
ATOM     28  C   UNL     1       6.790   4.427  13.794  0.00  0.00    +0.000 A 
ATOM     29  C   UNL     1       7.701   4.162  12.633  0.00  0.00    +0.000 C 
ATOM     30  C   UNL     1       7.275   5.062  14.938  0.00  0.00    +0.000 A 
ATOM     31  C   UNL     1       6.424   5.336  16.014  0.00  0.00    +0.000 A 
ENDBRANCH  23  25
ENDBRANCH   4  19
TORSDOF 5
ENDMDL
MODEL 5
REMARK VINA RESULT:      -8.0      9.076     11.984
REMARK  Name = 
REMARK  7 active torsions:
REMARK  status: ('A' for Active; 'I' for Inactive)
REMARK    1  A    between atoms: C_1  and  C_2
REMARK    2  A    between atoms: C_2  and  C_3
REMARK    3  A    between atoms: C_5  and  C_6
REMARK    4  A    between atoms: C_9  and  C_10
REMARK    5  A    between atoms: C_13  and  C_14
REMARK    6  A    between atoms: N_18  and  C_19
REMARK    7  A    between atoms: C_22  and  C_23
REMARK                            x       y       z     vdW  Elec       q    Type
REMARK                         _______ _______ _______ _____ _____    ______ ____
ROOT
ATOM      1  C   UNL     1       0.424  10.598  18.813  0.00  0.00    +0.000 A 
ATOM      2  N   UNL     1       0.807  11.800  19.275  0.00  0.00    +0.000 NA
ATOM      3  O   UNL     1      -0.348  12.577  19.181  0.00  0.00    +0.000 OA
ATOM      4  C   UNL     1      -1.313  11.766  18.666  0.00  0.00    +0.000 A 
ATOM      5  N   UNL     1      -0.891  10.552  18.413  0.00  0.00    +0.000 NA
ENDROOT
BRANCH   1   9
ATOM      6  C   UNL     1       2.893   7.103  18.644  0.00  0.00    +0.000 A 
ATOM      7  C   UNL     1       2.154   7.393  19.799  0.00  0.00    +0.000 A 
ATOM      8  C   UNL     1       1.352   8.539  19.863  0.00  0.00    +0.000 A 
ATOM      9  C   UNL     1       1.273   9.415  18.774  0.00  0.00    +0.000 A 
ATOM     10  C   UNL     1       2.010   9.121  17.617  0.00  0.00    +0.000 A 
ATOM     11  C   UNL     1       2.808   7.976  17.552  0.00  0.00    +0.000 A 
BRANCH   6  14
ATOM     12  C   UNL     1       5.167   4.553  17.550  0.00  0.00    +0.000 A 
ATOM     13  N   UNL     1       4.529   5.696  17.432  0.00  0.00    +0.000 NA
ATOM     14  C   UNL     1       3.724   5.911  18.539  0.00  0.00    +0.000 A 
ATOM     15  C   UNL     1       3.799   4.928  19.507  0.00  0.00    +0.000 A 
ATOM     16  S   UNL     1       4.882   3.695  19.012  0.00  0.00    +0.000 S 
BRANCH  12  18
ATOM     17  C   UNL     1       6.808   5.095  15.759  0.00  0.00    +0.000 C 
ATOM     18  C   UNL     1       6.076   3.990  16.503  0.00  0.00    +0.000 C 
ENDBRANCH  12  18
ENDBRANCH   6  14
ENDBRANCH   1   9
BRANCH   4  19
ATOM     19  C   UNL     1      -2.687  12.296  18.617  0.00  0.00    +0.000 C 
ATOM     20  C   UNL     1      -3.714  11.268  18.167  0.00  0.00    +0.000 C 
ATOM     21  C   UNL     1      -4.955  11.646  18.939  0.00  0.00    +0.000 C 
ATOM     22  O   UNL     1      -6.064  11.235  18.637  0.00  0.00    +0.000 OA
ATOM     23  N   UNL     1      -4.577  12.477  20.002  0.00  0.00    +0.000 N 
ATOM     24  C   UNL     1      -3.149  12.677  20.011  0.00  0.00    +0.000 C 
BRANCH  23  25
ATOM     25  C   UNL     1      -5.395  12.879  21.092  0.00  0.00    +0.000 A 
ATOM     26  C   UNL     1      -6.717  13.298  20.902  0.00  0.00    +0.000 A 
ATOM     27  C   UNL     1      -7.535  13.636  21.987  0.00  0.00    +0.000 A 
ATOM     28  C   UNL     1      -7.046  13.581  23.292  0.00  0.00    +0.000 A 
ATOM     29  C   UNL     1      -7.916  13.933  24.461  0.00  0.00    +0.000 C 
ATOM     30  C   UNL     1      -5.721  13.191  23.494  0.00  0.00    +0.000 A 
ATOM     31  C   UNL     1      -4.911  12.837  22.410  0.00  0.00    +0.000 A 
ENDBRANCH  23  25
ENDBRANCH   4  19
TORSDOF 5
ENDMDL
MODEL 6
REMARK VINA RESULT:      -8.0      7.016      8.407
REMARK  Name = 
REMARK  7 active torsions:
REMARK  status: ('A' for Active; 'I' for Inactive)
REMARK    1  A    between atoms: C_1  and  C_2
REMARK    2  A    between atoms: C_2  and  C_3
REMARK    3  A    between atoms: C_5  and  C_6
REMARK    4  A    between atoms: C_9  and  C_10
REMARK    5  A    between atoms: C_13  and  C_14
REMARK    6  A    between atoms: N_18  and  C_19
REMARK    7  A    between atoms: C_22  and  C_23
REMARK                            x       y       z     vdW  Elec       q    Type
REMARK                         _______ _______ _______ _____ _____    ______ ____
ROOT
ATOM      1  C   UNL     1       0.286   9.989  20.722  0.00  0.00    +0.000 A 
ATOM      2  N   UNL     1      -0.281   9.282  21.714  0.00  0.00    +0.000 NA
ATOM      3  O   UNL     1       0.368   8.048  21.656  0.00  0.00    +0.000 OA
ATOM      4  C   UNL     1       1.259   8.133  20.630  0.00  0.00    +0.000 A 
ATOM      5  N   UNL     1       1.241   9.292  20.020  0.00  0.00    +0.000 NA
ENDROOT
BRANCH   1   9
ATOM      6  C   UNL     1      -0.543  14.087  19.797  0.00  0.00    +0.000 A 
ATOM      7  C   UNL     1      -0.449  13.667  21.131  0.00  0.00    +0.000 A 
ATOM      8  C   UNL     1      -0.186  12.327  21.439  0.00  0.00    +0.000 A 
ATOM      9  C   UNL     1      -0.013  11.382  20.421  0.00  0.00    +0.000 A 
ATOM     10  C   UNL     1      -0.103  11.805  19.086  0.00  0.00    +0.000 A 
ATOM     11  C   UNL     1      -0.362  13.143  18.778  0.00  0.00    +0.000 A 
BRANCH   6  14
ATOM     12  C   UNL     1      -0.644  17.283  18.170  0.00  0.00    +0.000 A 
ATOM     13  N   UNL     1      -0.306  16.016  18.265  0.00  0.00    +0.000 NA
ATOM     14  C   UNL     1      -0.799  15.477  19.443  0.00  0.00    +0.000 A 
ATOM     15  C   UNL     1      -1.546  16.350  20.210  0.00  0.00    +0.000 A 
ATOM     16  S   UNL     1      -1.614  17.888  19.454  0.00  0.00    +0.000 S 
BRANCH  12  18
ATOM     17  C   UNL     1       1.288  18.191  16.892  0.00  0.00    +0.000 C 
ATOM     18  C   UNL     1      -0.223  18.179  17.048  0.00  0.00    +0.000 C 
ENDBRANCH  12  18
ENDBRANCH   6  14
ENDBRANCH   1   9
BRANCH   4  19
ATOM     19  C   UNL     1       2.199   7.010  20.455  0.00  0.00    +0.000 C 
ATOM     20  C   UNL     1       1.516   5.653  20.415  0.00  0.00    +0.000 C 
ATOM     21  C   UNL     1       2.371   4.853  19.464  0.00  0.00    +0.000 C 
ATOM     22  O   UNL     1       2.311   3.636  19.394  0.00  0.00    +0.000 OA
ATOM     23  N   UNL     1       3.159   5.745  18.723  0.00  0.00    +0.000 N 
ATOM     24  C   UNL     1       2.881   7.108  19.102  0.00  0.00    +0.000 C 
BRANCH  23  25
ATOM     25  C   UNL     1       3.939   5.432  17.577  0.00  0.00    +0.000 A 
ATOM     26  C   UNL     1       4.508   6.431  16.780  0.00  0.00    +0.000 A 
ATOM     27  C   UNL     1       5.324   6.112  15.688  0.00  0.00    +0.000 A 
ATOM     28  C   UNL     1       5.579   4.783  15.352  0.00  0.00    +0.000 A 
ATOM     29  C   UNL     1       6.458   4.432  14.190  0.00  0.00    +0.000 C 
ATOM     30  C   UNL     1       4.996   3.776  16.122  0.00  0.00    +0.000 A 
ATOM     31  C   UNL     1       4.195   4.096  17.224  0.00  0.00    +0.000 A 
ENDBRANCH  23  25
ENDBRANCH   4  19
TORSDOF 5
ENDMDL
MODEL 7
REMARK VINA RESULT:      -8.0      0.751      1.340
REMARK  Name = 
REMARK  7 active torsions:
REMARK  status: ('A' for Active; 'I' for Inactive)
REMARK    1  A    between atoms: C_1  and  C_2
REMARK    2  A    between atoms: C_2  and  C_3
REMARK    3  A    between atoms: C_5  and  C_6
REMARK    4  A    between atoms: C_9  and  C_10
REMARK    5  A    between atoms: C_13  and  C_14
REMARK    6  A    between atoms: N_18  and  C_19
REMARK    7  A    between atoms: C_22  and  C_23
REMARK                            x       y       z     vdW  Elec       q    Type
REMARK                         _______ _______ _______ _____ _____    ______ ____
ROOT
ATOM      1  C   UNL     1       8.455   9.263  18.448  0.00  0.00    +0.000 A 
ATOM      2  N   UNL     1       8.965   8.135  18.971  0.00  0.00    +0.000 NA
ATOM      3  O   UNL     1       8.159   7.127  18.442  0.00  0.00    +0.000 OA
ATOM      4  C   UNL     1       7.237   7.748  17.655  0.00  0.00    +0.000 A 
ATOM      5  N   UNL     1       7.366   9.051  17.633  0.00  0.00    +0.000 NA
ENDROOT
BRANCH   1   9
ATOM      6  C   UNL     1      10.125  13.162  19.023  0.00  0.00    +0.000 A 
ATOM      7  C   UNL     1       9.557  12.470  20.100  0.00  0.00    +0.000 A 
ATOM      8  C   UNL     1       9.002  11.197  19.917  0.00  0.00    +0.000 A 
ATOM      9  C   UNL     1       9.004  10.595  18.653  0.00  0.00    +0.000 A 
ATOM     10  C   UNL     1       9.577  11.288  17.576  0.00  0.00    +0.000 A 
ATOM     11  C   UNL     1      10.134  12.556  17.760  0.00  0.00    +0.000 A 
BRANCH   6  14
ATOM     12  C   UNL     1      10.770  16.692  19.068  0.00  0.00    +0.000 A 
ATOM     13  N   UNL     1      10.023  15.630  18.860  0.00  0.00    +0.000 NA
ATOM     14  C   UNL     1      10.726  14.480  19.184  0.00  0.00    +0.000 A 
ATOM     15  C   UNL     1      11.998  14.700  19.676  0.00  0.00    +0.000 A 
ATOM     16  S   UNL     1      12.333  16.381  19.712  0.00  0.00    +0.000 S 
BRANCH  12  18
ATOM     17  C   UNL     1      10.083  18.278  17.277  0.00  0.00    +0.000 C 
ATOM     18  C   UNL     1      10.337  18.092  18.764  0.00  0.00    +0.000 C 
ENDBRANCH  12  18
ENDBRANCH   6  14
ENDBRANCH   1   9
BRANCH   4  19
ATOM     19  C   UNL     1       6.356   6.893  16.840  0.00  0.00    +0.000 C 
ATOM     20  C   UNL     1       7.057   5.664  16.283  0.00  0.00    +0.000 C 
ATOM     21  C   UNL     1       5.972   4.615  16.265  0.00  0.00    +0.000 C 
ATOM     22  O   UNL     1       6.070   3.582  15.622  0.00  0.00    +0.000 OA
ATOM     23  N   UNL     1       4.932   5.042  17.102  0.00  0.00    +0.000 N 
ATOM     24  C   UNL     1       5.249   6.314  17.702  0.00  0.00    +0.000 C 
BRANCH  23  25
ATOM     25  C   UNL     1       3.826   4.264  17.538  0.00  0.00    +0.000 A 
ATOM     26  C   UNL     1       2.542   4.810  17.650  0.00  0.00    +0.000 A 
ATOM     27  C   UNL     1       1.447   4.021  18.022  0.00  0.00    +0.000 A 
ATOM     28  C   UNL     1       1.610   2.667  18.312  0.00  0.00    +0.000 A 
ATOM     29  C   UNL     1       0.442   1.813  18.704  0.00  0.00    +0.000 C 
ATOM     30  C   UNL     1       2.889   2.115  18.232  0.00  0.00    +0.000 A 
ATOM     31  C   UNL     1       3.979   2.901  17.841  0.00  0.00    +0.000 A 
ENDBRANCH  23  25
ENDBRANCH   4  19
TORSDOF 5
ENDMDL
MODEL 8
REMARK VINA RESULT:      -8.0      0.901      1.017
REMARK  Name = 
REMARK  7 active torsions:
REMARK  status: ('A' for Active; 'I' for Inactive)
REMARK    1  A    between atoms: C_1  and  C_2
REMARK    2  A    between atoms: C_2  and  C_3
REMARK    3  A    between atoms: C_5  and  C_6
REMARK    4  A    between atoms: C_9  and  C_10
REMARK    5  A    between atoms: C_13  and  C_14
REMARK    6  A    between atoms: N_18  and  C_19
REMARK    7  A    between atoms: C_22  and  C_23
REMARK                            x       y       z     vdW  Elec       q    Type
REMARK                         _______ _______ _______ _____ _____    ______ ____
ROOT
ATOM      1  C   UNL     1       8.548   9.179  18.600  0.00  0.00    +0.000 A 
ATOM      2  N   UNL     1       8.988   8.030  19.140  0.00  0.00    +0.000 NA
ATOM      3  O   UNL     1       8.136   7.063  18.606  0.00  0.00    +0.000 OA
ATOM      4  C   UNL     1       7.263   7.727  17.799  0.00  0.00    +0.000 A 
ATOM      5  N   UNL     1       7.463   9.020  17.769  0.00  0.00    +0.000 NA
ENDROOT
BRANCH   1   9
ATOM      6  C   UNL     1      10.323  13.021  19.246  0.00  0.00    +0.000 A 
ATOM      7  C   UNL     1       9.940  12.626  17.957  0.00  0.00    +0.000 A 
ATOM      8  C   UNL     1       9.367  11.367  17.738  0.00  0.00    +0.000 A 
ATOM      9  C   UNL     1       9.166  10.481  18.804  0.00  0.00    +0.000 A 
ATOM     10  C   UNL     1       9.546  10.881  20.094  0.00  0.00    +0.000 A 
ATOM     11  C   UNL     1      10.115  12.138  20.312  0.00  0.00    +0.000 A 
BRANCH   6  14
ATOM     12  C   UNL     1      11.127  16.245  20.602  0.00  0.00    +0.000 A 
ATOM     13  N   UNL     1      10.475  15.104  20.575  0.00  0.00    +0.000 NA
ATOM     14  C   UNL     1      10.906  14.331  19.509  0.00  0.00    +0.000 A 
ATOM     15  C   UNL     1      11.920  14.895  18.759  0.00  0.00    +0.000 A 
ATOM     16  S   UNL     1      12.328  16.438  19.387  0.00  0.00    +0.000 S 
BRANCH  12  18
ATOM     17  C   UNL     1      12.113  17.660  22.396  0.00  0.00    +0.000 C 
ATOM     18  C   UNL     1      10.865  17.336  21.591  0.00  0.00    +0.000 C 
ENDBRANCH  12  18
ENDBRANCH   6  14
ENDBRANCH   1   9
BRANCH   4  19
ATOM     19  C   UNL     1       6.350   6.913  16.975  0.00  0.00    +0.000 C 
ATOM     20  C   UNL     1       7.028   5.718  16.325  0.00  0.00    +0.000 C 
ATOM     21  C   UNL     1       5.945   4.668  16.295  0.00  0.00    +0.000 C 
ATOM     22  O   UNL     1       6.017   3.672  15.594  0.00  0.00    +0.000 OA
ATOM     23  N   UNL     1       4.939   5.046  17.196  0.00  0.00    +0.000 N 
ATOM     24  C   UNL     1       5.280   6.286  17.850  0.00  0.00    +0.000 C 
BRANCH  23  25
ATOM     25  C   UNL     1       3.852   4.243  17.634  0.00  0.00    +0.000 A 
ATOM     26  C   UNL     1       4.051   3.103  18.421  0.00  0.00    +0.000 A 
ATOM     27  C   UNL     1       2.970   2.352  18.898  0.00  0.00    +0.000 A 
ATOM     28  C   UNL     1       1.659   2.711  18.584  0.00  0.00    +0.000 A 
ATOM     29  C   UNL     1       0.496   1.917  19.098  0.00  0.00    +0.000 C 
ATOM     30  C   UNL     1       1.447   3.830  17.778  0.00  0.00    +0.000 A 
ATOM     31  C   UNL     1       2.528   4.589  17.317  0.00  0.00    +0.000 A 
ENDBRANCH  23  25
ENDBRANCH   4  19
TORSDOF 5
ENDMDL
MODEL 9
REMARK VINA RESULT:      -7.9      8.223     10.429
REMARK  Name = 
REMARK  7 active torsions:
REMARK  status: ('A' for Active; 'I' for Inactive)
REMARK    1  A    between atoms: C_1  and  C_2
REMARK    2  A    between atoms: C_2  and  C_3
REMARK    3  A    between atoms: C_5  and  C_6
REMARK    4  A    between atoms: C_9  and  C_10
REMARK    5  A    between atoms: C_13  and  C_14
REMARK    6  A    between atoms: N_18  and  C_19
REMARK    7  A    between atoms: C_22  and  C_23
REMARK                            x       y       z     vdW  Elec       q    Type
REMARK                         _______ _______ _______ _____ _____    ______ ____
ROOT
ATOM      1  C   UNL     1       0.147  10.195  19.679  0.00  0.00    +0.000 A 
ATOM      2  N   UNL     1       0.266  10.128  18.342  0.00  0.00    +0.000 NA
ATOM      3  O   UNL     1       1.269   9.179  18.144  0.00  0.00    +0.000 OA
ATOM      4  C   UNL     1       1.660   8.772  19.383  0.00  0.00    +0.000 A 
ATOM      5  N   UNL     1       1.015   9.370  20.354  0.00  0.00    +0.000 NA
ENDROOT
BRANCH   1   9
ATOM      6  C   UNL     1      -2.749  12.540  21.788  0.00  0.00    +0.000 A 
ATOM      7  C   UNL     1      -2.740  12.519  20.387  0.00  0.00    +0.000 A 
ATOM      8  C   UNL     1      -1.790  11.761  19.692  0.00  0.00    +0.000 A 
ATOM      9  C   UNL     1      -0.832  11.010  20.384  0.00  0.00    +0.000 A 
ATOM     10  C   UNL     1      -0.846  11.028  21.787  0.00  0.00    +0.000 A 
ATOM     11  C   UNL     1      -1.796  11.782  22.481  0.00  0.00    +0.000 A 
BRANCH   6  14
ATOM     12  C   UNL     1      -5.647  13.601  23.619  0.00  0.00    +0.000 A 
ATOM     13  N   UNL     1      -4.909  12.717  22.984  0.00  0.00    +0.000 NA
ATOM     14  C   UNL     1      -3.734  13.305  22.541  0.00  0.00    +0.000 A 
ATOM     15  C   UNL     1      -3.587  14.634  22.888  0.00  0.00    +0.000 A 
ATOM     16  S   UNL     1      -4.958  15.169  23.767  0.00  0.00    +0.000 S 
BRANCH  12  18
ATOM     17  C   UNL     1      -7.916  12.712  23.115  0.00  0.00    +0.000 C 
ATOM     18  C   UNL     1      -7.006  13.311  24.174  0.00  0.00    +0.000 C 
ENDBRANCH  12  18
ENDBRANCH   6  14
ENDBRANCH   1   9
BRANCH   4  19
ATOM     19  C   UNL     1       2.605   7.643  19.458  0.00  0.00    +0.000 C 
ATOM     20  C   UNL     1       1.928   6.308  19.729  0.00  0.00    +0.000 C 
ATOM     21  C   UNL     1       2.782   5.319  18.975  0.00  0.00    +0.000 C 
ATOM     22  O   UNL     1       2.727   4.117  19.181  0.00  0.00    +0.000 OA
ATOM     23  N   UNL     1       3.560   6.024  18.048  0.00  0.00    +0.000 N 
ATOM     24  C   UNL     1       3.278   7.437  18.114  0.00  0.00    +0.000 C 
BRANCH  23  25
ATOM     25  C   UNL     1       4.336   5.465  16.997  0.00  0.00    +0.000 A 
ATOM     26  C   UNL     1       4.495   4.082  16.857  0.00  0.00    +0.000 A 
ATOM     27  C   UNL     1       5.210   3.538  15.784  0.00  0.00    +0.000 A 
ATOM     28  C   UNL     1       5.804   4.365  14.830  0.00  0.00    +0.000 A 
ATOM     29  C   UNL     1       6.565   3.791  13.673  0.00  0.00    +0.000 C 
ATOM     30  C   UNL     1       5.677   5.747  14.972  0.00  0.00    +0.000 A 
ATOM     31  C   UNL     1       4.945   6.288  16.036  0.00  0.00    +0.000 A 
ENDBRANCH  23  25
ENDBRANCH   4  19
TORSDOF 5
ENDMDL
