MODEL 1
REMARK VINA RESULT:      -7.5      0.000      0.000
REMARK  Name = 
REMARK  6 active torsions:
REMARK  status: ('A' for Active; 'I' for Inactive)
REMARK    1  A    between atoms: N_1  and  S_2
REMARK    2  A    between atoms: S_2  and  C_5
REMARK    3  A    between atoms: C_8  and  N_9
REMARK    4  A    between atoms: C_10  and  C_12
REMARK    5  A    between atoms: CA_16  and  C_17
REMARK    6  A    between atoms: C_17  and  OXT_19
REMARK                            x       y       z     vdW  Elec       q    Type
REMARK                         _______ _______ _______ _____ _____    ______ ____
ROOT
ATOM      1  N   UNL     1       2.591   7.733  18.658  0.00  0.00    +0.000 N 
ATOM      2  C   UNL     1       2.016   8.923  18.228  0.00  0.00    +0.000 C 
ATOM      3  O   UNL     1       2.273   9.499  17.169  0.00  0.00    +0.000 OA
ATOM      4  H   UNL     1       2.197   7.314  19.495  0.00  0.00    +0.000 HD
ENDROOT
BRANCH   1   8
ATOM      5  C   UNL     1       5.499   5.466  16.609  0.00  0.00    +0.000 A 
ATOM      6  C   UNL     1       5.752   6.807  16.898  0.00  0.00    +0.000 A 
ATOM      7  C   UNL     1       4.802   7.562  17.581  0.00  0.00    +0.000 A 
ATOM      8  C   UNL     1       3.587   6.996  17.974  0.00  0.00    +0.000 A 
ATOM      9  C   UNL     1       3.358   5.642  17.685  0.00  0.00    +0.000 A 
ATOM     10  F   UNL     1       2.196   5.076  18.047  0.00  0.00    +0.000 F 
ATOM     11  C   UNL     1       4.299   4.871  16.999  0.00  0.00    +0.000 A 
BRANCH   5  12
ATOM     12  S   UNL     1       6.729   4.546  15.738  0.00  0.00    +0.000 S 
ATOM     13  O   UNL     1       7.420   5.439  14.841  0.00  0.00    +0.000 OA
ATOM     14  O   UNL     1       6.166   3.287  15.308  0.00  0.00    +0.000 OA
BRANCH  12  15
ATOM     15  N   UNL     1       7.806   4.147  16.961  0.00  0.00    +0.000 NA
ATOM     16  H   UNL     1       7.797   4.890  17.665  0.00  0.00    +0.000 HD
ATOM     17  H   UNL     1       8.738   3.984  16.571  0.00  0.00    +0.000 HD
ENDBRANCH  12  15
ENDBRANCH   5  12
ENDBRANCH   1   8
BRANCH   2  18
ATOM     18  C   UNL     1       0.981   9.511  19.119  0.00  0.00    +0.000 A 
ATOM     19  C   UNL     1      -0.013  10.307  18.542  0.00  0.00    +0.000 A 
ATOM     20  C   UNL     1      -1.034  10.795  19.347  0.00  0.00    +0.000 A 
ATOM     21  C   UNL     1      -1.033  10.481  20.698  0.00  0.00    +0.000 A 
ATOM     22  CA  UNL     1       0.008   9.698  21.191  0.00  0.00    +0.000 A 
ATOM     23  N   UNL     1       1.037   9.198  20.441  0.00  0.00    +0.000 NA
BRANCH  22  24
ATOM     24  C   UNL     1       0.033   9.343  22.641  0.00  0.00    +0.000 C 
ATOM     25  O   UNL     1       0.829   9.785  23.446  0.00  0.00    +0.000 OA
BRANCH  24  26
ATOM     26  OXT UNL     1      -0.945   8.462  22.937  0.00  0.00    +0.000 OA
ATOM     27  HXT UNL     1      -1.526   8.344  22.154  0.00  0.00    +0.000 HD
ENDBRANCH  24  26
ENDBRANCH  22  24
ENDBRANCH   2  18
TORSDOF 6
ENDMDL
MODEL 2
REMARK VINA RESULT:      -7.1      3.583      8.308
REMARK  Name = 
REMARK  6 active torsions:
REMARK  status: ('A' for Active; 'I' for Inactive)
REMARK    1  A    between atoms: N_1  and  S_2
REMARK    2  A    between atoms: S_2  and  C_5
REMARK    3  A    between atoms: C_8  and  N_9
REMARK    4  A    between atoms: C_10  and  C_12
REMARK    5  A    between atoms: CA_16  and  C_17
REMARK    6  A    between atoms: C_17  and  OXT_19
REMARK                            x       y       z     vdW  Elec       q    Type
REMARK                         _______ _______ _______ _____ _____    ______ ____
ROOT
ATOM      1  N   UNL     1       2.383   7.466  19.154  0.00  0.00    +0.000 N 
ATOM      2  C   UNL     1       2.464   6.139  19.559  0.00  0.00    +0.000 C 
ATOM      3  O   UNL     1       1.888   5.653  20.535  0.00  0.00    +0.000 OA
ATOM      4  H   UNL     1       2.816   7.697  18.264  0.00  0.00    +0.000 HD
ENDROOT
BRANCH   1   8
ATOM      5  C   UNL     1       0.186  10.554  21.008  0.00  0.00    +0.000 A 
ATOM      6  C   UNL     1       0.712   9.522  21.786  0.00  0.00    +0.000 A 
ATOM      7  C   UNL     1       1.445   8.503  21.185  0.00  0.00    +0.000 A 
ATOM      8  C   UNL     1       1.654   8.490  19.804  0.00  0.00    +0.000 A 
ATOM      9  C   UNL     1       1.128   9.545  19.041  0.00  0.00    +0.000 A 
ATOM     10  F   UNL     1       1.311   9.554  17.711  0.00  0.00    +0.000 F 
ATOM     11  C   UNL     1       0.389  10.574  19.627  0.00  0.00    +0.000 A 
BRANCH   5  12
ATOM     12  S   UNL     1      -0.741  11.824  21.809  0.00  0.00    +0.000 S 
ATOM     13  O   UNL     1      -1.984  12.002  21.099  0.00  0.00    +0.000 OA
ATOM     14  O   UNL     1       0.138  12.924  22.132  0.00  0.00    +0.000 OA
BRANCH  12  15
ATOM     15  N   UNL     1      -1.114  11.116  23.284  0.00  0.00    +0.000 NA
ATOM     16  H   UNL     1      -1.440  11.842  23.926  0.00  0.00    +0.000 HD
ATOM     17  H   UNL     1      -0.306  10.603  23.643  0.00  0.00    +0.000 HD
ENDBRANCH  12  15
ENDBRANCH   5  12
ENDBRANCH   1   8
BRANCH   2  18
ATOM     18  C   UNL     1       3.290   5.242  18.708  0.00  0.00    +0.000 A 
ATOM     19  C   UNL     1       2.634   4.364  17.842  0.00  0.00    +0.000 A 
ATOM     20  C   UNL     1       3.390   3.580  16.980  0.00  0.00    +0.000 A 
ATOM     21  C   UNL     1       4.772   3.690  17.009  0.00  0.00    +0.000 A 
ATOM     22  CA  UNL     1       5.342   4.577  17.919  0.00  0.00    +0.000 A 
ATOM     23  N   UNL     1       4.642   5.366  18.790  0.00  0.00    +0.000 NA
BRANCH  22  24
ATOM     24  C   UNL     1       6.828   4.718  17.971  0.00  0.00    +0.000 C 
ATOM     25  O   UNL     1       7.562   4.643  17.005  0.00  0.00    +0.000 OA
BRANCH  24  26
ATOM     26  OXT UNL     1       7.246   4.937  19.235  0.00  0.00    +0.000 OA
ATOM     27  HXT UNL     1       6.501   5.292  19.768  0.00  0.00    +0.000 HD
ENDBRANCH  24  26
ENDBRANCH  22  24
ENDBRANCH   2  18
TORSDOF 6
ENDMDL
MODEL 3
REMARK VINA RESULT:      -7.1      1.836      2.334
REMARK  Name = 
REMARK  6 active torsions:
REMARK  status: ('A' for Active; 'I' for Inactive)
REMARK    1  A    between atoms: N_1  and  S_2
REMARK    2  A    between atoms: S_2  and  C_5
REMARK    3  A    between atoms: C_8  and  N_9
REMARK    4  A    between atoms: C_10  and  C_12
REMARK    5  A    between atoms: CA_16  and  C_17
REMARK    6  A    between atoms: C_17  and  OXT_19
REMARK                            x       y       z     vdW  Elec       q    Type
REMARK                         _______ _______ _______ _____ _____    ______ ____
ROOT
ATOM      1  N   UNL     1       2.565   7.786  18.658  0.00  0.00    +0.000 N 
ATOM      2  C   UNL     1       1.979   8.960  18.201  0.00  0.00    +0.000 C 
ATOM      3  O   UNL     1       2.223   9.510  17.125  0.00  0.00    +0.000 OA
ATOM      4  H   UNL     1       2.181   7.387  19.509  0.00  0.00    +0.000 HD
ENDROOT
BRANCH   1   8
ATOM      5  C   UNL     1       5.473   5.487  16.644  0.00  0.00    +0.000 A 
ATOM      6  C   UNL     1       5.736   6.825  16.934  0.00  0.00    +0.000 A 
ATOM      7  C   UNL     1       4.787   7.591  17.606  0.00  0.00    +0.000 A 
ATOM      8  C   UNL     1       3.561   7.038  17.986  0.00  0.00    +0.000 A 
ATOM      9  C   UNL     1       3.322   5.686  17.695  0.00  0.00    +0.000 A 
ATOM     10  F   UNL     1       2.149   5.133  18.045  0.00  0.00    +0.000 F 
ATOM     11  C   UNL     1       4.261   4.905  17.021  0.00  0.00    +0.000 A 
BRANCH   5  12
ATOM     12  S   UNL     1       6.702   4.553  15.787  0.00  0.00    +0.000 S 
ATOM     13  O   UNL     1       7.395   5.432  14.878  0.00  0.00    +0.000 OA
ATOM     14  O   UNL     1       6.138   3.289  15.374  0.00  0.00    +0.000 OA
BRANCH  12  15
ATOM     15  N   UNL     1       7.777   4.170  17.017  0.00  0.00    +0.000 NA
ATOM     16  H   UNL     1       7.574   3.224  17.352  0.00  0.00    +0.000 HD
ATOM     17  H   UNL     1       7.728   4.871  17.760  0.00  0.00    +0.000 HD
ENDBRANCH  12  15
ENDBRANCH   5  12
ENDBRANCH   1   8
BRANCH   2  18
ATOM     18  C   UNL     1       0.947   9.565  19.085  0.00  0.00    +0.000 A 
ATOM     19  C   UNL     1       0.805   9.057  20.378  0.00  0.00    +0.000 A 
ATOM     20  C   UNL     1      -0.095   9.666  21.244  0.00  0.00    +0.000 A 
ATOM     21  C   UNL     1      -0.828  10.753  20.796  0.00  0.00    +0.000 A 
ATOM     22  CA  UNL     1      -0.637  11.180  19.484  0.00  0.00    +0.000 A 
ATOM     23  N   UNL     1       0.233  10.613  18.593  0.00  0.00    +0.000 NA
BRANCH  22  24
ATOM     24  C   UNL     1      -1.411  12.351  18.974  0.00  0.00    +0.000 C 
ATOM     25  O   UNL     1      -2.027  13.129  19.677  0.00  0.00    +0.000 OA
BRANCH  24  26
ATOM     26  OXT UNL     1      -1.338  12.428  17.629  0.00  0.00    +0.000 OA
ATOM     27  HXT UNL     1      -2.234  12.595  17.263  0.00  0.00    +0.000 HD
ENDBRANCH  24  26
ENDBRANCH  22  24
ENDBRANCH   2  18
TORSDOF 6
ENDMDL
MODEL 4
REMARK VINA RESULT:      -7.1      4.814      9.242
REMARK  Name = 
REMARK  6 active torsions:
REMARK  status: ('A' for Active; 'I' for Inactive)
REMARK    1  A    between atoms: N_1  and  S_2
REMARK    2  A    between atoms: S_2  and  C_5
REMARK    3  A    between atoms: C_8  and  N_9
REMARK    4  A    between atoms: C_10  and  C_12
REMARK    5  A    between atoms: CA_16  and  C_17
REMARK    6  A    between atoms: C_17  and  OXT_19
REMARK                            x       y       z     vdW  Elec       q    Type
REMARK                         _______ _______ _______ _____ _____    ______ ____
ROOT
ATOM      1  N   UNL     1       4.772   3.831  15.986  0.00  0.00    +0.000 N 
ATOM      2  C   UNL     1       6.082   4.218  15.727  0.00  0.00    +0.000 C 
ATOM      3  O   UNL     1       6.926   4.501  16.580  0.00  0.00    +0.000 OA
ATOM      4  H   UNL     1       4.226   3.514  15.190  0.00  0.00    +0.000 HD
ENDROOT
BRANCH   1   8
ATOM      5  C   UNL     1       2.964   3.604  19.790  0.00  0.00    +0.000 A 
ATOM      6  C   UNL     1       3.428   2.439  19.180  0.00  0.00    +0.000 A 
ATOM      7  C   UNL     1       4.034   2.504  17.928  0.00  0.00    +0.000 A 
ATOM      8  C   UNL     1       4.174   3.724  17.264  0.00  0.00    +0.000 A 
ATOM      9  C   UNL     1       3.712   4.886  17.901  0.00  0.00    +0.000 A 
ATOM     10  F   UNL     1       3.831   6.072  17.281  0.00  0.00    +0.000 F 
ATOM     11  C   UNL     1       3.101   4.840  19.155  0.00  0.00    +0.000 A 
BRANCH   5  12
ATOM     12  S   UNL     1       2.198   3.478  21.376  0.00  0.00    +0.000 S 
ATOM     13  O   UNL     1       2.076   4.802  21.933  0.00  0.00    +0.000 OA
ATOM     14  O   UNL     1       2.785   2.375  22.102  0.00  0.00    +0.000 OA
BRANCH  12  15
ATOM     15  N   UNL     1       0.649   2.966  20.982  0.00  0.00    +0.000 NA
ATOM     16  H   UNL     1      -0.004   3.736  21.143  0.00  0.00    +0.000 HD
ATOM     17  H   UNL     1       0.409   2.126  21.515  0.00  0.00    +0.000 HD
ENDBRANCH  12  15
ENDBRANCH   5  12
ENDBRANCH   1   8
BRANCH   2  18
ATOM     18  C   UNL     1       6.486   4.249  14.296  0.00  0.00    +0.000 A 
ATOM     19  C   UNL     1       7.404   5.222  13.890  0.00  0.00    +0.000 A 
ATOM     20  C   UNL     1       7.855   5.213  12.576  0.00  0.00    +0.000 A 
ATOM     21  C   UNL     1       7.378   4.243  11.708  0.00  0.00    +0.000 A 
ATOM     22  CA  UNL     1       6.449   3.325  12.194  0.00  0.00    +0.000 A 
ATOM     23  N   UNL     1       5.971   3.295  13.475  0.00  0.00    +0.000 NA
BRANCH  22  24
ATOM     24  C   UNL     1       5.920   2.267  11.282  0.00  0.00    +0.000 C 
ATOM     25  O   UNL     1       6.587   1.368  10.808  0.00  0.00    +0.000 OA
BRANCH  24  26
ATOM     26  OXT UNL     1       4.602   2.445  11.053  0.00  0.00    +0.000 OA
ATOM     27  HXT UNL     1       4.412   3.406  10.976  0.00  0.00    +0.000 HD
ENDBRANCH  24  26
ENDBRANCH  22  24
ENDBRANCH   2  18
TORSDOF 6
ENDMDL
MODEL 5
REMARK VINA RESULT:      -7.1      3.981      8.455
REMARK  Name = 
REMARK  6 active torsions:
REMARK  status: ('A' for Active; 'I' for Inactive)
REMARK    1  A    between atoms: N_1  and  S_2
REMARK    2  A    between atoms: S_2  and  C_5
REMARK    3  A    between atoms: C_8  and  N_9
REMARK    4  A    between atoms: C_10  and  C_12
REMARK    5  A    between atoms: CA_16  and  C_17
REMARK    6  A    between atoms: C_17  and  OXT_19
REMARK                            x       y       z     vdW  Elec       q    Type
REMARK                         _______ _______ _______ _____ _____    ______ ____
ROOT
ATOM      1  N   UNL     1       2.197   7.677  19.956  0.00  0.00    +0.000 N 
ATOM      2  C   UNL     1       2.091   6.300  20.116  0.00  0.00    +0.000 C 
ATOM      3  O   UNL     1       1.224   5.721  20.773  0.00  0.00    +0.000 OA
ATOM      4  H   UNL     1       2.891   8.006  19.291  0.00  0.00    +0.000 HD
ENDROOT
BRANCH   1   8
ATOM      5  C   UNL     1      -0.360  10.594  21.614  0.00  0.00    +0.000 A 
ATOM      6  C   UNL     1       0.348   9.741  22.460  0.00  0.00    +0.000 A 
ATOM      7  C   UNL     1       1.201   8.780  21.923  0.00  0.00    +0.000 A 
ATOM      8  C   UNL     1       1.350   8.649  20.541  0.00  0.00    +0.000 A 
ATOM      9  C   UNL     1       0.638   9.526  19.708  0.00  0.00    +0.000 A 
ATOM     10  F   UNL     1       0.761   9.417  18.374  0.00  0.00    +0.000 F 
ATOM     11  C   UNL     1      -0.222  10.494  20.228  0.00  0.00    +0.000 A 
BRANCH   5  12
ATOM     12  S   UNL     1      -1.434  11.796  22.335  0.00  0.00    +0.000 S 
ATOM     13  O   UNL     1      -2.093  11.199  23.470  0.00  0.00    +0.000 OA
ATOM     14  O   UNL     1      -2.152  12.484  21.287  0.00  0.00    +0.000 OA
BRANCH  12  15
ATOM     15  N   UNL     1      -0.349  12.926  22.935  0.00  0.00    +0.000 NA
ATOM     16  H   UNL     1      -0.869  13.751  23.246  0.00  0.00    +0.000 HD
ATOM     17  H   UNL     1       0.357  13.148  22.229  0.00  0.00    +0.000 HD
ENDBRANCH  12  15
ENDBRANCH   5  12
ENDBRANCH   1   8
BRANCH   2  18
ATOM     18  C   UNL     1       3.098   5.477  19.395  0.00  0.00    +0.000 A 
ATOM     19  C   UNL     1       3.838   6.082  18.375  0.00  0.00    +0.000 A 
ATOM     20  C   UNL     1       4.840   5.352  17.748  0.00  0.00    +0.000 A 
ATOM     21  C   UNL     1       5.071   4.045  18.151  0.00  0.00    +0.000 A 
ATOM     22  CA  UNL     1       4.272   3.517  19.162  0.00  0.00    +0.000 A 
ATOM     23  N   UNL     1       3.272   4.193  19.806  0.00  0.00    +0.000 NA
BRANCH  22  24
ATOM     24  C   UNL     1       4.501   2.113  19.618  0.00  0.00    +0.000 C 
ATOM     25  O   UNL     1       5.029   1.807  20.669  0.00  0.00    +0.000 OA
BRANCH  24  26
ATOM     26  OXT UNL     1       4.044   1.231  18.705  0.00  0.00    +0.000 OA
ATOM     27  HXT UNL     1       3.266   1.613  18.243  0.00  0.00    +0.000 HD
ENDBRANCH  24  26
ENDBRANCH  22  24
ENDBRANCH   2  18
TORSDOF 6
ENDMDL
MODEL 6
REMARK VINA RESULT:      -7.0      3.878      8.333
REMARK  Name = 
REMARK  6 active torsions:
REMARK  status: ('A' for Active; 'I' for Inactive)
REMARK    1  A    between atoms: N_1  and  S_2
REMARK    2  A    between atoms: S_2  and  C_5
REMARK    3  A    between atoms: C_8  and  N_9
REMARK    4  A    between atoms: C_10  and  C_12
REMARK    5  A    between atoms: CA_16  and  C_17
REMARK    6  A    between atoms: C_17  and  OXT_19
REMARK                            x       y       z     vdW  Elec       q    Type
REMARK                         _______ _______ _______ _____ _____    ______ ____
ROOT
ATOM      1  N   UNL     1       2.215   7.423  19.518  0.00  0.00    +0.000 N 
ATOM      2  C   UNL     1       2.177   6.088  19.901  0.00  0.00    +0.000 C 
ATOM      3  O   UNL     1       1.530   5.633  20.846  0.00  0.00    +0.000 OA
ATOM      4  H   UNL     1       2.698   7.634  18.649  0.00  0.00    +0.000 HD
ENDROOT
BRANCH   1   8
ATOM      5  C   UNL     1       0.195  10.641  21.351  0.00  0.00    +0.000 A 
ATOM      6  C   UNL     1       0.684   9.599  22.139  0.00  0.00    +0.000 A 
ATOM      7  C   UNL     1       1.359   8.536  21.545  0.00  0.00    +0.000 A 
ATOM      8  C   UNL     1       1.546   8.492  20.161  0.00  0.00    +0.000 A 
ATOM      9  C   UNL     1       1.057   9.557  19.389  0.00  0.00    +0.000 A 
ATOM     10  F   UNL     1       1.219   9.535  18.056  0.00  0.00    +0.000 F 
ATOM     11  C   UNL     1       0.377  10.629  19.968  0.00  0.00    +0.000 A 
BRANCH   5  12
ATOM     12  S   UNL     1      -0.659  11.967  22.144  0.00  0.00    +0.000 S 
ATOM     13  O   UNL     1       0.165  13.149  22.077  0.00  0.00    +0.000 OA
ATOM     14  O   UNL     1      -1.242  11.490  23.377  0.00  0.00    +0.000 OA
BRANCH  12  15
ATOM     15  N   UNL     1      -1.961  12.217  21.114  0.00  0.00    +0.000 NA
ATOM     16  H   UNL     1      -2.076  13.223  20.965  0.00  0.00    +0.000 HD
ATOM     17  H   UNL     1      -2.801  11.775  21.494  0.00  0.00    +0.000 HD
ENDBRANCH  12  15
ENDBRANCH   5  12
ENDBRANCH   1   8
BRANCH   2  18
ATOM     18  C   UNL     1       2.962   5.142  19.062  0.00  0.00    +0.000 A 
ATOM     19  C   UNL     1       3.342   5.554  17.782  0.00  0.00    +0.000 A 
ATOM     20  C   UNL     1       4.146   4.717  17.019  0.00  0.00    +0.000 A 
ATOM     21  C   UNL     1       4.541   3.499  17.548  0.00  0.00    +0.000 A 
ATOM     22  CA  UNL     1       4.098   3.161  18.825  0.00  0.00    +0.000 A 
ATOM     23  N   UNL     1       3.304   3.947  19.614  0.00  0.00    +0.000 NA
BRANCH  22  24
ATOM     24  C   UNL     1       4.511   1.856  19.422  0.00  0.00    +0.000 C 
ATOM     25  O   UNL     1       5.034   1.731  20.512  0.00  0.00    +0.000 OA
BRANCH  24  26
ATOM     26  OXT UNL     1       4.227   0.834  18.588  0.00  0.00    +0.000 OA
ATOM     27  HXT UNL     1       4.619   0.006  18.941  0.00  0.00    +0.000 HD
ENDBRANCH  24  26
ENDBRANCH  22  24
ENDBRANCH   2  18
TORSDOF 6
ENDMDL
MODEL 7
REMARK VINA RESULT:      -7.0      3.778      8.354
REMARK  Name = 
REMARK  6 active torsions:
REMARK  status: ('A' for Active; 'I' for Inactive)
REMARK    1  A    between atoms: N_1  and  S_2
REMARK    2  A    between atoms: S_2  and  C_5
REMARK    3  A    between atoms: C_8  and  N_9
REMARK    4  A    between atoms: C_10  and  C_12
REMARK    5  A    between atoms: CA_16  and  C_17
REMARK    6  A    between atoms: C_17  and  OXT_19
REMARK                            x       y       z     vdW  Elec       q    Type
REMARK                         _______ _______ _______ _____ _____    ______ ____
ROOT
ATOM      1  N   UNL     1       2.287   7.339  19.923  0.00  0.00    +0.000 N 
ATOM      2  C   UNL     1       2.055   5.973  20.034  0.00  0.00    +0.000 C 
ATOM      3  O   UNL     1       1.088   5.456  20.596  0.00  0.00    +0.000 OA
ATOM      4  H   UNL     1       3.062   7.622  19.331  0.00  0.00    +0.000 HD
ENDROOT
BRANCH   1   8
ATOM      5  C   UNL     1      -0.169  10.418  21.434  0.00  0.00    +0.000 A 
ATOM      6  C   UNL     1       0.518   9.589  22.322  0.00  0.00    +0.000 A 
ATOM      7  C   UNL     1       1.337   8.575  21.833  0.00  0.00    +0.000 A 
ATOM      8  C   UNL     1       1.474   8.366  20.459  0.00  0.00    +0.000 A 
ATOM      9  C   UNL     1       0.784   9.219  19.584  0.00  0.00    +0.000 A 
ATOM     10  F   UNL     1       0.895   9.036  18.258  0.00  0.00    +0.000 F 
ATOM     11  C   UNL     1      -0.043  10.239  20.056  0.00  0.00    +0.000 A 
BRANCH   5  12
ATOM     12  S   UNL     1      -1.201  11.689  22.095  0.00  0.00    +0.000 S 
ATOM     13  O   UNL     1      -1.757  11.226  23.343  0.00  0.00    +0.000 OA
ATOM     14  O   UNL     1      -2.012  12.243  21.037  0.00  0.00    +0.000 OA
BRANCH  12  15
ATOM     15  N   UNL     1      -0.090  12.890  22.469  0.00  0.00    +0.000 NA
ATOM     16  H   UNL     1      -0.470  13.794  22.176  0.00  0.00    +0.000 HD
ATOM     17  H   UNL     1       0.813  12.682  22.036  0.00  0.00    +0.000 HD
ENDBRANCH  12  15
ENDBRANCH   5  12
ENDBRANCH   1   8
BRANCH   2  18
ATOM     18  C   UNL     1       3.051   5.083  19.380  0.00  0.00    +0.000 A 
ATOM     19  C   UNL     1       2.580   4.055  18.560  0.00  0.00    +0.000 A 
ATOM     20  C   UNL     1       3.498   3.268  17.875  0.00  0.00    +0.000 A 
ATOM     21  C   UNL     1       4.851   3.524  18.032  0.00  0.00    +0.000 A 
ATOM     22  CA  UNL     1       5.231   4.556  18.886  0.00  0.00    +0.000 A 
ATOM     23  N   UNL     1       4.368   5.356  19.585  0.00  0.00    +0.000 NA
BRANCH  22  24
ATOM     24  C   UNL     1       6.682   4.856  19.072  0.00  0.00    +0.000 C 
ATOM     25  O   UNL     1       7.136   5.537  19.972  0.00  0.00    +0.000 OA
BRANCH  24  26
ATOM     26  OXT UNL     1       7.422   4.273  18.107  0.00  0.00    +0.000 OA
ATOM     27  HXT UNL     1       8.006   4.945  17.693  0.00  0.00    +0.000 HD
ENDBRANCH  24  26
ENDBRANCH  22  24
ENDBRANCH   2  18
TORSDOF 6
ENDMDL
MODEL 8
REMARK VINA RESULT:      -7.0      3.411      8.358
REMARK  Name = 
REMARK  6 active torsions:
REMARK  status: ('A' for Active; 'I' for Inactive)
REMARK    1  A    between atoms: N_1  and  S_2
REMARK    2  A    between atoms: S_2  and  C_5
REMARK    3  A    between atoms: C_8  and  N_9
REMARK    4  A    between atoms: C_10  and  C_12
REMARK    5  A    between atoms: CA_16  and  C_17
REMARK    6  A    between atoms: C_17  and  OXT_19
REMARK                            x       y       z     vdW  Elec       q    Type
REMARK                         _______ _______ _______ _____ _____    ______ ____
ROOT
ATOM      1  N   UNL     1       2.408   7.536  19.073  0.00  0.00    +0.000 N 
ATOM      2  C   UNL     1       2.446   6.170  19.329  0.00  0.00    +0.000 C 
ATOM      3  O   UNL     1       1.799   5.588  20.201  0.00  0.00    +0.000 OA
ATOM      4  H   UNL     1       2.904   7.858  18.247  0.00  0.00    +0.000 HD
ENDROOT
BRANCH   1   8
ATOM      5  C   UNL     1       0.107  10.424  21.112  0.00  0.00    +0.000 A 
ATOM      6  C   UNL     1       0.752   9.423  21.838  0.00  0.00    +0.000 A 
ATOM      7  C   UNL     1       1.521   8.470  21.175  0.00  0.00    +0.000 A 
ATOM      8  C   UNL     1       1.647   8.494  19.784  0.00  0.00    +0.000 A 
ATOM      9  C   UNL     1       1.000   9.517  19.074  0.00  0.00    +0.000 A 
ATOM     10  F   UNL     1       1.101   9.559  17.736  0.00  0.00    +0.000 F 
ATOM     11  C   UNL     1       0.224  10.479  19.722  0.00  0.00    +0.000 A 
BRANCH   5  12
ATOM     12  S   UNL     1      -0.862  11.610  21.990  0.00  0.00    +0.000 S 
ATOM     13  O   UNL     1      -0.995  11.172  23.357  0.00  0.00    +0.000 OA
ATOM     14  O   UNL     1      -1.993  11.997  21.179  0.00  0.00    +0.000 OA
BRANCH  12  15
ATOM     15  N   UNL     1       0.146  12.952  22.001  0.00  0.00    +0.000 NA
ATOM     16  H   UNL     1      -0.150  13.594  21.261  0.00  0.00    +0.000 HD
ATOM     17  H   UNL     1       1.122  12.662  21.904  0.00  0.00    +0.000 HD
ENDBRANCH  12  15
ENDBRANCH   5  12
ENDBRANCH   1   8
BRANCH   2  18
ATOM     18  C   UNL     1       3.320   5.360  18.439  0.00  0.00    +0.000 A 
ATOM     19  C   UNL     1       3.108   3.980  18.383  0.00  0.00    +0.000 A 
ATOM     20  C   UNL     1       3.859   3.221  17.495  0.00  0.00    +0.000 A 
ATOM     21  C   UNL     1       4.799   3.854  16.696  0.00  0.00    +0.000 A 
ATOM     22  CA  UNL     1       4.957   5.231  16.833  0.00  0.00    +0.000 A 
ATOM     23  N   UNL     1       4.246   6.022  17.695  0.00  0.00    +0.000 NA
BRANCH  22  24
ATOM     24  C   UNL     1       5.960   5.941  15.984  0.00  0.00    +0.000 C 
ATOM     25  O   UNL     1       7.162   5.769  16.047  0.00  0.00    +0.000 OA
BRANCH  24  26
ATOM     26  OXT UNL     1       5.353   6.801  15.141  0.00  0.00    +0.000 OA
ATOM     27  HXT UNL     1       4.632   7.269  15.616  0.00  0.00    +0.000 HD
ENDBRANCH  24  26
ENDBRANCH  22  24
ENDBRANCH   2  18
TORSDOF 6
ENDMDL
MODEL 9
REMARK VINA RESULT:      -7.0      3.501      8.355
REMARK  Name = 
REMARK  6 active torsions:
REMARK  status: ('A' for Active; 'I' for Inactive)
REMARK    1  A    between atoms: N_1  and  S_2
REMARK    2  A    between atoms: S_2  and  C_5
REMARK    3  A    between atoms: C_8  and  N_9
REMARK    4  A    between atoms: C_10  and  C_12
REMARK    5  A    between atoms: CA_16  and  C_17
REMARK    6  A    between atoms: C_17  and  OXT_19
REMARK                            x       y       z     vdW  Elec       q    Type
REMARK                         _______ _______ _______ _____ _____    ______ ____
ROOT
ATOM      1  N   UNL     1       2.264   7.478  19.309  0.00  0.00    +0.000 N 
ATOM      2  C   UNL     1       2.325   6.130  19.642  0.00  0.00    +0.000 C 
ATOM      3  O   UNL     1       1.732   5.598  20.583  0.00  0.00    +0.000 OA
ATOM      4  H   UNL     1       2.710   7.753  18.439  0.00  0.00    +0.000 HD
ENDROOT
BRANCH   1   8
ATOM      5  C   UNL     1       0.079  10.483  21.308  0.00  0.00    +0.000 A 
ATOM      6  C   UNL     1       0.646   9.442  22.043  0.00  0.00    +0.000 A 
ATOM      7  C   UNL     1       1.376   8.450  21.394  0.00  0.00    +0.000 A 
ATOM      8  C   UNL     1       1.541   8.474  20.007  0.00  0.00    +0.000 A 
ATOM      9  C   UNL     1       0.972   9.537  19.288  0.00  0.00    +0.000 A 
ATOM     10  F   UNL     1       1.111   9.581  17.953  0.00  0.00    +0.000 F 
ATOM     11  C   UNL     1       0.236  10.539  19.922  0.00  0.00    +0.000 A 
BRANCH   5  12
ATOM     12  S   UNL     1      -0.842  11.718  22.169  0.00  0.00    +0.000 S 
ATOM     13  O   UNL     1       0.002  12.873  22.357  0.00  0.00    +0.000 OA
ATOM     14  O   UNL     1      -1.573  11.101  23.251  0.00  0.00    +0.000 OA
BRANCH  12  15
ATOM     15  N   UNL     1      -2.010  12.142  21.040  0.00  0.00    +0.000 NA
ATOM     16  H   UNL     1      -1.591  12.774  20.353  0.00  0.00    +0.000 HD
ATOM     17  H   UNL     1      -2.822  12.550  21.509  0.00  0.00    +0.000 HD
ENDBRANCH  12  15
ENDBRANCH   5  12
ENDBRANCH   1   8
BRANCH   2  18
ATOM     18  C   UNL     1       3.150   5.271  18.751  0.00  0.00    +0.000 A 
ATOM     19  C   UNL     1       2.510   4.256  18.035  0.00  0.00    +0.000 A 
ATOM     20  C   UNL     1       3.251   3.500  17.135  0.00  0.00    +0.000 A 
ATOM     21  C   UNL     1       4.601   3.773  16.980  0.00  0.00    +0.000 A 
ATOM     22  CA  UNL     1       5.160   4.790  17.749  0.00  0.00    +0.000 A 
ATOM     23  N   UNL     1       4.475   5.559  18.650  0.00  0.00    +0.000 NA
BRANCH  22  24
ATOM     24  C   UNL     1       6.611   5.108  17.601  0.00  0.00    +0.000 C 
ATOM     25  O   UNL     1       7.050   6.044  16.961  0.00  0.00    +0.000 OA
BRANCH  24  26
ATOM     26  OXT UNL     1       7.370   4.216  18.270  0.00  0.00    +0.000 OA
ATOM     27  HXT UNL     1       7.270   4.362  19.236  0.00  0.00    +0.000 HD
ENDBRANCH  24  26
ENDBRANCH  22  24
ENDBRANCH   2  18
TORSDOF 6
ENDMDL
