MODEL 1
REMARK VINA RESULT:      -7.5      0.000      0.000
REMARK  Name = 
REMARK  2 active torsions:
REMARK  status: ('A' for Active; 'I' for Inactive)
REMARK    1  A    between atoms: C_2  and  C_11
REMARK    2  A    between atoms: N_3  and  C_4
REMARK                            x       y       z     vdW  Elec       q    Type
REMARK                         _______ _______ _______ _____ _____    ______ ____
ROOT
ATOM      1  O   UNL     1       2.240   8.789  17.399  0.00  0.00    +0.000 OA
ATOM      2  C   UNL     1       2.180   8.206  18.477  0.00  0.00    +0.000 C 
ATOM      3  N   UNL     1       2.773   6.983  18.754  0.00  0.00    +0.000 N 
ATOM      4  H   UNL     1       2.531   6.574  19.651  0.00  0.00    +0.000 HD
ENDROOT
BRANCH   2   5
ATOM      5  C   UNL     1       1.401   8.757  19.567  0.00  0.00    +0.000 A 
ATOM      6  C   UNL     1       1.270   8.294  20.863  0.00  0.00    +0.000 A 
ATOM      7  C   UNL     1       0.461   9.223  21.552  0.00  0.00    +0.000 A 
ATOM      8  C   UNL     1       0.000   9.351  22.874  0.00  0.00    +0.000 A 
ATOM      9  C   UNL     1      -0.797  10.459  23.196  0.00  0.00    +0.000 A 
ATOM     10  C   UNL     1      -1.141  11.405  22.224  0.00  0.00    +0.000 A 
ATOM     11  C   UNL     1      -0.698  11.286  20.905  0.00  0.00    +0.000 A 
ATOM     12  C   UNL     1       0.109  10.187  20.615  0.00  0.00    +0.000 A 
ATOM     13  O   UNL     1       0.677   9.908  19.405  0.00  0.00    +0.000 OA
ENDBRANCH   2   5
BRANCH   3  14
ATOM     14  C   UNL     1       3.525   6.205  17.848  0.00  0.00    +0.000 A 
ATOM     15  C   UNL     1       3.296   4.839  17.648  0.00  0.00    +0.000 A 
ATOM     16  C   UNL     1       4.120   4.088  16.807  0.00  0.00    +0.000 A 
ATOM     17  C   UNL     1       5.174   4.704  16.145  0.00  0.00    +0.000 A 
ATOM     18 CL   UNL     1       6.220   3.768  15.152  0.00  0.00    +0.000 Cl
ATOM     19  C   UNL     1       5.389   6.073  16.296  0.00  0.00    +0.000 A 
ATOM     20  C   UNL     1       4.559   6.825  17.137  0.00  0.00    +0.000 A 
ENDBRANCH   3  14
TORSDOF 2
ENDMDL
MODEL 2
REMARK VINA RESULT:      -7.5      0.154      1.115
REMARK  Name = 
REMARK  2 active torsions:
REMARK  status: ('A' for Active; 'I' for Inactive)
REMARK    1  A    between atoms: C_2  and  C_11
REMARK    2  A    between atoms: N_3  and  C_4
REMARK                            x       y       z     vdW  Elec       q    Type
REMARK                         _______ _______ _______ _____ _____    ______ ____
ROOT
ATOM      1  O   UNL     1       2.352   8.786  17.429  0.00  0.00    +0.000 OA
ATOM      2  C   UNL     1       2.285   8.208  18.509  0.00  0.00    +0.000 C 
ATOM      3  N   UNL     1       2.909   7.006  18.807  0.00  0.00    +0.000 N 
ATOM      4  H   UNL     1       2.659   6.595  19.702  0.00  0.00    +0.000 HD
ENDROOT
BRANCH   2   5
ATOM      5  C   UNL     1       1.464   8.742  19.577  0.00  0.00    +0.000 A 
ATOM      6  C   UNL     1       1.210   8.209  20.827  0.00  0.00    +0.000 A 
ATOM      7  C   UNL     1       0.413   9.145  21.520  0.00  0.00    +0.000 A 
ATOM      8  C   UNL     1      -0.134   9.222  22.812  0.00  0.00    +0.000 A 
ATOM      9  C   UNL     1      -0.881  10.358  23.152  0.00  0.00    +0.000 A 
ATOM     10  C   UNL     1      -1.093  11.384  22.225  0.00  0.00    +0.000 A 
ATOM     11  C   UNL     1      -0.563  11.318  20.934  0.00  0.00    +0.000 A 
ATOM     12  C   UNL     1       0.192  10.188  20.628  0.00  0.00    +0.000 A 
ATOM     13  O   UNL     1       0.829   9.947  19.443  0.00  0.00    +0.000 OA
ENDBRANCH   2   5
BRANCH   3  14
ATOM     14  C   UNL     1       3.705   6.246  17.924  0.00  0.00    +0.000 A 
ATOM     15  C   UNL     1       4.738   6.802  17.162  0.00  0.00    +0.000 A 
ATOM     16  C   UNL     1       5.443   6.030  16.236  0.00  0.00    +0.000 A 
ATOM     17  C   UNL     1       5.129   4.687  16.077  0.00  0.00    +0.000 A 
ATOM     18 CL   UNL     1       5.961   3.752  14.899  0.00  0.00    +0.000 Cl
ATOM     19  C   UNL     1       4.134   4.104  16.860  0.00  0.00    +0.000 A 
ATOM     20  C   UNL     1       3.431   4.879  17.791  0.00  0.00    +0.000 A 
ENDBRANCH   3  14
TORSDOF 2
ENDMDL
MODEL 3
REMARK VINA RESULT:      -7.4      0.656      1.383
REMARK  Name = 
REMARK  2 active torsions:
REMARK  status: ('A' for Active; 'I' for Inactive)
REMARK    1  A    between atoms: C_2  and  C_11
REMARK    2  A    between atoms: N_3  and  C_4
REMARK                            x       y       z     vdW  Elec       q    Type
REMARK                         _______ _______ _______ _____ _____    ______ ____
ROOT
ATOM      1  O   UNL     1       2.027   8.924  17.220  0.00  0.00    +0.000 OA
ATOM      2  C   UNL     1       2.023   8.500  18.372  0.00  0.00    +0.000 C 
ATOM      3  N   UNL     1       2.640   7.331  18.790  0.00  0.00    +0.000 N 
ATOM      4  H   UNL     1       2.443   7.052  19.747  0.00  0.00    +0.000 HD
ENDROOT
BRANCH   2   5
ATOM      5  C   UNL     1       1.290   9.198  19.408  0.00  0.00    +0.000 A 
ATOM      6  C   UNL     1       0.654  10.423  19.348  0.00  0.00    +0.000 A 
ATOM      7  C   UNL     1       0.024  10.623  20.595  0.00  0.00    +0.000 A 
ATOM      8  C   UNL     1      -0.796  11.622  21.146  0.00  0.00    +0.000 A 
ATOM      9  C   UNL     1      -1.260  11.454  22.459  0.00  0.00    +0.000 A 
ATOM     10  C   UNL     1      -0.903  10.329  23.210  0.00  0.00    +0.000 A 
ATOM     11  C   UNL     1      -0.081   9.331  22.678  0.00  0.00    +0.000 A 
ATOM     12  C   UNL     1       0.349   9.513  21.365  0.00  0.00    +0.000 A 
ATOM     13  O   UNL     1       1.121   8.643  20.649  0.00  0.00    +0.000 OA
ENDBRANCH   2   5
BRANCH   3  14
ATOM     14  C   UNL     1       3.356   6.434  17.970  0.00  0.00    +0.000 A 
ATOM     15  C   UNL     1       3.000   5.088  17.823  0.00  0.00    +0.000 A 
ATOM     16  C   UNL     1       3.788   4.215  17.069  0.00  0.00    +0.000 A 
ATOM     17  C   UNL     1       4.934   4.688  16.442  0.00  0.00    +0.000 A 
ATOM     18 CL   UNL     1       5.930   3.600  15.560  0.00  0.00    +0.000 Cl
ATOM     19  C   UNL     1       5.279   6.034  16.539  0.00  0.00    +0.000 A 
ATOM     20  C   UNL     1       4.485   6.909  17.292  0.00  0.00    +0.000 A 
ENDBRANCH   3  14
TORSDOF 2
ENDMDL
MODEL 4
REMARK VINA RESULT:      -7.3      3.429      7.808
REMARK  Name = 
REMARK  2 active torsions:
REMARK  status: ('A' for Active; 'I' for Inactive)
REMARK    1  A    between atoms: C_2  and  C_11
REMARK    2  A    between atoms: N_3  and  C_4
REMARK                            x       y       z     vdW  Elec       q    Type
REMARK                         _______ _______ _______ _____ _____    ______ ____
ROOT
ATOM      1  O   UNL     1       1.678   6.025  20.707  0.00  0.00    +0.000 OA
ATOM      2  C   UNL     1       2.175   6.732  19.835  0.00  0.00    +0.000 C 
ATOM      3  N   UNL     1       1.935   8.088  19.678  0.00  0.00    +0.000 N 
ATOM      4  H   UNL     1       2.324   8.505  18.837  0.00  0.00    +0.000 HD
ENDROOT
BRANCH   2   5
ATOM      5  C   UNL     1       3.042   6.153  18.828  0.00  0.00    +0.000 A 
ATOM      6  C   UNL     1       3.330   4.823  18.589  0.00  0.00    +0.000 A 
ATOM      7  C   UNL     1       4.167   4.779  17.455  0.00  0.00    +0.000 A 
ATOM      8  C   UNL     1       4.759   3.756  16.695  0.00  0.00    +0.000 A 
ATOM      9  C   UNL     1       5.539   4.116  15.586  0.00  0.00    +0.000 A 
ATOM     10  C   UNL     1       5.738   5.459  15.252  0.00  0.00    +0.000 A 
ATOM     11  C   UNL     1       5.162   6.488  16.003  0.00  0.00    +0.000 A 
ATOM     12  C   UNL     1       4.376   6.103  17.087  0.00  0.00    +0.000 A 
ATOM     13  O   UNL     1       3.695   6.944  17.921  0.00  0.00    +0.000 OA
ENDBRANCH   2   5
BRANCH   3  14
ATOM     14  C   UNL     1       1.079   8.875  20.476  0.00  0.00    +0.000 A 
ATOM     15  C   UNL     1       0.189   9.813  19.941  0.00  0.00    +0.000 A 
ATOM     16  C   UNL     1      -0.579  10.631  20.773  0.00  0.00    +0.000 A 
ATOM     17  C   UNL     1      -0.471  10.506  22.152  0.00  0.00    +0.000 A 
ATOM     18 CL   UNL     1      -1.376  11.551  23.173  0.00  0.00    +0.000 Cl
ATOM     19  C   UNL     1       0.375   9.547  22.703  0.00  0.00    +0.000 A 
ATOM     20  C   UNL     1       1.140   8.724  21.867  0.00  0.00    +0.000 A 
ENDBRANCH   3  14
TORSDOF 2
ENDMDL
MODEL 5
REMARK VINA RESULT:      -7.3      3.514      7.907
REMARK  Name = 
REMARK  2 active torsions:
REMARK  status: ('A' for Active; 'I' for Inactive)
REMARK    1  A    between atoms: C_2  and  C_11
REMARK    2  A    between atoms: N_3  and  C_4
REMARK                            x       y       z     vdW  Elec       q    Type
REMARK                         _______ _______ _______ _____ _____    ______ ____
ROOT
ATOM      1  O   UNL     1       1.718   6.235  20.654  0.00  0.00    +0.000 OA
ATOM      2  C   UNL     1       2.162   6.991  19.796  0.00  0.00    +0.000 C 
ATOM      3  N   UNL     1       1.909   8.353  19.727  0.00  0.00    +0.000 N 
ATOM      4  H   UNL     1       2.247   8.818  18.890  0.00  0.00    +0.000 HD
ENDROOT
BRANCH   2   5
ATOM      5  C   UNL     1       2.973   6.475  18.712  0.00  0.00    +0.000 A 
ATOM      6  C   UNL     1       3.663   7.168  17.735  0.00  0.00    +0.000 A 
ATOM      7  C   UNL     1       4.356   6.212  16.963  0.00  0.00    +0.000 A 
ATOM      8  C   UNL     1       5.246   6.268  15.876  0.00  0.00    +0.000 A 
ATOM      9  C   UNL     1       5.759   5.063  15.374  0.00  0.00    +0.000 A 
ATOM     10  C   UNL     1       5.382   3.834  15.926  0.00  0.00    +0.000 A 
ATOM     11  C   UNL     1       4.492   3.763  17.000  0.00  0.00    +0.000 A 
ATOM     12  C   UNL     1       4.013   4.975  17.494  0.00  0.00    +0.000 A 
ATOM     13  O   UNL     1       3.170   5.128  18.558  0.00  0.00    +0.000 OA
ENDBRANCH   2   5
BRANCH   3  14
ATOM     14  C   UNL     1       1.096   9.088  20.615  0.00  0.00    +0.000 A 
ATOM     15  C   UNL     1       1.102   8.882  21.999  0.00  0.00    +0.000 A 
ATOM     16  C   UNL     1       0.218   9.572  22.832  0.00  0.00    +0.000 A 
ATOM     17  C   UNL     1      -0.672  10.488  22.285  0.00  0.00    +0.000 A 
ATOM     18 CL   UNL     1      -1.795  11.296  23.305  0.00  0.00    +0.000 Cl
ATOM     19  C   UNL     1      -0.661  10.740  20.915  0.00  0.00    +0.000 A 
ATOM     20  C   UNL     1       0.229  10.050  20.082  0.00  0.00    +0.000 A 
ENDBRANCH   3  14
TORSDOF 2
ENDMDL
MODEL 6
REMARK VINA RESULT:      -7.2      0.644      1.764
REMARK  Name = 
REMARK  2 active torsions:
REMARK  status: ('A' for Active; 'I' for Inactive)
REMARK    1  A    between atoms: C_2  and  C_11
REMARK    2  A    between atoms: N_3  and  C_4
REMARK                            x       y       z     vdW  Elec       q    Type
REMARK                         _______ _______ _______ _____ _____    ______ ____
ROOT
ATOM      1  O   UNL     1       2.166   8.933  17.247  0.00  0.00    +0.000 OA
ATOM      2  C   UNL     1       2.144   8.505  18.397  0.00  0.00    +0.000 C 
ATOM      3  N   UNL     1       2.785   7.353  18.828  0.00  0.00    +0.000 N 
ATOM      4  H   UNL     1       2.571   7.065  19.778  0.00  0.00    +0.000 HD
ENDROOT
BRANCH   2   5
ATOM      5  C   UNL     1       1.362   9.176  19.415  0.00  0.00    +0.000 A 
ATOM      6  C   UNL     1       0.598  10.323  19.309  0.00  0.00    +0.000 A 
ATOM      7  C   UNL     1      -0.024  10.521  20.559  0.00  0.00    +0.000 A 
ATOM      8  C   UNL     1      -0.935  11.456  21.080  0.00  0.00    +0.000 A 
ATOM      9  C   UNL     1      -1.352  11.310  22.411  0.00  0.00    +0.000 A 
ATOM     10  C   UNL     1      -0.863  10.270  23.208  0.00  0.00    +0.000 A 
ATOM     11  C   UNL     1       0.049   9.337  22.707  0.00  0.00    +0.000 A 
ATOM     12  C   UNL     1       0.432   9.493  21.376  0.00  0.00    +0.000 A 
ATOM     13  O   UNL     1       1.277   8.672  20.686  0.00  0.00    +0.000 OA
ENDBRANCH   2   5
BRANCH   3  14
ATOM     14  C   UNL     1       3.550   6.482  18.024  0.00  0.00    +0.000 A 
ATOM     15  C   UNL     1       4.664   6.906  17.291  0.00  0.00    +0.000 A 
ATOM     16  C   UNL     1       5.341   6.029  16.441  0.00  0.00    +0.000 A 
ATOM     17  C   UNL     1       4.915   4.711  16.329  0.00  0.00    +0.000 A 
ATOM     18 CL   UNL     1       5.716   3.648  15.242  0.00  0.00    +0.000 Cl
ATOM     19  C   UNL     1       3.837   4.259  17.086  0.00  0.00    +0.000 A 
ATOM     20  C   UNL     1       3.162   5.139  17.942  0.00  0.00    +0.000 A 
ENDBRANCH   3  14
TORSDOF 2
ENDMDL
MODEL 7
REMARK VINA RESULT:      -7.2      3.612      7.928
REMARK  Name = 
REMARK  2 active torsions:
REMARK  status: ('A' for Active; 'I' for Inactive)
REMARK    1  A    between atoms: C_2  and  C_11
REMARK    2  A    between atoms: N_3  and  C_4
REMARK                            x       y       z     vdW  Elec       q    Type
REMARK                         _______ _______ _______ _____ _____    ______ ____
ROOT
ATOM      1  O   UNL     1       1.578   5.758  20.657  0.00  0.00    +0.000 OA
ATOM      2  C   UNL     1       2.277   6.469  19.941  0.00  0.00    +0.000 C 
ATOM      3  N   UNL     1       2.175   7.849  19.849  0.00  0.00    +0.000 N 
ATOM      4  H   UNL     1       2.740   8.280  19.123  0.00  0.00    +0.000 HD
ENDROOT
BRANCH   2   5
ATOM      5  C   UNL     1       3.264   5.878  19.060  0.00  0.00    +0.000 A 
ATOM      6  C   UNL     1       3.096   5.357  17.792  0.00  0.00    +0.000 A 
ATOM      7  C   UNL     1       4.373   4.974  17.330  0.00  0.00    +0.000 A 
ATOM      8  C   UNL     1       4.878   4.434  16.135  0.00  0.00    +0.000 A 
ATOM      9  C   UNL     1       6.256   4.198  16.041  0.00  0.00    +0.000 A 
ATOM     10  C   UNL     1       7.109   4.477  17.114  0.00  0.00    +0.000 A 
ATOM     11  C   UNL     1       6.621   5.007  18.312  0.00  0.00    +0.000 A 
ATOM     12  C   UNL     1       5.250   5.251  18.372  0.00  0.00    +0.000 A 
ATOM     13  O   UNL     1       4.581   5.800  19.429  0.00  0.00    +0.000 OA
ENDBRANCH   2   5
BRANCH   3  14
ATOM     14  C   UNL     1       1.252   8.659  20.544  0.00  0.00    +0.000 A 
ATOM     15  C   UNL     1       0.357   9.519  19.896  0.00  0.00    +0.000 A 
ATOM     16  C   UNL     1      -0.479  10.367  20.626  0.00  0.00    +0.000 A 
ATOM     17  C   UNL     1      -0.438  10.348  22.014  0.00  0.00    +0.000 A 
ATOM     18 CL   UNL     1      -1.430  11.430  22.909  0.00  0.00    +0.000 Cl
ATOM     19  C   UNL     1       0.412   9.465  22.676  0.00  0.00    +0.000 A 
ATOM     20  C   UNL     1       1.248   8.613  21.943  0.00  0.00    +0.000 A 
ENDBRANCH   3  14
TORSDOF 2
ENDMDL
MODEL 8
REMARK VINA RESULT:      -7.1      5.542      8.947
REMARK  Name = 
REMARK  2 active torsions:
REMARK  status: ('A' for Active; 'I' for Inactive)
REMARK    1  A    between atoms: C_2  and  C_11
REMARK    2  A    between atoms: N_3  and  C_4
REMARK                            x       y       z     vdW  Elec       q    Type
REMARK                         _______ _______ _______ _____ _____    ______ ____
ROOT
ATOM      1  O   UNL     1       6.219   4.412  18.487  0.00  0.00    +0.000 OA
ATOM      2  C   UNL     1       5.462   4.243  17.535  0.00  0.00    +0.000 C 
ATOM      3  N   UNL     1       4.138   3.844  17.634  0.00  0.00    +0.000 N 
ATOM      4  H   UNL     1       3.681   3.629  16.752  0.00  0.00    +0.000 HD
ENDROOT
BRANCH   2   5
ATOM      5  C   UNL     1       5.945   4.400  16.178  0.00  0.00    +0.000 A 
ATOM      6  C   UNL     1       6.917   5.254  15.695  0.00  0.00    +0.000 A 
ATOM      7  C   UNL     1       7.070   4.970  14.321  0.00  0.00    +0.000 A 
ATOM      8  C   UNL     1       7.905   5.444  13.294  0.00  0.00    +0.000 A 
ATOM      9  C   UNL     1       7.770   4.885  12.016  0.00  0.00    +0.000 A 
ATOM     10  C   UNL     1       6.818   3.893  11.760  0.00  0.00    +0.000 A 
ATOM     11  C   UNL     1       5.975   3.418  12.769  0.00  0.00    +0.000 A 
ATOM     12  C   UNL     1       6.143   3.975  14.035  0.00  0.00    +0.000 A 
ATOM     13  O   UNL     1       5.454   3.624  15.161  0.00  0.00    +0.000 OA
ENDBRANCH   2   5
BRANCH   3  14
ATOM     14  C   UNL     1       3.447   3.556  18.830  0.00  0.00    +0.000 A 
ATOM     15  C   UNL     1       3.968   2.724  19.827  0.00  0.00    +0.000 A 
ATOM     16  C   UNL     1       3.214   2.396  20.956  0.00  0.00    +0.000 A 
ATOM     17  C   UNL     1       1.934   2.913  21.103  0.00  0.00    +0.000 A 
ATOM     18 CL   UNL     1       0.987   2.466  22.466  0.00  0.00    +0.000 Cl
ATOM     19  C   UNL     1       1.416   3.780  20.143  0.00  0.00    +0.000 A 
ATOM     20  C   UNL     1       2.175   4.111  19.014  0.00  0.00    +0.000 A 
ENDBRANCH   3  14
TORSDOF 2
ENDMDL
MODEL 9
REMARK VINA RESULT:      -7.1      3.617      7.913
REMARK  Name = 
REMARK  2 active torsions:
REMARK  status: ('A' for Active; 'I' for Inactive)
REMARK    1  A    between atoms: C_2  and  C_11
REMARK    2  A    between atoms: N_3  and  C_4
REMARK                            x       y       z     vdW  Elec       q    Type
REMARK                         _______ _______ _______ _____ _____    ______ ____
ROOT
ATOM      1  O   UNL     1       1.489   5.767  20.797  0.00  0.00    +0.000 OA
ATOM      2  C   UNL     1       2.227   6.462  20.105  0.00  0.00    +0.000 C 
ATOM      3  N   UNL     1       2.216   7.848  20.076  0.00  0.00    +0.000 N 
ATOM      4  H   UNL     1       2.800   8.274  19.362  0.00  0.00    +0.000 HD
ENDROOT
BRANCH   2   5
ATOM      5  C   UNL     1       3.162   5.847  19.184  0.00  0.00    +0.000 A 
ATOM      6  C   UNL     1       2.919   5.281  17.948  0.00  0.00    +0.000 A 
ATOM      7  C   UNL     1       4.168   4.891  17.420  0.00  0.00    +0.000 A 
ATOM      8  C   UNL     1       4.602   4.312  16.215  0.00  0.00    +0.000 A 
ATOM      9  C   UNL     1       5.974   4.084  16.042  0.00  0.00    +0.000 A 
ATOM     10  C   UNL     1       6.890   4.407  17.049  0.00  0.00    +0.000 A 
ATOM     11  C   UNL     1       6.473   4.976  18.256  0.00  0.00    +0.000 A 
ATOM     12  C   UNL     1       5.107   5.211  18.394  0.00  0.00    +0.000 A 
ATOM     13  O   UNL     1       4.500   5.792  19.471  0.00  0.00    +0.000 OA
ENDBRANCH   2   5
BRANCH   3  14
ATOM     14  C   UNL     1       1.357   8.684  20.819  0.00  0.00    +0.000 A 
ATOM     15  C   UNL     1       1.367   8.734  22.218  0.00  0.00    +0.000 A 
ATOM     16  C   UNL     1       0.440   9.511  22.916  0.00  0.00    +0.000 A 
ATOM     17  C   UNL     1      -0.498  10.259  22.216  0.00  0.00    +0.000 A 
ATOM     18 CL   UNL     1      -1.672  11.173  23.078  0.00  0.00    +0.000 Cl
ATOM     19  C   UNL     1      -0.494  10.258  20.823  0.00  0.00    +0.000 A 
ATOM     20  C   UNL     1       0.439   9.481  20.125  0.00  0.00    +0.000 A 
ENDBRANCH   3  14
TORSDOF 2
ENDMDL
