MODEL 1
REMARK VINA RESULT:      -9.0      0.000      0.000
REMARK  Name = 
REMARK  4 active torsions:
REMARK  status: ('A' for Active; 'I' for Inactive)
REMARK    1  A    between atoms: C_2  and  C_3
REMARK    2  A    between atoms: C_3  and  O_4
REMARK    3  A    between atoms: C_21  and  C_22
REMARK    4  A    between atoms: C_22  and  C_23
REMARK                            x       y       z     vdW  Elec       q    Type
REMARK                         _______ _______ _______ _____ _____    ______ ____
ROOT
ATOM      1  C   UNL     1       5.383   4.863  17.887  0.00  0.00    +0.000 C 
ATOM      2  C   UNL     1       5.159   6.071  16.905  0.00  0.00    +0.000 C 
ATOM      3  C   UNL     1       3.962   6.670  17.045  0.00  0.00    +0.000 C 
ATOM      4  C   UNL     1       3.518   6.674  18.475  0.00  0.00    +0.000 C 
ATOM      5  C   UNL     1       2.228   7.496  18.754  0.00  0.00    +0.000 C 
ATOM      6  C   UNL     1       2.455   8.865  18.127  0.00  0.00    +0.000 C 
ATOM      7  C   UNL     1       1.204   9.693  18.134  0.00  0.00    +0.000 C 
ATOM      8  C   UNL     1       0.733   9.918  19.537  0.00  0.00    +0.000 C 
ATOM      9  C   UNL     1       0.538  11.211  19.863  0.00  0.00    +0.000 C 
ATOM     10  C   UNL     1       0.230  11.531  21.237  0.00  0.00    +0.000 C 
ATOM     11  O   UNL     1       0.580  12.684  21.698  0.00  0.00    +0.000 OA
ATOM     12  C   UNL     1      -0.461  10.503  22.036  0.00  0.00    +0.000 C 
ATOM     13  C   UNL     1       0.358   9.186  21.940  0.00  0.00    +0.000 C 
ATOM     14  C   UNL     1       0.605   8.676  20.470  0.00  0.00    +0.000 C 
ATOM     15  C   UNL     1       1.859   7.606  20.266  0.00  0.00    +0.000 C 
ATOM     16  C   UNL     1       1.743   6.103  20.724  0.00  0.00    +0.000 C 
ATOM     17  C   UNL     1       3.052   5.077  20.281  0.00  0.00    +0.000 C 
ATOM     18  C   UNL     1       3.612   5.160  18.668  0.00  0.00    +0.000 C 
ENDROOT
BRANCH   1  20
ATOM     19  C   UNL     1       7.900   5.630  18.911  0.00  0.00    +0.000 C 
ATOM     20  C   UNL     1       6.738   5.276  18.438  0.00  0.00    +0.000 C 
ENDBRANCH   1  20
BRANCH   1  21
ATOM     21  O   UNL     1       5.405   3.646  17.185  0.00  0.00    +0.000 OA
ATOM     22  H   UNL     1       4.479   3.361  17.127  0.00  0.00    +0.000 HD
ENDBRANCH   1  21
BRANCH  18  23
ATOM     23  C   UNL     1       2.182   4.455  17.882  0.00  0.00    +0.000 C 
ATOM     24  C   UNL     1       1.428   3.106  18.078  0.00  0.00    +0.000 C 
ENDBRANCH  18  23
TORSDOF 3
ENDMDL
MODEL 2
REMARK VINA RESULT:      -7.6      2.058      7.707
REMARK  Name = 
REMARK  4 active torsions:
REMARK  status: ('A' for Active; 'I' for Inactive)
REMARK    1  A    between atoms: C_2  and  C_3
REMARK    2  A    between atoms: C_3  and  O_4
REMARK    3  A    between atoms: C_21  and  C_22
REMARK    4  A    between atoms: C_22  and  C_23
REMARK                            x       y       z     vdW  Elec       q    Type
REMARK                         _______ _______ _______ _____ _____    ______ ____
ROOT
ATOM      1  C   UNL     1      -1.826  12.649  19.711  0.00  0.00    +0.000 C 
ATOM      2  C   UNL     1      -1.116  12.456  18.320  0.00  0.00    +0.000 C 
ATOM      3  C   UNL     1       0.007  11.719  18.382  0.00  0.00    +0.000 C 
ATOM      4  C   UNL     1      -0.108  10.635  19.408  0.00  0.00    +0.000 C 
ATOM      5  C   UNL     1       1.077   9.628  19.428  0.00  0.00    +0.000 C 
ATOM      6  C   UNL     1       1.259   9.161  17.990  0.00  0.00    +0.000 C 
ATOM      7  C   UNL     1       2.508   8.348  17.825  0.00  0.00    +0.000 C 
ATOM      8  C   UNL     1       2.454   7.125  18.687  0.00  0.00    +0.000 C 
ATOM      9  C   UNL     1       2.667   5.966  18.031  0.00  0.00    +0.000 C 
ATOM     10  C   UNL     1       2.485   4.729  18.753  0.00  0.00    +0.000 C 
ATOM     11  O   UNL     1       2.129   3.676  18.098  0.00  0.00    +0.000 OA
ATOM     12  C   UNL     1       2.709   4.752  20.210  0.00  0.00    +0.000 C 
ATOM     13  C   UNL     1       1.833   5.885  20.814  0.00  0.00    +0.000 C 
ATOM     14  C   UNL     1       2.085   7.310  20.189  0.00  0.00    +0.000 C 
ATOM     15  C   UNL     1       0.876   8.428  20.405  0.00  0.00    +0.000 C 
ATOM     16  C   UNL     1       0.639   9.127  21.797  0.00  0.00    +0.000 C 
ATOM     17  C   UNL     1      -0.528  10.393  21.816  0.00  0.00    +0.000 C 
ATOM     18  C   UNL     1      -0.444  11.565  20.575  0.00  0.00    +0.000 C 
ENDROOT
BRANCH   1  20
ATOM     19  C   UNL     1      -4.434  11.881  18.950  0.00  0.00    +0.000 C 
ATOM     20  C   UNL     1      -3.230  12.236  19.301  0.00  0.00    +0.000 C 
ENDBRANCH   1  20
BRANCH   1  21
ATOM     21  O   UNL     1      -1.732  13.985  20.138  0.00  0.00    +0.000 OA
ATOM     22  H   UNL     1      -1.499  14.497  19.346  0.00  0.00    +0.000 HD
ENDBRANCH   1  21
BRANCH  18  23
ATOM     23  C   UNL     1       1.082  12.330  21.073  0.00  0.00    +0.000 C 
ATOM     24  C   UNL     1       1.686  13.742  20.817  0.00  0.00    +0.000 C 
ENDBRANCH  18  23
TORSDOF 3
ENDMDL
MODEL 3
REMARK VINA RESULT:      -7.4      1.468      3.735
REMARK  Name = 
REMARK  4 active torsions:
REMARK  status: ('A' for Active; 'I' for Inactive)
REMARK    1  A    between atoms: C_2  and  C_3
REMARK    2  A    between atoms: C_3  and  O_4
REMARK    3  A    between atoms: C_21  and  C_22
REMARK    4  A    between atoms: C_22  and  C_23
REMARK                            x       y       z     vdW  Elec       q    Type
REMARK                         _______ _______ _______ _____ _____    ______ ____
ROOT
ATOM      1  C   UNL     1       2.763   3.262  19.363  0.00  0.00    +0.000 C 
ATOM      2  C   UNL     1       2.296   3.665  20.811  0.00  0.00    +0.000 C 
ATOM      3  C   UNL     1       2.427   4.977  21.077  0.00  0.00    +0.000 C 
ATOM      4  C   UNL     1       2.161   5.810  19.862  0.00  0.00    +0.000 C 
ATOM      5  C   UNL     1       2.122   7.343  20.118  0.00  0.00    +0.000 C 
ATOM      6  C   UNL     1       1.166   7.552  21.286  0.00  0.00    +0.000 C 
ATOM      7  C   UNL     1       1.196   8.967  21.780  0.00  0.00    +0.000 C 
ATOM      8  C   UNL     1       0.784   9.910  20.693  0.00  0.00    +0.000 C 
ATOM      9  C   UNL     1      -0.220  10.746  21.025  0.00  0.00    +0.000 C 
ATOM     10  C   UNL     1      -0.782  11.585  19.993  0.00  0.00    +0.000 C 
ATOM     11  O   UNL     1      -2.017  11.944  20.090  0.00  0.00    +0.000 OA
ATOM     12  C   UNL     1       0.100  11.971  18.876  0.00  0.00    +0.000 C 
ATOM     13  C   UNL     1       0.709  10.675  18.272  0.00  0.00    +0.000 C 
ATOM     14  C   UNL     1       1.483   9.773  19.307  0.00  0.00    +0.000 C 
ATOM     15  C   UNL     1       1.707   8.186  18.872  0.00  0.00    +0.000 C 
ATOM     16  C   UNL     1       2.765   7.771  17.782  0.00  0.00    +0.000 C 
ATOM     17  C   UNL     1       3.009   6.080  17.573  0.00  0.00    +0.000 C 
ATOM     18  C   UNL     1       3.209   5.129  18.979  0.00  0.00    +0.000 C 
ENDROOT
BRANCH   1  20
ATOM     19  C   UNL     1       0.469   1.812  18.583  0.00  0.00    +0.000 C 
ATOM     20  C   UNL     1       1.529   2.481  18.943  0.00  0.00    +0.000 C 
ENDBRANCH   1  20
BRANCH   1  21
ATOM     21  O   UNL     1       3.932   2.485  19.415  0.00  0.00    +0.000 OA
ATOM     22  H   UNL     1       4.651   3.074  19.131  0.00  0.00    +0.000 HD
ENDBRANCH   1  21
BRANCH  18  23
ATOM     23  C   UNL     1       4.791   5.770  19.477  0.00  0.00    +0.000 C 
ATOM     24  C   UNL     1       6.248   5.269  19.256  0.00  0.00    +0.000 C 
ENDBRANCH  18  23
TORSDOF 3
ENDMDL
MODEL 4
REMARK VINA RESULT:      -6.7      1.628      7.331
REMARK  Name = 
REMARK  4 active torsions:
REMARK  status: ('A' for Active; 'I' for Inactive)
REMARK    1  A    between atoms: C_2  and  C_3
REMARK    2  A    between atoms: C_3  and  O_4
REMARK    3  A    between atoms: C_21  and  C_22
REMARK    4  A    between atoms: C_22  and  C_23
REMARK                            x       y       z     vdW  Elec       q    Type
REMARK                         _______ _______ _______ _____ _____    ______ ____
ROOT
ATOM      1  C   UNL     1      -0.327  12.362  20.583  0.00  0.00    +0.000 C 
ATOM      2  C   UNL     1      -0.370  11.291  21.734  0.00  0.00    +0.000 C 
ATOM      3  C   UNL     1      -0.218  10.025  21.304  0.00  0.00    +0.000 C 
ATOM      4  C   UNL     1       0.726   9.954  20.144  0.00  0.00    +0.000 C 
ATOM      5  C   UNL     1       1.094   8.512  19.692  0.00  0.00    +0.000 C 
ATOM      6  C   UNL     1       1.533   7.774  20.949  0.00  0.00    +0.000 C 
ATOM      7  C   UNL     1       1.714   6.307  20.696  0.00  0.00    +0.000 C 
ATOM      8  C   UNL     1       2.766   6.080  19.656  0.00  0.00    +0.000 C 
ATOM      9  C   UNL     1       3.752   5.240  20.029  0.00  0.00    +0.000 C 
ATOM     10  C   UNL     1       4.885   5.082  19.147  0.00  0.00    +0.000 C 
ATOM     11  O   UNL     1       6.031   4.780  19.658  0.00  0.00    +0.000 OA
ATOM     12  C   UNL     1       4.659   5.289  17.706  0.00  0.00    +0.000 C 
ATOM     13  C   UNL     1       3.995   6.681  17.516  0.00  0.00    +0.000 C 
ATOM     14  C   UNL     1       2.658   6.882  18.325  0.00  0.00    +0.000 C 
ATOM     15  C   UNL     1       2.183   8.454  18.576  0.00  0.00    +0.000 C 
ATOM     16  C   UNL     1       1.565   9.324  17.417  0.00  0.00    +0.000 C 
ATOM     17  C   UNL     1       0.955  10.867  17.876  0.00  0.00    +0.000 C 
ATOM     18  C   UNL     1      -0.039  10.944  19.265  0.00  0.00    +0.000 C 
ENDROOT
BRANCH   1  20
ATOM     19  C   UNL     1       1.577  14.109  21.722  0.00  0.00    +0.000 C 
ATOM     20  C   UNL     1       0.698  13.302  21.196  0.00  0.00    +0.000 C 
ENDBRANCH   1  20
BRANCH   1  21
ATOM     21  O   UNL     1      -1.591  12.947  20.398  0.00  0.00    +0.000 OA
ATOM     22  H   UNL     1      -1.502  13.866  20.702  0.00  0.00    +0.000 HD
ENDBRANCH   1  21
BRANCH  18  23
ATOM     23  C   UNL     1      -1.438  10.067  18.605  0.00  0.00    +0.000 C 
ATOM     24  C   UNL     1      -2.684  10.528  17.793  0.00  0.00    +0.000 C 
ENDBRANCH  18  23
TORSDOF 3
ENDMDL
MODEL 5
REMARK VINA RESULT:      -6.4      7.741      9.382
REMARK  Name = 
REMARK  4 active torsions:
REMARK  status: ('A' for Active; 'I' for Inactive)
REMARK    1  A    between atoms: C_2  and  C_3
REMARK    2  A    between atoms: C_3  and  O_4
REMARK    3  A    between atoms: C_21  and  C_22
REMARK    4  A    between atoms: C_22  and  C_23
REMARK                            x       y       z     vdW  Elec       q    Type
REMARK                         _______ _______ _______ _____ _____    ______ ____
ROOT
ATOM      1  C   UNL     1       9.847  11.384  18.360  0.00  0.00    +0.000 C 
ATOM      2  C   UNL     1      10.377  11.097  19.813  0.00  0.00    +0.000 C 
ATOM      3  C   UNL     1      10.246  12.138  20.654  0.00  0.00    +0.000 C 
ATOM      4  C   UNL     1       9.000  12.917  20.369  0.00  0.00    +0.000 C 
ATOM      5  C   UNL     1       8.680  14.036  21.400  0.00  0.00    +0.000 C 
ATOM      6  C   UNL     1       8.749  13.378  22.772  0.00  0.00    +0.000 C 
ATOM      7  C   UNL     1       8.671  14.390  23.876  0.00  0.00    +0.000 C 
ATOM      8  C   UNL     1       7.379  15.142  23.808  0.00  0.00    +0.000 C 
ATOM      9  C   UNL     1       6.667  15.139  24.952  0.00  0.00    +0.000 C 
ATOM     10  C   UNL     1       5.340  15.710  24.933  0.00  0.00    +0.000 C 
ATOM     11  O   UNL     1       4.458  15.256  25.758  0.00  0.00    +0.000 OA
ATOM     12  C   UNL     1       5.074  16.779  23.954  0.00  0.00    +0.000 C 
ATOM     13  C   UNL     1       5.476  16.255  22.547  0.00  0.00    +0.000 C 
ATOM     14  C   UNL     1       6.967  15.757  22.437  0.00  0.00    +0.000 C 
ATOM     15  C   UNL     1       7.309  14.743  21.166  0.00  0.00    +0.000 C 
ATOM     16  C   UNL     1       7.423  15.282  19.690  0.00  0.00    +0.000 C 
ATOM     17  C   UNL     1       7.961  14.147  18.513  0.00  0.00    +0.000 C 
ATOM     18  C   UNL     1       9.326  13.193  18.900  0.00  0.00    +0.000 C 
ENDROOT
BRANCH   1  20
ATOM     19  C   UNL     1       8.208   9.104  18.063  0.00  0.00    +0.000 C 
ATOM     20  C   UNL     1       8.965  10.157  18.200  0.00  0.00    +0.000 C 
ENDBRANCH   1  20
BRANCH   1  21
ATOM     21  O   UNL     1      10.910  11.439  17.443  0.00  0.00    +0.000 OA
ATOM     22  H   UNL     1      11.718  11.485  17.981  0.00  0.00    +0.000 HD
ENDBRANCH   1  21
BRANCH  18  23
ATOM     23  C   UNL     1      10.539  14.493  18.881  0.00  0.00    +0.000 C 
ATOM     24  C   UNL     1      12.064  14.508  18.569  0.00  0.00    +0.000 C 
ENDBRANCH  18  23
TORSDOF 3
ENDMDL
MODEL 6
REMARK VINA RESULT:      -6.1      8.745     10.018
REMARK  Name = 
REMARK  4 active torsions:
REMARK  status: ('A' for Active; 'I' for Inactive)
REMARK    1  A    between atoms: C_2  and  C_3
REMARK    2  A    between atoms: C_3  and  O_4
REMARK    3  A    between atoms: C_21  and  C_22
REMARK    4  A    between atoms: C_22  and  C_23
REMARK                            x       y       z     vdW  Elec       q    Type
REMARK                         _______ _______ _______ _____ _____    ______ ____
ROOT
ATOM      1  C   UNL     1      10.694  15.482  17.603  0.00  0.00    +0.000 C 
ATOM      2  C   UNL     1       9.294  16.155  17.854  0.00  0.00    +0.000 C 
ATOM      3  C   UNL     1       8.449  15.398  18.576  0.00  0.00    +0.000 C 
ATOM      4  C   UNL     1       9.180  14.602  19.612  0.00  0.00    +0.000 C 
ATOM      5  C   UNL     1       8.266  13.829  20.605  0.00  0.00    +0.000 C 
ATOM      6  C   UNL     1       7.264  14.846  21.136  0.00  0.00    +0.000 C 
ATOM      7  C   UNL     1       6.184  14.190  21.943  0.00  0.00    +0.000 C 
ATOM      8  C   UNL     1       6.769  13.483  23.125  0.00  0.00    +0.000 C 
ATOM      9  C   UNL     1       6.228  13.827  24.311  0.00  0.00    +0.000 C 
ATOM     10  C   UNL     1       6.832  13.308  25.515  0.00  0.00    +0.000 C 
ATOM     11  O   UNL     1       6.743  13.999  26.601  0.00  0.00    +0.000 OA
ATOM     12  C   UNL     1       7.530  12.013  25.422  0.00  0.00    +0.000 C 
ATOM     13  C   UNL     1       8.570  12.107  24.272  0.00  0.00    +0.000 C 
ATOM     14  C   UNL     1       7.965  12.515  22.875  0.00  0.00    +0.000 C 
ATOM     15  C   UNL     1       9.038  13.119  21.760  0.00  0.00    +0.000 C 
ATOM     16  C   UNL     1      10.052  12.183  21.000  0.00  0.00    +0.000 C 
ATOM     17  C   UNL     1      10.969  12.925  19.747  0.00  0.00    +0.000 C 
ATOM     18  C   UNL     1      10.132  13.914  18.632  0.00  0.00    +0.000 C 
ENDROOT
BRANCH   1  20
ATOM     19  C   UNL     1      12.333  17.626  18.433  0.00  0.00    +0.000 C 
ATOM     20  C   UNL     1      11.576  16.636  18.050  0.00  0.00    +0.000 C 
ENDBRANCH   1  20
BRANCH   1  21
ATOM     21  O   UNL     1      10.850  15.143  16.249  0.00  0.00    +0.000 OA
ATOM     22  H   UNL     1      10.176  14.466  16.069  0.00  0.00    +0.000 HD
ENDBRANCH   1  21
BRANCH  18  23
ATOM     23  C   UNL     1       9.199  12.631  17.829  0.00  0.00    +0.000 C 
ATOM     24  C   UNL     1       7.833  12.631  17.081  0.00  0.00    +0.000 C 
ENDBRANCH  18  23
TORSDOF 3
ENDMDL
MODEL 7
REMARK VINA RESULT:      -6.1      5.063      7.607
REMARK  Name = 
REMARK  4 active torsions:
REMARK  status: ('A' for Active; 'I' for Inactive)
REMARK    1  A    between atoms: C_2  and  C_3
REMARK    2  A    between atoms: C_3  and  O_4
REMARK    3  A    between atoms: C_21  and  C_22
REMARK    4  A    between atoms: C_22  and  C_23
REMARK                            x       y       z     vdW  Elec       q    Type
REMARK                         _______ _______ _______ _____ _____    ______ ____
ROOT
ATOM      1  C   UNL     1      -2.722   9.982  17.531  0.00  0.00    +0.000 C 
ATOM      2  C   UNL     1      -3.266  11.391  17.971  0.00  0.00    +0.000 C 
ATOM      3  C   UNL     1      -2.402  12.096  18.723  0.00  0.00    +0.000 C 
ATOM      4  C   UNL     1      -0.987  11.853  18.301  0.00  0.00    +0.000 C 
ATOM      5  C   UNL     1       0.067  12.756  19.001  0.00  0.00    +0.000 C 
ATOM      6  C   UNL     1      -0.433  14.187  18.846  0.00  0.00    +0.000 C 
ATOM      7  C   UNL     1       0.378  15.149  19.662  0.00  0.00    +0.000 C 
ATOM      8  C   UNL     1       1.810  15.128  19.226  0.00  0.00    +0.000 C 
ATOM      9  C   UNL     1       2.318  16.336  18.909  0.00  0.00    +0.000 C 
ATOM     10  C   UNL     1       3.643  16.391  18.336  0.00  0.00    +0.000 C 
ATOM     11  O   UNL     1       3.932  17.363  17.539  0.00  0.00    +0.000 OA
ATOM     12  C   UNL     1       4.584  15.315  18.694  0.00  0.00    +0.000 C 
ATOM     13  C   UNL     1       3.900  13.954  18.388  0.00  0.00    +0.000 C 
ATOM     14  C   UNL     1       2.514  13.743  19.106  0.00  0.00    +0.000 C 
ATOM     15  C   UNL     1       1.517  12.587  18.450  0.00  0.00    +0.000 C 
ATOM     16  C   UNL     1       1.802  11.049  18.639  0.00  0.00    +0.000 C 
ATOM     17  C   UNL     1       0.584   9.980  18.059  0.00  0.00    +0.000 C 
ATOM     18  C   UNL     1      -1.038  10.333  18.467  0.00  0.00    +0.000 C 
ENDROOT
BRANCH   1  20
ATOM     19  C   UNL     1      -3.265  10.177  14.767  0.00  0.00    +0.000 C 
ATOM     20  C   UNL     1      -3.014  10.087  16.044  0.00  0.00    +0.000 C 
ENDBRANCH   1  20
BRANCH   1  21
ATOM     21  O   UNL     1      -3.428   8.951  18.175  0.00  0.00    +0.000 OA
ATOM     22  H   UNL     1      -2.771   8.261  18.363  0.00  0.00    +0.000 HD
ENDBRANCH   1  21
BRANCH  18  23
ATOM     23  C   UNL     1      -0.923  10.005  20.210  0.00  0.00    +0.000 C 
ATOM     24  C   UNL     1      -0.312   8.826  21.023  0.00  0.00    +0.000 C 
ENDBRANCH  18  23
TORSDOF 3
ENDMDL
MODEL 8
REMARK VINA RESULT:      -6.1      3.296      9.194
REMARK  Name = 
REMARK  4 active torsions:
REMARK  status: ('A' for Active; 'I' for Inactive)
REMARK    1  A    between atoms: C_2  and  C_3
REMARK    2  A    between atoms: C_3  and  O_4
REMARK    3  A    between atoms: C_21  and  C_22
REMARK    4  A    between atoms: C_22  and  C_23
REMARK                            x       y       z     vdW  Elec       q    Type
REMARK                         _______ _______ _______ _____ _____    ______ ____
ROOT
ATOM      1  C   UNL     1      -4.248  13.541  22.163  0.00  0.00    +0.000 C 
ATOM      2  C   UNL     1      -3.684  14.008  20.771  0.00  0.00    +0.000 C 
ATOM      3  C   UNL     1      -2.403  13.660  20.559  0.00  0.00    +0.000 C 
ATOM      4  C   UNL     1      -2.091  12.330  21.171  0.00  0.00    +0.000 C 
ATOM      5  C   UNL     1      -0.681  11.769  20.830  0.00  0.00    +0.000 C 
ATOM      6  C   UNL     1      -0.551  11.847  19.314  0.00  0.00    +0.000 C 
ATOM      7  C   UNL     1       0.844  11.537  18.860  0.00  0.00    +0.000 C 
ATOM      8  C   UNL     1       1.232  10.151  19.271  0.00  0.00    +0.000 C 
ATOM      9  C   UNL     1       1.675   9.371  18.264  0.00  0.00    +0.000 C 
ATOM     10  C   UNL     1       1.929   7.976  18.540  0.00  0.00    +0.000 C 
ATOM     11  O   UNL     1       1.800   7.121  17.583  0.00  0.00    +0.000 OA
ATOM     12  C   UNL     1       2.310   7.614  19.918  0.00  0.00    +0.000 C 
ATOM     13  C   UNL     1       1.237   8.188  20.883  0.00  0.00    +0.000 C 
ATOM     14  C   UNL     1       1.010   9.743  20.758  0.00  0.00    +0.000 C 
ATOM     15  C   UNL     1      -0.425  10.324  21.360  0.00  0.00    +0.000 C 
ATOM     16  C   UNL     1      -0.677  10.454  22.909  0.00  0.00    +0.000 C 
ATOM     17  C   UNL     1      -2.135  11.242  23.373  0.00  0.00    +0.000 C 
ATOM     18  C   UNL     1      -2.527  12.709  22.588  0.00  0.00    +0.000 C 
ENDROOT
BRANCH   1  20
ATOM     19  C   UNL     1      -6.615  12.302  21.252  0.00  0.00    +0.000 C 
ATOM     20  C   UNL     1      -5.522  12.874  21.673  0.00  0.00    +0.000 C 
ENDBRANCH   1  20
BRANCH   1  21
ATOM     21  O   UNL     1      -4.474  14.643  23.005  0.00  0.00    +0.000 OA
ATOM     22  H   UNL     1      -4.209  15.423  22.492  0.00  0.00    +0.000 HD
ENDBRANCH   1  21
BRANCH  18  23
ATOM     23  C   UNL     1      -1.222  13.702  23.275  0.00  0.00    +0.000 C 
ATOM     24  C   UNL     1      -1.225  14.933  24.230  0.00  0.00    +0.000 C 
ENDBRANCH  18  23
TORSDOF 3
ENDMDL
MODEL 9
REMARK VINA RESULT:      -6.1      4.470      8.006
REMARK  Name = 
REMARK  4 active torsions:
REMARK  status: ('A' for Active; 'I' for Inactive)
REMARK    1  A    between atoms: C_2  and  C_3
REMARK    2  A    between atoms: C_3  and  O_4
REMARK    3  A    between atoms: C_21  and  C_22
REMARK    4  A    between atoms: C_22  and  C_23
REMARK                            x       y       z     vdW  Elec       q    Type
REMARK                         _______ _______ _______ _____ _____    ______ ____
ROOT
ATOM      1  C   UNL     1       0.940  10.815  19.415  0.00  0.00    +0.000 C 
ATOM      2  C   UNL     1       0.952  11.519  20.822  0.00  0.00    +0.000 C 
ATOM      3  C   UNL     1      -0.091  12.344  21.026  0.00  0.00    +0.000 C 
ATOM      4  C   UNL     1      -1.334  11.821  20.375  0.00  0.00    +0.000 C 
ATOM      5  C   UNL     1      -2.627  12.620  20.702  0.00  0.00    +0.000 C 
ATOM      6  C   UNL     1      -2.676  12.743  22.220  0.00  0.00    +0.000 C 
ATOM      7  C   UNL     1      -3.761  13.676  22.667  0.00  0.00    +0.000 C 
ATOM      8  C   UNL     1      -5.098  13.179  22.216  0.00  0.00    +0.000 C 
ATOM      9  C   UNL     1      -6.012  13.056  23.200  0.00  0.00    +0.000 C 
ATOM     10  C   UNL     1      -7.280  12.442  22.884  0.00  0.00    +0.000 C 
ATOM     11  O   UNL     1      -7.915  11.816  23.816  0.00  0.00    +0.000 OA
ATOM     12  C   UNL     1      -7.766  12.562  21.497  0.00  0.00    +0.000 C 
ATOM     13  C   UNL     1      -6.647  12.053  20.548  0.00  0.00    +0.000 C 
ATOM     14  C   UNL     1      -5.262  12.786  20.718  0.00  0.00    +0.000 C 
ATOM     15  C   UNL     1      -3.931  11.983  20.131  0.00  0.00    +0.000 C 
ATOM     16  C   UNL     1      -3.643  11.885  18.585  0.00  0.00    +0.000 C 
ATOM     17  C   UNL     1      -2.135  11.183  18.142  0.00  0.00    +0.000 C 
ATOM     18  C   UNL     1      -0.739  11.720  18.969  0.00  0.00    +0.000 C 
ENDROOT
BRANCH   1  20
ATOM     19  C   UNL     1       1.319   8.156  20.286  0.00  0.00    +0.000 C 
ATOM     20  C   UNL     1       1.144   9.384  19.884  0.00  0.00    +0.000 C 
ENDBRANCH   1  20
BRANCH   1  21
ATOM     21  O   UNL     1       1.981  11.299  18.606  0.00  0.00    +0.000 OA
ATOM     22  H   UNL     1       2.268  10.542  18.068  0.00  0.00    +0.000 HD
ENDBRANCH   1  21
BRANCH  18  23
ATOM     23  C   UNL     1      -0.693  13.371  18.313  0.00  0.00    +0.000 C 
ATOM     24  C   UNL     1       0.097  14.648  18.726  0.00  0.00    +0.000 C 
ENDBRANCH  18  23
TORSDOF 3
ENDMDL
