MODEL 1
REMARK VINA RESULT:      -7.4      0.000      0.000
REMARK  Name = 
REMARK  5 active torsions:
REMARK  status: ('A' for Active; 'I' for Inactive)
REMARK    1  A    between atoms: C_2  and  C_14
REMARK    2  A    between atoms: N_3  and  C_4
REMARK    3  A    between atoms: C_4  and  C_5
REMARK    4  A    between atoms: C_5  and  O_6
REMARK    5  A    between atoms: O_6  and  C_7
REMARK                            x       y       z     vdW  Elec       q    Type
REMARK                         _______ _______ _______ _____ _____    ______ ____
ROOT
ATOM      1  O   UNL     1       8.193   4.223  17.250  0.00  0.00    +0.000 OA
ATOM      2  C   UNL     1       7.223   4.737  16.697  0.00  0.00    +0.000 C 
ATOM      3  N   UNL     1       6.323   5.532  17.366  0.00  0.00    +0.000 N 
ATOM      4  H   UNL     1       5.460   5.773  16.899  0.00  0.00    +0.000 HD
ENDROOT
BRANCH   2   5
ATOM      5  C   UNL     1       6.958   4.535  15.290  0.00  0.00    +0.000 A 
ATOM      6  C   UNL     1       6.059   3.731  14.603  0.00  0.00    +0.000 A 
ATOM      7  C   UNL     1       6.239   3.959  13.218  0.00  0.00    +0.000 A 
ATOM      8 CL   UNL     1       5.360   3.205  11.979  0.00  0.00    +0.000 Cl
ATOM      9  C   UNL     1       7.236   4.893  13.076  0.00  0.00    +0.000 A 
ATOM     10  N   UNL     1       7.661   5.237  14.329  0.00  0.00    +0.000 N 
ATOM     11  H   UNL     1       8.383   5.913  14.552  0.00  0.00    +0.000 HD
ENDBRANCH   2   5
BRANCH   3  12
ATOM     12  C   UNL     1       6.426   5.772  18.796  0.00  0.00    +0.000 C 
BRANCH  12  13
ATOM     13  C   UNL     1       5.244   5.180  19.558  0.00  0.00    +0.000 C 
BRANCH  13  14
ATOM     14  O   UNL     1       4.486   4.324  18.697  0.00  0.00    +0.000 OA
BRANCH  14  15
ATOM     15  C   UNL     1       3.225   4.053  19.201  0.00  0.00    +0.000 A 
ATOM     16  N   UNL     1       2.636   4.985  19.992  0.00  0.00    +0.000 NA
ATOM     17  C   UNL     1       1.412   4.697  20.482  0.00  0.00    +0.000 A 
ATOM     18  C   UNL     1       0.733   3.521  20.210  0.00  0.00    +0.000 A 
ATOM     19  C   UNL     1       1.348   2.580  19.388  0.00  0.00    +0.000 A 
ATOM     20  C   UNL     1       2.617   2.842  18.872  0.00  0.00    +0.000 A 
ATOM     21 CL   UNL     1       3.372   1.663  17.868  0.00  0.00    +0.000 Cl
ENDBRANCH  14  15
ENDBRANCH  13  14
ENDBRANCH  12  13
ENDBRANCH   3  12
TORSDOF 5
ENDMDL
MODEL 2
REMARK VINA RESULT:      -7.4      1.451      1.492
REMARK  Name = 
REMARK  5 active torsions:
REMARK  status: ('A' for Active; 'I' for Inactive)
REMARK    1  A    between atoms: C_2  and  C_14
REMARK    2  A    between atoms: N_3  and  C_4
REMARK    3  A    between atoms: C_4  and  C_5
REMARK    4  A    between atoms: C_5  and  O_6
REMARK    5  A    between atoms: O_6  and  C_7
REMARK                            x       y       z     vdW  Elec       q    Type
REMARK                         _______ _______ _______ _____ _____    ______ ____
ROOT
ATOM      1  O   UNL     1       7.479   6.285  15.955  0.00  0.00    +0.000 OA
ATOM      2  C   UNL     1       7.086   5.132  15.792  0.00  0.00    +0.000 C 
ATOM      3  N   UNL     1       6.961   4.237  16.828  0.00  0.00    +0.000 N 
ATOM      4  H   UNL     1       6.806   3.265  16.602  0.00  0.00    +0.000 HD
ENDROOT
BRANCH   2   5
ATOM      5  C   UNL     1       6.728   4.632  14.483  0.00  0.00    +0.000 A 
ATOM      6  C   UNL     1       5.623   3.940  14.005  0.00  0.00    +0.000 A 
ATOM      7  C   UNL     1       5.809   3.726  12.619  0.00  0.00    +0.000 A 
ATOM      8 CL   UNL     1       4.718   2.924  11.597  0.00  0.00    +0.000 Cl
ATOM      9  C   UNL     1       7.013   4.285  12.268  0.00  0.00    +0.000 A 
ATOM     10  N   UNL     1       7.558   4.832  13.396  0.00  0.00    +0.000 N 
ATOM     11  H   UNL     1       8.442   5.327  13.455  0.00  0.00    +0.000 HD
ENDBRANCH   2   5
BRANCH   3  12
ATOM     12  C   UNL     1       7.344   4.580  18.187  0.00  0.00    +0.000 C 
BRANCH  12  13
ATOM     13  C   UNL     1       6.135   4.940  19.045  0.00  0.00    +0.000 C 
BRANCH  13  14
ATOM     14  O   UNL     1       5.290   3.796  19.204  0.00  0.00    +0.000 OA
BRANCH  14  15
ATOM     15  C   UNL     1       4.015   4.009  18.708  0.00  0.00    +0.000 A 
ATOM     16  N   UNL     1       3.581   5.288  18.581  0.00  0.00    +0.000 NA
ATOM     17  C   UNL     1       2.332   5.474  18.105  0.00  0.00    +0.000 A 
ATOM     18  C   UNL     1       1.489   4.440  17.735  0.00  0.00    +0.000 A 
ATOM     19  C   UNL     1       1.954   3.133  17.863  0.00  0.00    +0.000 A 
ATOM     20  C   UNL     1       3.237   2.905  18.359  0.00  0.00    +0.000 A 
ATOM     21 CL   UNL     1       3.794   1.284  18.525  0.00  0.00    +0.000 Cl
ENDBRANCH  14  15
ENDBRANCH  13  14
ENDBRANCH  12  13
ENDBRANCH   3  12
TORSDOF 5
ENDMDL
MODEL 3
REMARK VINA RESULT:      -7.3      1.298      1.352
REMARK  Name = 
REMARK  5 active torsions:
REMARK  status: ('A' for Active; 'I' for Inactive)
REMARK    1  A    between atoms: C_2  and  C_14
REMARK    2  A    between atoms: N_3  and  C_4
REMARK    3  A    between atoms: C_4  and  C_5
REMARK    4  A    between atoms: C_5  and  O_6
REMARK    5  A    between atoms: O_6  and  C_7
REMARK                            x       y       z     vdW  Elec       q    Type
REMARK                         _______ _______ _______ _____ _____    ______ ____
ROOT
ATOM      1  O   UNL     1       7.806   4.823  17.192  0.00  0.00    +0.000 OA
ATOM      2  C   UNL     1       6.786   4.906  16.512  0.00  0.00    +0.000 C 
ATOM      3  N   UNL     1       5.575   5.292  17.035  0.00  0.00    +0.000 N 
ATOM      4  H   UNL     1       4.749   5.167  16.467  0.00  0.00    +0.000 HD
ENDROOT
BRANCH   2   5
ATOM      5  C   UNL     1       6.790   4.597  15.099  0.00  0.00    +0.000 A 
ATOM      6  C   UNL     1       6.043   3.725  14.320  0.00  0.00    +0.000 A 
ATOM      7  C   UNL     1       6.475   3.858  12.978  0.00  0.00    +0.000 A 
ATOM      8 CL   UNL     1       5.851   2.996  11.658  0.00  0.00    +0.000 Cl
ATOM      9  C   UNL     1       7.471   4.803  12.953  0.00  0.00    +0.000 A 
ATOM     10  N   UNL     1       7.652   5.246  14.235  0.00  0.00    +0.000 N 
ATOM     11  H   UNL     1       8.313   5.954  14.536  0.00  0.00    +0.000 HD
ENDBRANCH   2   5
BRANCH   3  12
ATOM     12  C   UNL     1       5.406   5.571  18.451  0.00  0.00    +0.000 C 
BRANCH  12  13
ATOM     13  C   UNL     1       5.373   4.293  19.283  0.00  0.00    +0.000 C 
BRANCH  13  14
ATOM     14  O   UNL     1       4.402   3.387  18.751  0.00  0.00    +0.000 OA
BRANCH  14  15
ATOM     15  C   UNL     1       3.310   3.234  19.587  0.00  0.00    +0.000 A 
ATOM     16  N   UNL     1       3.499   2.624  20.785  0.00  0.00    +0.000 NA
ATOM     17  C   UNL     1       2.420   2.474  21.581  0.00  0.00    +0.000 A 
ATOM     18  C   UNL     1       1.151   2.916  21.246  0.00  0.00    +0.000 A 
ATOM     19  C   UNL     1       0.977   3.549  20.017  0.00  0.00    +0.000 A 
ATOM     20  C   UNL     1       2.069   3.712  19.166  0.00  0.00    +0.000 A 
ATOM     21 CL   UNL     1       1.837   4.483  17.644  0.00  0.00    +0.000 Cl
ENDBRANCH  14  15
ENDBRANCH  13  14
ENDBRANCH  12  13
ENDBRANCH   3  12
TORSDOF 5
ENDMDL
MODEL 4
REMARK VINA RESULT:      -7.0      1.036      1.036
REMARK  Name = 
REMARK  5 active torsions:
REMARK  status: ('A' for Active; 'I' for Inactive)
REMARK    1  A    between atoms: C_2  and  C_14
REMARK    2  A    between atoms: N_3  and  C_4
REMARK    3  A    between atoms: C_4  and  C_5
REMARK    4  A    between atoms: C_5  and  O_6
REMARK    5  A    between atoms: O_6  and  C_7
REMARK                            x       y       z     vdW  Elec       q    Type
REMARK                         _______ _______ _______ _____ _____    ______ ____
ROOT
ATOM      1  O   UNL     1       5.628   6.822  16.496  0.00  0.00    +0.000 OA
ATOM      2  C   UNL     1       6.150   5.714  16.396  0.00  0.00    +0.000 C 
ATOM      3  N   UNL     1       6.563   4.988  17.488  0.00  0.00    +0.000 N 
ATOM      4  H   UNL     1       7.140   4.174  17.329  0.00  0.00    +0.000 HD
ENDROOT
BRANCH   2   5
ATOM      5  C   UNL     1       6.368   5.092  15.110  0.00  0.00    +0.000 A 
ATOM      6  C   UNL     1       5.651   4.155  14.378  0.00  0.00    +0.000 A 
ATOM      7  C   UNL     1       6.341   3.927  13.164  0.00  0.00    +0.000 A 
ATOM      8 CL   UNL     1       5.845   2.863  11.940  0.00  0.00    +0.000 Cl
ATOM      9  C   UNL     1       7.462   4.721  13.167  0.00  0.00    +0.000 A 
ATOM     10  N   UNL     1       7.469   5.422  14.341  0.00  0.00    +0.000 N 
ATOM     11  H   UNL     1       8.165   6.100  14.630  0.00  0.00    +0.000 HD
ENDBRANCH   2   5
BRANCH   3  12
ATOM     12  C   UNL     1       6.465   5.514  18.840  0.00  0.00    +0.000 C 
BRANCH  12  13
ATOM     13  C   UNL     1       5.074   5.307  19.431  0.00  0.00    +0.000 C 
BRANCH  13  14
ATOM     14  O   UNL     1       4.738   3.916  19.416  0.00  0.00    +0.000 OA
BRANCH  14  15
ATOM     15  C   UNL     1       3.394   3.695  19.661  0.00  0.00    +0.000 A 
ATOM     16  N   UNL     1       2.766   4.494  20.561  0.00  0.00    +0.000 NA
ATOM     17  C   UNL     1       1.459   4.256  20.794  0.00  0.00    +0.000 A 
ATOM     18  C   UNL     1       0.735   3.259  20.161  0.00  0.00    +0.000 A 
ATOM     19  C   UNL     1       1.393   2.455  19.234  0.00  0.00    +0.000 A 
ATOM     20  C   UNL     1       2.746   2.669  18.975  0.00  0.00    +0.000 A 
ATOM     21 CL   UNL     1       3.550   1.657  17.836  0.00  0.00    +0.000 Cl
ENDBRANCH  14  15
ENDBRANCH  13  14
ENDBRANCH  12  13
ENDBRANCH   3  12
TORSDOF 5
ENDMDL
MODEL 5
REMARK VINA RESULT:      -6.9      1.654      1.808
REMARK  Name = 
REMARK  5 active torsions:
REMARK  status: ('A' for Active; 'I' for Inactive)
REMARK    1  A    between atoms: C_2  and  C_14
REMARK    2  A    between atoms: N_3  and  C_4
REMARK    3  A    between atoms: C_4  and  C_5
REMARK    4  A    between atoms: C_5  and  O_6
REMARK    5  A    between atoms: O_6  and  C_7
REMARK                            x       y       z     vdW  Elec       q    Type
REMARK                         _______ _______ _______ _____ _____    ______ ____
ROOT
ATOM      1  O   UNL     1       5.526   6.823  15.980  0.00  0.00    +0.000 OA
ATOM      2  C   UNL     1       6.213   5.805  15.941  0.00  0.00    +0.000 C 
ATOM      3  N   UNL     1       6.853   5.299  17.048  0.00  0.00    +0.000 N 
ATOM      4  H   UNL     1       7.538   4.570  16.910  0.00  0.00    +0.000 HD
ENDROOT
BRANCH   2   5
ATOM      5  C   UNL     1       6.399   5.063  14.714  0.00  0.00    +0.000 A 
ATOM      6  C   UNL     1       5.639   4.097  14.069  0.00  0.00    +0.000 A 
ATOM      7  C   UNL     1       6.314   3.734  12.879  0.00  0.00    +0.000 A 
ATOM      8 CL   UNL     1       5.767   2.587  11.755  0.00  0.00    +0.000 Cl
ATOM      9  C   UNL     1       7.467   4.476  12.810  0.00  0.00    +0.000 A 
ATOM     10  N   UNL     1       7.509   5.277  13.918  0.00  0.00    +0.000 N 
ATOM     11  H   UNL     1       8.235   5.947  14.146  0.00  0.00    +0.000 HD
ENDBRANCH   2   5
BRANCH   3  12
ATOM     12  C   UNL     1       6.808   5.974  18.334  0.00  0.00    +0.000 C 
BRANCH  12  13
ATOM     13  C   UNL     1       5.887   5.259  19.318  0.00  0.00    +0.000 C 
BRANCH  13  14
ATOM     14  O   UNL     1       5.732   3.888  18.938  0.00  0.00    +0.000 OA
BRANCH  14  15
ATOM     15  C   UNL     1       4.407   3.545  18.730  0.00  0.00    +0.000 A 
ATOM     16  N   UNL     1       3.728   4.178  17.740  0.00  0.00    +0.000 NA
ATOM     17  C   UNL     1       2.435   3.837  17.561  0.00  0.00    +0.000 A 
ATOM     18  C   UNL     1       1.781   2.879  18.318  0.00  0.00    +0.000 A 
ATOM     19  C   UNL     1       2.496   2.233  19.323  0.00  0.00    +0.000 A 
ATOM     20  C   UNL     1       3.832   2.568  19.541  0.00  0.00    +0.000 A 
ATOM     21 CL   UNL     1       4.701   1.770  20.797  0.00  0.00    +0.000 Cl
ENDBRANCH  14  15
ENDBRANCH  13  14
ENDBRANCH  12  13
ENDBRANCH   3  12
TORSDOF 5
ENDMDL
MODEL 6
REMARK VINA RESULT:      -6.9      1.791      1.994
REMARK  Name = 
REMARK  5 active torsions:
REMARK  status: ('A' for Active; 'I' for Inactive)
REMARK    1  A    between atoms: C_2  and  C_14
REMARK    2  A    between atoms: N_3  and  C_4
REMARK    3  A    between atoms: C_4  and  C_5
REMARK    4  A    between atoms: C_5  and  O_6
REMARK    5  A    between atoms: O_6  and  C_7
REMARK                            x       y       z     vdW  Elec       q    Type
REMARK                         _______ _______ _______ _____ _____    ______ ____
ROOT
ATOM      1  O   UNL     1       7.765   6.183  16.032  0.00  0.00    +0.000 OA
ATOM      2  C   UNL     1       6.742   5.604  15.672  0.00  0.00    +0.000 C 
ATOM      3  N   UNL     1       5.592   5.592  16.425  0.00  0.00    +0.000 N 
ATOM      4  H   UNL     1       4.854   4.956  16.159  0.00  0.00    +0.000 HD
ENDROOT
BRANCH   2   5
ATOM      5  C   UNL     1       6.679   4.886  14.419  0.00  0.00    +0.000 A 
ATOM      6  C   UNL     1       5.882   3.845  13.964  0.00  0.00    +0.000 A 
ATOM      7  C   UNL     1       6.259   3.556  12.631  0.00  0.00    +0.000 A 
ATOM      8 CL   UNL     1       5.561   2.358  11.654  0.00  0.00    +0.000 Cl
ATOM      9  C   UNL     1       7.273   4.416  12.289  0.00  0.00    +0.000 A 
ATOM     10  N   UNL     1       7.518   5.217  13.370  0.00  0.00    +0.000 N 
ATOM     11  H   UNL     1       8.205   5.961  13.422  0.00  0.00    +0.000 HD
ENDBRANCH   2   5
BRANCH   3  12
ATOM     12  C   UNL     1       5.527   6.218  17.736  0.00  0.00    +0.000 C 
BRANCH  12  13
ATOM     13  C   UNL     1       5.743   5.208  18.859  0.00  0.00    +0.000 C 
BRANCH  13  14
ATOM     14  O   UNL     1       4.544   5.068  19.628  0.00  0.00    +0.000 OA
BRANCH  14  15
ATOM     15  C   UNL     1       3.699   4.099  19.115  0.00  0.00    +0.000 A 
ATOM     16  N   UNL     1       4.050   2.796  19.266  0.00  0.00    +0.000 NA
ATOM     17  C   UNL     1       3.218   1.868  18.750  0.00  0.00    +0.000 A 
ATOM     18  C   UNL     1       2.037   2.174  18.095  0.00  0.00    +0.000 A 
ATOM     19  C   UNL     1       1.688   3.515  17.958  0.00  0.00    +0.000 A 
ATOM     20  C   UNL     1       2.529   4.501  18.472  0.00  0.00    +0.000 A 
ATOM     21 CL   UNL     1       2.092   6.156  18.283  0.00  0.00    +0.000 Cl
ENDBRANCH  14  15
ENDBRANCH  13  14
ENDBRANCH  12  13
ENDBRANCH   3  12
TORSDOF 5
ENDMDL
MODEL 7
REMARK VINA RESULT:      -6.9      1.691      1.857
REMARK  Name = 
REMARK  5 active torsions:
REMARK  status: ('A' for Active; 'I' for Inactive)
REMARK    1  A    between atoms: C_2  and  C_14
REMARK    2  A    between atoms: N_3  and  C_4
REMARK    3  A    between atoms: C_4  and  C_5
REMARK    4  A    between atoms: C_5  and  O_6
REMARK    5  A    between atoms: O_6  and  C_7
REMARK                            x       y       z     vdW  Elec       q    Type
REMARK                         _______ _______ _______ _____ _____    ______ ____
ROOT
ATOM      1  O   UNL     1       7.697   4.772  15.703  0.00  0.00    +0.000 OA
ATOM      2  C   UNL     1       6.518   4.607  15.400  0.00  0.00    +0.000 C 
ATOM      3  N   UNL     1       5.485   4.877  16.265  0.00  0.00    +0.000 N 
ATOM      4  H   UNL     1       4.560   4.554  16.020  0.00  0.00    +0.000 HD
ENDROOT
BRANCH   2   5
ATOM      5  C   UNL     1       6.132   4.109  14.098  0.00  0.00    +0.000 A 
ATOM      6  C   UNL     1       4.901   3.910  13.488  0.00  0.00    +0.000 A 
ATOM      7  C   UNL     1       5.135   3.410  12.185  0.00  0.00    +0.000 A 
ATOM      8 CL   UNL     1       3.931   3.018  11.056  0.00  0.00    +0.000 Cl
ATOM      9  C   UNL     1       6.494   3.311  12.014  0.00  0.00    +0.000 A 
ATOM     10  N   UNL     1       7.088   3.737  13.170  0.00  0.00    +0.000 N 
ATOM     11  H   UNL     1       8.085   3.791  13.348  0.00  0.00    +0.000 HD
ENDBRANCH   2   5
BRANCH   3  12
ATOM     12  C   UNL     1       5.723   5.324  17.628  0.00  0.00    +0.000 C 
BRANCH  12  13
ATOM     13  C   UNL     1       5.477   4.210  18.642  0.00  0.00    +0.000 C 
BRANCH  13  14
ATOM     14  O   UNL     1       4.324   3.451  18.265  0.00  0.00    +0.000 OA
BRANCH  14  15
ATOM     15  C   UNL     1       3.381   3.389  19.277  0.00  0.00    +0.000 A 
ATOM     16  N   UNL     1       3.653   2.622  20.362  0.00  0.00    +0.000 NA
ATOM     17  C   UNL     1       2.717   2.566  21.332  0.00  0.00    +0.000 A 
ATOM     18  C   UNL     1       1.515   3.252  21.280  0.00  0.00    +0.000 A 
ATOM     19  C   UNL     1       1.256   4.042  20.163  0.00  0.00    +0.000 A 
ATOM     20  C   UNL     1       2.199   4.116  19.138  0.00  0.00    +0.000 A 
ATOM     21 CL   UNL     1       1.859   5.086  17.756  0.00  0.00    +0.000 Cl
ENDBRANCH  14  15
ENDBRANCH  13  14
ENDBRANCH  12  13
ENDBRANCH   3  12
TORSDOF 5
ENDMDL
MODEL 8
REMARK VINA RESULT:      -6.9      1.549      1.733
REMARK  Name = 
REMARK  5 active torsions:
REMARK  status: ('A' for Active; 'I' for Inactive)
REMARK    1  A    between atoms: C_2  and  C_14
REMARK    2  A    between atoms: N_3  and  C_4
REMARK    3  A    between atoms: C_4  and  C_5
REMARK    4  A    between atoms: C_5  and  O_6
REMARK    5  A    between atoms: O_6  and  C_7
REMARK                            x       y       z     vdW  Elec       q    Type
REMARK                         _______ _______ _______ _____ _____    ______ ____
ROOT
ATOM      1  O   UNL     1       7.101   6.666  16.685  0.00  0.00    +0.000 OA
ATOM      2  C   UNL     1       6.686   5.535  16.445  0.00  0.00    +0.000 C 
ATOM      3  N   UNL     1       6.171   4.711  17.418  0.00  0.00    +0.000 N 
ATOM      4  H   UNL     1       6.015   3.740  17.187  0.00  0.00    +0.000 HD
ENDROOT
BRANCH   2   5
ATOM      5  C   UNL     1       6.713   4.986  15.107  0.00  0.00    +0.000 A 
ATOM      6  C   UNL     1       5.955   4.015  14.468  0.00  0.00    +0.000 A 
ATOM      7  C   UNL     1       6.424   3.900  13.138  0.00  0.00    +0.000 A 
ATOM      8 CL   UNL     1       5.801   2.841  11.968  0.00  0.00    +0.000 Cl
ATOM      9  C   UNL     1       7.452   4.796  12.979  0.00  0.00    +0.000 A 
ATOM     10  N   UNL     1       7.617   5.449  14.170  0.00  0.00    +0.000 N 
ATOM     11  H   UNL     1       8.294   6.179  14.364  0.00  0.00    +0.000 HD
ENDBRANCH   2   5
BRANCH   3  12
ATOM     12  C   UNL     1       6.139   5.104  18.817  0.00  0.00    +0.000 C 
BRANCH  12  13
ATOM     13  C   UNL     1       4.780   5.671  19.216  0.00  0.00    +0.000 C 
BRANCH  13  14
ATOM     14  O   UNL     1       4.119   4.772  20.112  0.00  0.00    +0.000 OA
BRANCH  14  15
ATOM     15  C   UNL     1       3.077   4.094  19.505  0.00  0.00    +0.000 A 
ATOM     16  N   UNL     1       3.007   4.104  18.149  0.00  0.00    +0.000 NA
ATOM     17  C   UNL     1       1.978   3.446  17.577  0.00  0.00    +0.000 A 
ATOM     18  C   UNL     1       1.011   2.761  18.293  0.00  0.00    +0.000 A 
ATOM     19  C   UNL     1       1.103   2.752  19.683  0.00  0.00    +0.000 A 
ATOM     20  C   UNL     1       2.150   3.430  20.307  0.00  0.00    +0.000 A 
ATOM     21 CL   UNL     1       2.243   3.422  22.027  0.00  0.00    +0.000 Cl
ENDBRANCH  14  15
ENDBRANCH  13  14
ENDBRANCH  12  13
ENDBRANCH   3  12
TORSDOF 5
ENDMDL
MODEL 9
REMARK VINA RESULT:      -6.9      3.450      4.201
REMARK  Name = 
REMARK  5 active torsions:
REMARK  status: ('A' for Active; 'I' for Inactive)
REMARK    1  A    between atoms: C_2  and  C_14
REMARK    2  A    between atoms: N_3  and  C_4
REMARK    3  A    between atoms: C_4  and  C_5
REMARK    4  A    between atoms: C_5  and  O_6
REMARK    5  A    between atoms: O_6  and  C_7
REMARK                            x       y       z     vdW  Elec       q    Type
REMARK                         _______ _______ _______ _____ _____    ______ ____
ROOT
ATOM      1  O   UNL     1       5.045   3.366  19.928  0.00  0.00    +0.000 OA
ATOM      2  C   UNL     1       5.267   3.861  18.825  0.00  0.00    +0.000 C 
ATOM      3  N   UNL     1       4.656   3.416  17.677  0.00  0.00    +0.000 N 
ATOM      4  H   UNL     1       5.013   3.742  16.790  0.00  0.00    +0.000 HD
ENDROOT
BRANCH   2   5
ATOM      5  C   UNL     1       6.198   4.954  18.658  0.00  0.00    +0.000 A 
ATOM      6  C   UNL     1       6.203   6.074  17.837  0.00  0.00    +0.000 A 
ATOM      7  C   UNL     1       7.375   6.816  18.119  0.00  0.00    +0.000 A 
ATOM      8 CL   UNL     1       7.818   8.271  17.367  0.00  0.00    +0.000 Cl
ATOM      9  C   UNL     1       8.065   6.149  19.101  0.00  0.00    +0.000 A 
ATOM     10  N   UNL     1       7.347   5.030  19.423  0.00  0.00    +0.000 N 
ATOM     11  H   UNL     1       7.594   4.340  20.123  0.00  0.00    +0.000 HD
ENDBRANCH   2   5
BRANCH   3  12
ATOM     12  C   UNL     1       3.745   2.283  17.682  0.00  0.00    +0.000 C 
BRANCH  12  13
ATOM     13  C   UNL     1       2.362   2.664  17.162  0.00  0.00    +0.000 C 
BRANCH  13  14
ATOM     14  O   UNL     1       1.497   2.977  18.258  0.00  0.00    +0.000 OA
BRANCH  14  15
ATOM     15  C   UNL     1       1.757   4.226  18.795  0.00  0.00    +0.000 A 
ATOM     16  N   UNL     1       2.107   5.228  17.949  0.00  0.00    +0.000 NA
ATOM     17  C   UNL     1       2.367   6.435  18.493  0.00  0.00    +0.000 A 
ATOM     18  C   UNL     1       2.284   6.700  19.850  0.00  0.00    +0.000 A 
ATOM     19  C   UNL     1       1.913   5.662  20.702  0.00  0.00    +0.000 A 
ATOM     20  C   UNL     1       1.645   4.400  20.173  0.00  0.00    +0.000 A 
ATOM     21 CL   UNL     1       1.201   3.123  21.241  0.00  0.00    +0.000 Cl
ENDBRANCH  14  15
ENDBRANCH  13  14
ENDBRANCH  12  13
ENDBRANCH   3  12
TORSDOF 5
ENDMDL
