MODEL 1
REMARK VINA RESULT:      -7.6      0.000      0.000
REMARK  Name = 
REMARK  5 active torsions:
REMARK  status: ('A' for Active; 'I' for Inactive)
REMARK    1  A    between atoms: C_2  and  C_10
REMARK    2  A    between atoms: N_3  and  C_4
REMARK    3  A    between atoms: C_4  and  C_5
REMARK    4  A    between atoms: C_12  and  C_13
REMARK    5  A    between atoms: C_13  and  N_14
REMARK                            x       y       z     vdW  Elec       q    Type
REMARK                         _______ _______ _______ _____ _____    ______ ____
ROOT
ATOM      1  C   UNL     1       4.045   5.483  19.236  0.00  0.00    +0.000 A 
ATOM      2  N   UNL     1       4.728   5.975  18.222  0.00  0.00    +0.000 NA
ATOM      3  C   UNL     1       5.948   5.351  18.368  0.00  0.00    +0.000 A 
ATOM      4  N   UNL     1       6.030   4.518  19.415  0.00  0.00    +0.000 NA
ATOM      5  O   UNL     1       4.764   4.599  19.994  0.00  0.00    +0.000 OA
ENDROOT
BRANCH   1   7
ATOM      6  O   UNL     1       1.715   5.106  19.206  0.00  0.00    +0.000 OA
ATOM      7  C   UNL     1       2.674   5.762  19.606  0.00  0.00    +0.000 C 
ATOM      8  N   UNL     1       2.503   6.852  20.438  0.00  0.00    +0.000 N 
ATOM      9  H   UNL     1       3.318   7.396  20.710  0.00  0.00    +0.000 HD
BRANCH   8  10
ATOM     10  C   UNL     1       1.194   7.296  20.893  0.00  0.00    +0.000 C 
BRANCH  10  11
ATOM     11  C   UNL     1       1.132   8.808  21.123  0.00  0.00    +0.000 C 
ATOM     12  C   UNL     1       0.393   9.237  22.381  0.00  0.00    +0.000 C 
ATOM     13  C   UNL     1      -0.084  10.618  22.005  0.00  0.00    +0.000 C 
ATOM     14  C   UNL     1      -0.409  10.459  20.535  0.00  0.00    +0.000 C 
ATOM     15  O   UNL     1       0.463   9.446  20.016  0.00  0.00    +0.000 OA
ENDBRANCH  10  11
ENDBRANCH   8  10
ENDBRANCH   1   7
BRANCH   3  16
ATOM     16  C   UNL     1       7.106   5.600  17.478  0.00  0.00    +0.000 C 
BRANCH  16  17
ATOM     17  N   UNL     1       6.857   5.084  16.138  0.00  0.00    +0.000 N 
ATOM     18  C   UNL     1       6.100   3.991  15.799  0.00  0.00    +0.000 A 
ATOM     19  C   UNL     1       6.251   3.817  14.443  0.00  0.00    +0.000 A 
ATOM     20  C   UNL     1       7.131   4.847  14.047  0.00  0.00    +0.000 A 
ATOM     21  N   UNL     1       7.651   5.125  12.720  0.00  0.00    +0.000 N 
ATOM     22  O   UNL     1       7.285   4.351  11.821  0.00  0.00    +0.000 OA
ATOM     23  O   UNL     1       8.411   6.092  12.568  0.00  0.00    +0.000 OA
ATOM     24  N   UNL     1       7.512   5.618  15.081  0.00  0.00    +0.000 NA
ENDBRANCH  16  17
ENDBRANCH   3  16
TORSDOF 5
ENDMDL
MODEL 2
REMARK VINA RESULT:      -7.4      1.665      2.559
REMARK  Name = 
REMARK  5 active torsions:
REMARK  status: ('A' for Active; 'I' for Inactive)
REMARK    1  A    between atoms: C_2  and  C_10
REMARK    2  A    between atoms: N_3  and  C_4
REMARK    3  A    between atoms: C_4  and  C_5
REMARK    4  A    between atoms: C_12  and  C_13
REMARK    5  A    between atoms: C_13  and  N_14
REMARK                            x       y       z     vdW  Elec       q    Type
REMARK                         _______ _______ _______ _____ _____    ______ ____
ROOT
ATOM      1  C   UNL     1       2.581   6.866  18.791  0.00  0.00    +0.000 A 
ATOM      2  N   UNL     1       3.255   6.127  17.934  0.00  0.00    +0.000 NA
ATOM      3  C   UNL     1       3.499   4.987  18.669  0.00  0.00    +0.000 A 
ATOM      4  N   UNL     1       3.010   5.009  19.917  0.00  0.00    +0.000 NA
ATOM      5  O   UNL     1       2.394   6.257  20.002  0.00  0.00    +0.000 OA
ENDROOT
BRANCH   1   7
ATOM      6  O   UNL     1       2.103   8.798  17.522  0.00  0.00    +0.000 OA
ATOM      7  C   UNL     1       2.035   8.192  18.588  0.00  0.00    +0.000 C 
ATOM      8  N   UNL     1       1.438   8.755  19.700  0.00  0.00    +0.000 N 
ATOM      9  H   UNL     1       1.442   8.239  20.575  0.00  0.00    +0.000 HD
BRANCH   8  10
ATOM     10  C   UNL     1       0.858  10.090  19.689  0.00  0.00    +0.000 C 
BRANCH  10  11
ATOM     11  C   UNL     1      -0.279  10.246  20.701  0.00  0.00    +0.000 C 
ATOM     12  C   UNL     1      -0.249  11.535  21.508  0.00  0.00    +0.000 C 
ATOM     13  C   UNL     1      -0.966  11.127  22.771  0.00  0.00    +0.000 C 
ATOM     14  C   UNL     1      -0.504   9.697  22.958  0.00  0.00    +0.000 C 
ATOM     15  O   UNL     1      -0.239   9.164  21.654  0.00  0.00    +0.000 OA
ENDBRANCH  10  11
ENDBRANCH   8  10
ENDBRANCH   1   7
BRANCH   3  16
ATOM     16  C   UNL     1       4.277   3.835  18.156  0.00  0.00    +0.000 C 
BRANCH  16  17
ATOM     17  N   UNL     1       5.446   4.282  17.410  0.00  0.00    +0.000 N 
ATOM     18  C   UNL     1       6.508   5.004  17.891  0.00  0.00    +0.000 A 
ATOM     19  C   UNL     1       7.303   5.298  16.808  0.00  0.00    +0.000 A 
ATOM     20  C   UNL     1       6.632   4.723  15.707  0.00  0.00    +0.000 A 
ATOM     21  N   UNL     1       7.018   4.747  14.306  0.00  0.00    +0.000 N 
ATOM     22  O   UNL     1       8.063   5.361  14.041  0.00  0.00    +0.000 OA
ATOM     23  O   UNL     1       6.297   4.169  13.480  0.00  0.00    +0.000 OA
ATOM     24  N   UNL     1       5.491   4.110  16.069  0.00  0.00    +0.000 NA
ENDBRANCH  16  17
ENDBRANCH   3  16
TORSDOF 5
ENDMDL
MODEL 3
REMARK VINA RESULT:      -7.4      2.301      3.546
REMARK  Name = 
REMARK  5 active torsions:
REMARK  status: ('A' for Active; 'I' for Inactive)
REMARK    1  A    between atoms: C_2  and  C_10
REMARK    2  A    between atoms: N_3  and  C_4
REMARK    3  A    between atoms: C_4  and  C_5
REMARK    4  A    between atoms: C_12  and  C_13
REMARK    5  A    between atoms: C_13  and  N_14
REMARK                            x       y       z     vdW  Elec       q    Type
REMARK                         _______ _______ _______ _____ _____    ______ ____
ROOT
ATOM      1  C   UNL     1       1.863   6.449  20.313  0.00  0.00    +0.000 A 
ATOM      2  N   UNL     1       2.894   5.820  19.785  0.00  0.00    +0.000 NA
ATOM      3  C   UNL     1       2.526   4.500  19.925  0.00  0.00    +0.000 A 
ATOM      4  N   UNL     1       1.336   4.308  20.511  0.00  0.00    +0.000 NA
ATOM      5  O   UNL     1       0.888   5.604  20.766  0.00  0.00    +0.000 OA
ENDROOT
BRANCH   1   7
ATOM      6  O   UNL     1       1.630   8.650  19.490  0.00  0.00    +0.000 OA
ATOM      7  C   UNL     1       1.663   7.877  20.445  0.00  0.00    +0.000 C 
ATOM      8  N   UNL     1       1.533   8.331  21.744  0.00  0.00    +0.000 N 
ATOM      9  H   UNL     1       1.611   7.665  22.508  0.00  0.00    +0.000 HD
BRANCH   8  10
ATOM     10  C   UNL     1       1.350   9.737  22.070  0.00  0.00    +0.000 C 
BRANCH  10  11
ATOM     11  C   UNL     1      -0.121  10.160  22.051  0.00  0.00    +0.000 C 
ATOM     12  C   UNL     1      -0.494  11.143  20.951  0.00  0.00    +0.000 C 
ATOM     13  C   UNL     1      -1.677  11.853  21.558  0.00  0.00    +0.000 C 
ATOM     14  C   UNL     1      -1.295  11.927  23.022  0.00  0.00    +0.000 C 
ATOM     15  O   UNL     1      -0.466  10.791  23.301  0.00  0.00    +0.000 OA
ENDBRANCH  10  11
ENDBRANCH   8  10
ENDBRANCH   1   7
BRANCH   3  16
ATOM     16  C   UNL     1       3.383   3.364  19.511  0.00  0.00    +0.000 C 
BRANCH  16  17
ATOM     17  N   UNL     1       4.241   3.735  18.393  0.00  0.00    +0.000 N 
ATOM     18  C   UNL     1       3.899   3.773  17.065  0.00  0.00    +0.000 A 
ATOM     19  C   UNL     1       5.054   4.058  16.373  0.00  0.00    +0.000 A 
ATOM     20  C   UNL     1       6.049   4.163  17.368  0.00  0.00    +0.000 A 
ATOM     21  N   UNL     1       7.466   4.433  17.198  0.00  0.00    +0.000 N 
ATOM     22  O   UNL     1       7.854   4.578  16.028  0.00  0.00    +0.000 OA
ATOM     23  O   UNL     1       8.185   4.499  18.205  0.00  0.00    +0.000 OA
ATOM     24  N   UNL     1       5.559   3.957  18.604  0.00  0.00    +0.000 NA
ENDBRANCH  16  17
ENDBRANCH   3  16
TORSDOF 5
ENDMDL
MODEL 4
REMARK VINA RESULT:      -7.3      2.045      3.230
REMARK  Name = 
REMARK  5 active torsions:
REMARK  status: ('A' for Active; 'I' for Inactive)
REMARK    1  A    between atoms: C_2  and  C_10
REMARK    2  A    between atoms: N_3  and  C_4
REMARK    3  A    between atoms: C_4  and  C_5
REMARK    4  A    between atoms: C_12  and  C_13
REMARK    5  A    between atoms: C_13  and  N_14
REMARK                            x       y       z     vdW  Elec       q    Type
REMARK                         _______ _______ _______ _____ _____    ______ ____
ROOT
ATOM      1  C   UNL     1       2.514   7.092  19.074  0.00  0.00    +0.000 A 
ATOM      2  N   UNL     1       3.558   6.452  18.585  0.00  0.00    +0.000 NA
ATOM      3  C   UNL     1       3.603   5.329  19.381  0.00  0.00    +0.000 A 
ATOM      4  N   UNL     1       2.647   5.265  20.319  0.00  0.00    +0.000 NA
ATOM      5  O   UNL     1       1.916   6.435  20.115  0.00  0.00    +0.000 OA
ENDROOT
BRANCH   1   7
ATOM      6  O   UNL     1       2.067   8.783  17.488  0.00  0.00    +0.000 OA
ATOM      7  C   UNL     1       1.956   8.353  18.635  0.00  0.00    +0.000 C 
ATOM      8  N   UNL     1       1.296   9.073  19.612  0.00  0.00    +0.000 N 
ATOM      9  H   UNL     1       1.265   8.704  20.559  0.00  0.00    +0.000 HD
BRANCH   8  10
ATOM     10  C   UNL     1       0.694  10.373  19.359  0.00  0.00    +0.000 C 
BRANCH  10  11
ATOM     11  C   UNL     1      -0.830  10.303  19.234  0.00  0.00    +0.000 C 
ATOM     12  C   UNL     1      -1.359  10.299  17.808  0.00  0.00    +0.000 C 
ATOM     13  C   UNL     1      -2.733  10.894  17.984  0.00  0.00    +0.000 C 
ATOM     14  C   UNL     1      -2.504  11.921  19.073  0.00  0.00    +0.000 C 
ATOM     15  O   UNL     1      -1.429  11.438  19.891  0.00  0.00    +0.000 OA
ENDBRANCH  10  11
ENDBRANCH   8  10
ENDBRANCH   1   7
BRANCH   3  16
ATOM     16  C   UNL     1       4.645   4.282  19.259  0.00  0.00    +0.000 C 
BRANCH  16  17
ATOM     17  N   UNL     1       5.688   4.688  18.325  0.00  0.00    +0.000 N 
ATOM     18  C   UNL     1       6.710   5.573  18.559  0.00  0.00    +0.000 A 
ATOM     19  C   UNL     1       7.367   5.735  17.362  0.00  0.00    +0.000 A 
ATOM     20  C   UNL     1       6.661   4.917  16.454  0.00  0.00    +0.000 A 
ATOM     21  N   UNL     1       6.912   4.723  15.036  0.00  0.00    +0.000 N 
ATOM     22  O   UNL     1       7.859   5.367  14.559  0.00  0.00    +0.000 OA
ATOM     23  O   UNL     1       6.182   3.947  14.403  0.00  0.00    +0.000 OA
ATOM     24  N   UNL     1       5.628   4.283  17.036  0.00  0.00    +0.000 NA
ENDBRANCH  16  17
ENDBRANCH   3  16
TORSDOF 5
ENDMDL
MODEL 5
REMARK VINA RESULT:      -7.2      4.239      8.513
REMARK  Name = 
REMARK  5 active torsions:
REMARK  status: ('A' for Active; 'I' for Inactive)
REMARK    1  A    between atoms: C_2  and  C_10
REMARK    2  A    between atoms: N_3  and  C_4
REMARK    3  A    between atoms: C_4  and  C_5
REMARK    4  A    between atoms: C_12  and  C_13
REMARK    5  A    between atoms: C_13  and  N_14
REMARK                            x       y       z     vdW  Elec       q    Type
REMARK                         _______ _______ _______ _____ _____    ______ ____
ROOT
ATOM      1  C   UNL     1       2.545   7.423  18.254  0.00  0.00    +0.000 A 
ATOM      2  N   UNL     1       1.942   7.945  19.304  0.00  0.00    +0.000 NA
ATOM      3  C   UNL     1       1.668   9.224  18.870  0.00  0.00    +0.000 A 
ATOM      4  N   UNL     1       2.077   9.493  17.622  0.00  0.00    +0.000 NA
ATOM      5  O   UNL     1       2.658   8.295  17.206  0.00  0.00    +0.000 OA
ENDROOT
BRANCH   1   7
ATOM      6  O   UNL     1       4.266   5.817  18.080  0.00  0.00    +0.000 OA
ATOM      7  C   UNL     1       3.066   6.081  18.101  0.00  0.00    +0.000 C 
ATOM      8  N   UNL     1       2.109   5.096  17.954  0.00  0.00    +0.000 N 
ATOM      9  H   UNL     1       1.128   5.362  17.932  0.00  0.00    +0.000 HD
BRANCH   8  10
ATOM     10  C   UNL     1       2.447   3.693  17.765  0.00  0.00    +0.000 C 
BRANCH  10  11
ATOM     11  C   UNL     1       2.163   2.846  19.006  0.00  0.00    +0.000 C 
ATOM     12  C   UNL     1       0.938   3.264  19.805  0.00  0.00    +0.000 C 
ATOM     13  C   UNL     1       1.290   2.780  21.189  0.00  0.00    +0.000 C 
ATOM     14  C   UNL     1       2.783   3.026  21.249  0.00  0.00    +0.000 C 
ATOM     15  O   UNL     1       3.285   2.910  19.911  0.00  0.00    +0.000 OA
ENDBRANCH  10  11
ENDBRANCH   8  10
ENDBRANCH   1   7
BRANCH   3  16
ATOM     16  C   UNL     1       1.015  10.251  19.715  0.00  0.00    +0.000 C 
BRANCH  16  17
ATOM     17  N   UNL     1      -0.070  10.907  18.996  0.00  0.00    +0.000 N 
ATOM     18  C   UNL     1      -0.175  12.242  18.694  0.00  0.00    +0.000 A 
ATOM     19  C   UNL     1      -1.413  12.416  18.122  0.00  0.00    +0.000 A 
ATOM     20  C   UNL     1      -1.995  11.130  18.132  0.00  0.00    +0.000 A 
ATOM     21  N   UNL     1      -3.313  10.736  17.664  0.00  0.00    +0.000 N 
ATOM     22  O   UNL     1      -4.022  11.646  17.208  0.00  0.00    +0.000 OA
ATOM     23  O   UNL     1      -3.642   9.544  17.747  0.00  0.00    +0.000 OA
ATOM     24  N   UNL     1      -1.182  10.206  18.675  0.00  0.00    +0.000 NA
ENDBRANCH  16  17
ENDBRANCH   3  16
TORSDOF 5
ENDMDL
MODEL 6
REMARK VINA RESULT:      -7.1      4.610      7.735
REMARK  Name = 
REMARK  5 active torsions:
REMARK  status: ('A' for Active; 'I' for Inactive)
REMARK    1  A    between atoms: C_2  and  C_10
REMARK    2  A    between atoms: N_3  and  C_4
REMARK    3  A    between atoms: C_4  and  C_5
REMARK    4  A    between atoms: C_12  and  C_13
REMARK    5  A    between atoms: C_13  and  N_14
REMARK                            x       y       z     vdW  Elec       q    Type
REMARK                         _______ _______ _______ _____ _____    ______ ____
ROOT
ATOM      1  C   UNL     1       7.649   7.606  17.676  0.00  0.00    +0.000 A 
ATOM      2  N   UNL     1       7.129   6.686  18.463  0.00  0.00    +0.000 NA
ATOM      3  C   UNL     1       7.020   5.609  17.611  0.00  0.00    +0.000 A 
ATOM      4  N   UNL     1       7.443   5.838  16.360  0.00  0.00    +0.000 NA
ATOM      5  O   UNL     1       7.867   7.166  16.399  0.00  0.00    +0.000 OA
ENDROOT
BRANCH   1   7
ATOM      6  O   UNL     1       7.521   9.954  17.459  0.00  0.00    +0.000 OA
ATOM      7  C   UNL     1       8.005   8.969  18.012  0.00  0.00    +0.000 C 
ATOM      8  N   UNL     1       8.963   9.096  19.000  0.00  0.00    +0.000 N 
ATOM      9  H   UNL     1       9.371   8.256  19.400  0.00  0.00    +0.000 HD
BRANCH   8  10
ATOM     10  C   UNL     1       9.461  10.387  19.450  0.00  0.00    +0.000 C 
BRANCH  10  11
ATOM     11  C   UNL     1      10.312  11.092  18.391  0.00  0.00    +0.000 C 
ATOM     12  C   UNL     1      11.683  11.547  18.865  0.00  0.00    +0.000 C 
ATOM     13  C   UNL     1      11.960  12.709  17.945  0.00  0.00    +0.000 C 
ATOM     14  C   UNL     1      10.588  13.328  17.782  0.00  0.00    +0.000 C 
ATOM     15  O   UNL     1       9.628  12.271  17.918  0.00  0.00    +0.000 OA
ENDBRANCH  10  11
ENDBRANCH   8  10
ENDBRANCH   1   7
BRANCH   3  16
ATOM     16  C   UNL     1       6.442   4.305  18.012  0.00  0.00    +0.000 C 
BRANCH  16  17
ATOM     17  N   UNL     1       5.006   4.415  18.236  0.00  0.00    +0.000 N 
ATOM     18  C   UNL     1       4.106   5.135  17.491  0.00  0.00    +0.000 A 
ATOM     19  C   UNL     1       2.898   5.041  18.144  0.00  0.00    +0.000 A 
ATOM     20  C   UNL     1       3.169   4.255  19.284  0.00  0.00    +0.000 A 
ATOM     21  N   UNL     1       2.253   3.856  20.339  0.00  0.00    +0.000 N 
ATOM     22  O   UNL     1       1.088   4.269  20.231  0.00  0.00    +0.000 OA
ATOM     23  O   UNL     1       2.680   3.147  21.261  0.00  0.00    +0.000 OA
ATOM     24  N   UNL     1       4.458   3.878  19.350  0.00  0.00    +0.000 NA
ENDBRANCH  16  17
ENDBRANCH   3  16
TORSDOF 5
ENDMDL
MODEL 7
REMARK VINA RESULT:      -7.1      5.132      7.818
REMARK  Name = 
REMARK  5 active torsions:
REMARK  status: ('A' for Active; 'I' for Inactive)
REMARK    1  A    between atoms: C_2  and  C_10
REMARK    2  A    between atoms: N_3  and  C_4
REMARK    3  A    between atoms: C_4  and  C_5
REMARK    4  A    between atoms: C_12  and  C_13
REMARK    5  A    between atoms: C_13  and  N_14
REMARK                            x       y       z     vdW  Elec       q    Type
REMARK                         _______ _______ _______ _____ _____    ______ ____
ROOT
ATOM      1  C   UNL     1       8.108   8.434  18.092  0.00  0.00    +0.000 A 
ATOM      2  N   UNL     1       8.261   7.245  18.640  0.00  0.00    +0.000 NA
ATOM      3  C   UNL     1       7.529   6.443  17.793  0.00  0.00    +0.000 A 
ATOM      4  N   UNL     1       6.946   7.088  16.773  0.00  0.00    +0.000 NA
ATOM      5  O   UNL     1       7.333   8.414  16.965  0.00  0.00    +0.000 OA
ENDROOT
BRANCH   1   7
ATOM      6  O   UNL     1       9.261   9.841  19.598  0.00  0.00    +0.000 OA
ATOM      7  C   UNL     1       8.660   9.697  18.535  0.00  0.00    +0.000 C 
ATOM      8  N   UNL     1       8.445  10.761  17.680  0.00  0.00    +0.000 N 
ATOM      9  H   UNL     1       7.905  10.610  16.833  0.00  0.00    +0.000 HD
BRANCH   8  10
ATOM     10  C   UNL     1       8.906  12.110  17.972  0.00  0.00    +0.000 C 
BRANCH  10  11
ATOM     11  C   UNL     1      10.428  12.245  17.880  0.00  0.00    +0.000 C 
ATOM     12  C   UNL     1      11.089  12.911  19.078  0.00  0.00    +0.000 C 
ATOM     13  C   UNL     1      12.333  13.497  18.459  0.00  0.00    +0.000 C 
ATOM     14  C   UNL     1      11.845  13.923  17.091  0.00  0.00    +0.000 C 
ATOM     15  O   UNL     1      10.781  13.034  16.725  0.00  0.00    +0.000 OA
ENDBRANCH  10  11
ENDBRANCH   8  10
ENDBRANCH   1   7
BRANCH   3  16
ATOM     16  C   UNL     1       7.349   4.986  17.999  0.00  0.00    +0.000 C 
BRANCH  16  17
ATOM     17  N   UNL     1       5.945   4.611  17.884  0.00  0.00    +0.000 N 
ATOM     18  C   UNL     1       5.320   4.074  16.787  0.00  0.00    +0.000 A 
ATOM     19  C   UNL     1       3.982   4.000  17.099  0.00  0.00    +0.000 A 
ATOM     20  C   UNL     1       3.890   4.530  18.403  0.00  0.00    +0.000 A 
ATOM     21  N   UNL     1       2.701   4.711  19.219  0.00  0.00    +0.000 N 
ATOM     22  O   UNL     1       1.628   4.367  18.699  0.00  0.00    +0.000 OA
ATOM     23  O   UNL     1       2.826   5.188  20.356  0.00  0.00    +0.000 OA
ATOM     24  N   UNL     1       5.086   4.914  18.884  0.00  0.00    +0.000 NA
ENDBRANCH  16  17
ENDBRANCH   3  16
TORSDOF 5
ENDMDL
MODEL 8
REMARK VINA RESULT:      -7.1      3.122      8.485
REMARK  Name = 
REMARK  5 active torsions:
REMARK  status: ('A' for Active; 'I' for Inactive)
REMARK    1  A    between atoms: C_2  and  C_10
REMARK    2  A    between atoms: N_3  and  C_4
REMARK    3  A    between atoms: C_4  and  C_5
REMARK    4  A    between atoms: C_12  and  C_13
REMARK    5  A    between atoms: C_13  and  N_14
REMARK                            x       y       z     vdW  Elec       q    Type
REMARK                         _______ _______ _______ _____ _____    ______ ____
ROOT
ATOM      1  C   UNL     1       5.890   5.612  16.575  0.00  0.00    +0.000 A 
ATOM      2  N   UNL     1       5.638   5.275  17.825  0.00  0.00    +0.000 NA
ATOM      3  C   UNL     1       4.630   6.151  18.160  0.00  0.00    +0.000 A 
ATOM      4  N   UNL     1       4.269   6.993  17.182  0.00  0.00    +0.000 NA
ATOM      5  O   UNL     1       5.102   6.635  16.122  0.00  0.00    +0.000 OA
ENDROOT
BRANCH   1   7
ATOM      6  O   UNL     1       7.894   4.480  16.050  0.00  0.00    +0.000 OA
ATOM      7  C   UNL     1       6.861   5.030  15.673  0.00  0.00    +0.000 C 
ATOM      8  N   UNL     1       6.561   5.154  14.331  0.00  0.00    +0.000 N 
ATOM      9  H   UNL     1       5.719   5.655  14.059  0.00  0.00    +0.000 HD
BRANCH   8  10
ATOM     10  C   UNL     1       7.433   4.651  13.280  0.00  0.00    +0.000 C 
BRANCH  10  11
ATOM     11  C   UNL     1       6.657   4.031  12.116  0.00  0.00    +0.000 C 
ATOM     12  C   UNL     1       5.214   3.662  12.428  0.00  0.00    +0.000 C 
ATOM     13  C   UNL     1       4.962   2.543  11.449  0.00  0.00    +0.000 C 
ATOM     14  C   UNL     1       6.299   1.834  11.415  0.00  0.00    +0.000 C 
ATOM     15  O   UNL     1       7.307   2.818  11.684  0.00  0.00    +0.000 OA
ENDBRANCH  10  11
ENDBRANCH   8  10
ENDBRANCH   1   7
BRANCH   3  16
ATOM     16  C   UNL     1       4.009   6.207  19.505  0.00  0.00    +0.000 C 
BRANCH  16  17
ATOM     17  N   UNL     1       2.851   5.327  19.584  0.00  0.00    +0.000 N 
ATOM     18  C   UNL     1       1.869   5.335  20.543  0.00  0.00    +0.000 A 
ATOM     19  C   UNL     1       1.057   4.256  20.279  0.00  0.00    +0.000 A 
ATOM     20  C   UNL     1       1.636   3.643  19.147  0.00  0.00    +0.000 A 
ATOM     21  N   UNL     1       1.198   2.446  18.450  0.00  0.00    +0.000 N 
ATOM     22  O   UNL     1       0.195   1.883  18.916  0.00  0.00    +0.000 OA
ATOM     23  O   UNL     1       1.837   2.066  17.459  0.00  0.00    +0.000 OA
ATOM     24  N   UNL     1       2.738   4.288  18.725  0.00  0.00    +0.000 NA
ENDBRANCH  16  17
ENDBRANCH   3  16
TORSDOF 5
ENDMDL
MODEL 9
REMARK VINA RESULT:      -7.0      4.994      7.423
REMARK  Name = 
REMARK  5 active torsions:
REMARK  status: ('A' for Active; 'I' for Inactive)
REMARK    1  A    between atoms: C_2  and  C_10
REMARK    2  A    between atoms: N_3  and  C_4
REMARK    3  A    between atoms: C_4  and  C_5
REMARK    4  A    between atoms: C_12  and  C_13
REMARK    5  A    between atoms: C_13  and  N_14
REMARK                            x       y       z     vdW  Elec       q    Type
REMARK                         _______ _______ _______ _____ _____    ______ ____
ROOT
ATOM      1  C   UNL     1       8.006   8.100  17.963  0.00  0.00    +0.000 A 
ATOM      2  N   UNL     1       7.372   7.696  16.880  0.00  0.00    +0.000 NA
ATOM      3  C   UNL     1       7.260   6.341  17.104  0.00  0.00    +0.000 A 
ATOM      4  N   UNL     1       7.795   5.916  18.257  0.00  0.00    +0.000 NA
ATOM      5  O   UNL     1       8.289   7.085  18.835  0.00  0.00    +0.000 OA
ENDROOT
BRANCH   1   7
ATOM      6  O   UNL     1       8.143  10.432  17.624  0.00  0.00    +0.000 OA
ATOM      7  C   UNL     1       8.405   9.448  18.311  0.00  0.00    +0.000 C 
ATOM      8  N   UNL     1       9.136   9.558  19.478  0.00  0.00    +0.000 N 
ATOM      9  H   UNL     1       9.371   8.714  19.993  0.00  0.00    +0.000 HD
BRANCH   8  10
ATOM     10  C   UNL     1       9.643  10.831  19.970  0.00  0.00    +0.000 C 
BRANCH  10  11
ATOM     11  C   UNL     1      10.477  11.577  18.927  0.00  0.00    +0.000 C 
ATOM     12  C   UNL     1      11.956  11.706  19.257  0.00  0.00    +0.000 C 
ATOM     13  C   UNL     1      12.332  12.961  18.511  0.00  0.00    +0.000 C 
ATOM     14  C   UNL     1      11.089  13.813  18.662  0.00  0.00    +0.000 C 
ATOM     15  O   UNL     1       9.973  12.919  18.765  0.00  0.00    +0.000 OA
ENDBRANCH  10  11
ENDBRANCH   8  10
ENDBRANCH   1   7
BRANCH   3  16
ATOM     16  C   UNL     1       6.642   5.402  16.139  0.00  0.00    +0.000 C 
BRANCH  16  17
ATOM     17  N   UNL     1       5.415   4.830  16.677  0.00  0.00    +0.000 N 
ATOM     18  C   UNL     1       4.954   3.549  16.506  0.00  0.00    +0.000 A 
ATOM     19  C   UNL     1       3.708   3.501  17.088  0.00  0.00    +0.000 A 
ATOM     20  C   UNL     1       3.493   4.808  17.576  0.00  0.00    +0.000 A 
ATOM     21  N   UNL     1       2.325   5.329  18.266  0.00  0.00    +0.000 N 
ATOM     22  O   UNL     1       1.394   4.527  18.439  0.00  0.00    +0.000 OA
ATOM     23  O   UNL     1       2.328   6.514  18.631  0.00  0.00    +0.000 OA
ATOM     24  N   UNL     1       4.529   5.626  17.319  0.00  0.00    +0.000 NA
ENDBRANCH  16  17
ENDBRANCH   3  16
TORSDOF 5
ENDMDL
