MODEL 1
REMARK VINA RESULT:      -8.9      0.000      0.000
REMARK  Name = 
REMARK  15 active torsions:
REMARK  status: ('A' for Active; 'I' for Inactive)
REMARK    1  A    between atoms: C_1  and  C_2
REMARK    2  A    between atoms: C_2  and  O_3
REMARK    3  A    between atoms: O_3  and  C_4
REMARK    4  A    between atoms: C_7  and  C_8
REMARK    5  A    between atoms: C_8  and  C_9
REMARK    6  A    between atoms: C_9  and  N_10
REMARK    7  A    between atoms: C_11  and  C_13
REMARK    8  A    between atoms: C_13  and  C_14
REMARK    9  A    between atoms: C_14  and  C_15
REMARK   10  A    between atoms: C_16  and  C_17
REMARK   11  A    between atoms: C_21  and  C_22
REMARK   12  A    between atoms: N_24  and  C_25
REMARK   13  A    between atoms: C_28  and  C_29
REMARK   14  A    between atoms: C_30  and  C_31
REMARK   15  A    between atoms: C_33  and  C_34
REMARK                            x       y       z     vdW  Elec       q    Type
REMARK                         _______ _______ _______ _____ _____    ______ ____
ROOT
ATOM      1  C   UNL     1       4.267   5.050  17.501  0.00  0.00    +0.000 A 
ATOM      2  C   UNL     1       3.950   6.412  17.364  0.00  0.00    +0.000 A 
ATOM      3  C   UNL     1       4.483   7.308  16.280  0.00  0.00    +0.000 C 
ATOM      4  N   UNL     1       3.146   7.074  18.208  0.00  0.00    +0.000 NA
ATOM      5  C   UNL     1       2.651   6.356  19.232  0.00  0.00    +0.000 A 
ATOM      6  C   UNL     1       2.883   5.015  19.506  0.00  0.00    +0.000 A 
ATOM      7  C   UNL     1       2.146   4.792  20.712  0.00  0.00    +0.000 A 
ATOM      8  C   UNL     1       1.883   3.552  21.489  0.00  0.00    +0.000 C 
ATOM      9  N   UNL     1       1.626   5.925  21.207  0.00  0.00    +0.000 NA
ATOM     10  N   UNL     1       1.842   6.851  20.239  0.00  0.00    +0.000 N 
ATOM     11  C   UNL     1       3.706   4.303  18.591  0.00  0.00    +0.000 A 
ATOM     12  C   UNL     1       4.028   2.836  18.719  0.00  0.00    +0.000 C 
ENDROOT
BRANCH  10  13
ATOM     13  C   UNL     1       1.250   8.139  20.319  0.00  0.00    +0.000 A 
ATOM     14  C   UNL     1       1.280   9.002  19.222  0.00  0.00    +0.000 A 
ATOM     15  C   UNL     1       0.636  10.237  19.289  0.00  0.00    +0.000 A 
ATOM     16  C   UNL     1      -0.011  10.648  20.463  0.00  0.00    +0.000 A 
ATOM     17  C   UNL     1      -0.731  11.968  20.463  0.00  0.00    +0.000 C 
ATOM     18  C   UNL     1       0.014   9.809  21.596  0.00  0.00    +0.000 A 
ATOM     19  C   UNL     1      -0.554  10.212  22.929  0.00  0.00    +0.000 C 
ATOM     20  C   UNL     1       0.613   8.539  21.499  0.00  0.00    +0.000 A 
ENDBRANCH  10  13
BRANCH   1  21
ATOM     21  C   UNL     1       5.216   4.381  16.524  0.00  0.00    +0.000 C 
BRANCH  21  22
ATOM     22  C   UNL     1       6.671   4.384  17.005  0.00  0.00    +0.000 C 
BRANCH  22  24
ATOM     23  N   UNL     1       7.348   6.570  17.853  0.00  0.00    +0.000 N 
ATOM     24  C   UNL     1       7.294   5.742  16.755  0.00  0.00    +0.000 C 
ATOM     25  O   UNL     1       7.730   6.077  15.659  0.00  0.00    +0.000 OA
ATOM     26  H   UNL     1       6.853   6.320  18.703  0.00  0.00    +0.000 HD
BRANCH  23  27
ATOM     27  C   UNL     1       7.905   7.908  17.698  0.00  0.00    +0.000 C 
BRANCH  27  28
ATOM     28  C   UNL     1       8.759   8.369  18.878  0.00  0.00    +0.000 C 
BRANCH  28  32
ATOM     29  C   UNL     1       9.282  12.664  18.889  0.00  0.00    +0.000 A 
ATOM     30  C   UNL     1       8.778  12.016  17.762  0.00  0.00    +0.000 A 
ATOM     31  C   UNL     1       8.600  10.630  17.759  0.00  0.00    +0.000 A 
ATOM     32  C   UNL     1       8.938   9.868  18.885  0.00  0.00    +0.000 A 
ATOM     33  C   UNL     1       9.479  10.521  20.001  0.00  0.00    +0.000 A 
ATOM     34  C   UNL     1       9.655  11.911  20.000  0.00  0.00    +0.000 A 
BRANCH  29  35
ATOM     35  O   UNL     1       9.379  14.025  18.787  0.00  0.00    +0.000 OA
BRANCH  35  37
ATOM     36  C   UNL     1      10.896  15.846  18.535  0.00  0.00    +0.000 C 
ATOM     37  C   UNL     1      10.552  14.613  19.351  0.00  0.00    +0.000 C 
ENDBRANCH  35  37
ENDBRANCH  29  35
ENDBRANCH  28  32
ENDBRANCH  27  28
ENDBRANCH  23  27
ENDBRANCH  22  24
ENDBRANCH  21  22
ENDBRANCH   1  21
TORSDOF 9
ENDMDL
MODEL 2
REMARK VINA RESULT:      -8.8      1.046      1.085
REMARK  Name = 
REMARK  15 active torsions:
REMARK  status: ('A' for Active; 'I' for Inactive)
REMARK    1  A    between atoms: C_1  and  C_2
REMARK    2  A    between atoms: C_2  and  O_3
REMARK    3  A    between atoms: O_3  and  C_4
REMARK    4  A    between atoms: C_7  and  C_8
REMARK    5  A    between atoms: C_8  and  C_9
REMARK    6  A    between atoms: C_9  and  N_10
REMARK    7  A    between atoms: C_11  and  C_13
REMARK    8  A    between atoms: C_13  and  C_14
REMARK    9  A    between atoms: C_14  and  C_15
REMARK   10  A    between atoms: C_16  and  C_17
REMARK   11  A    between atoms: C_21  and  C_22
REMARK   12  A    between atoms: N_24  and  C_25
REMARK   13  A    between atoms: C_28  and  C_29
REMARK   14  A    between atoms: C_30  and  C_31
REMARK   15  A    between atoms: C_33  and  C_34
REMARK                            x       y       z     vdW  Elec       q    Type
REMARK                         _______ _______ _______ _____ _____    ______ ____
ROOT
ATOM      1  C   UNL     1       4.451   5.140  17.344  0.00  0.00    +0.000 A 
ATOM      2  C   UNL     1       4.202   6.523  17.341  0.00  0.00    +0.000 A 
ATOM      3  C   UNL     1       4.853   7.506  16.408  0.00  0.00    +0.000 C 
ATOM      4  N   UNL     1       3.363   7.126  18.195  0.00  0.00    +0.000 NA
ATOM      5  C   UNL     1       2.761   6.325  19.092  0.00  0.00    +0.000 A 
ATOM      6  C   UNL     1       2.916   4.952  19.227  0.00  0.00    +0.000 A 
ATOM      7  C   UNL     1       2.080   4.633  20.343  0.00  0.00    +0.000 A 
ATOM      8  C   UNL     1       1.706   3.330  20.953  0.00  0.00    +0.000 C 
ATOM      9  N   UNL     1       1.570   5.729  20.926  0.00  0.00    +0.000 NA
ATOM     10  N   UNL     1       1.899   6.745  20.088  0.00  0.00    +0.000 N 
ATOM     11  C   UNL     1       3.777   4.306  18.298  0.00  0.00    +0.000 A 
ATOM     12  C   UNL     1       4.027   2.819  18.281  0.00  0.00    +0.000 C 
ENDROOT
BRANCH  10  13
ATOM     13  C   UNL     1       1.356   8.044  20.272  0.00  0.00    +0.000 A 
ATOM     14  C   UNL     1       1.487   9.015  19.277  0.00  0.00    +0.000 A 
ATOM     15  C   UNL     1       0.891  10.264  19.439  0.00  0.00    +0.000 A 
ATOM     16  C   UNL     1       0.191  10.581  20.612  0.00  0.00    +0.000 A 
ATOM     17  C   UNL     1      -0.473  11.926  20.713  0.00  0.00    +0.000 C 
ATOM     18  C   UNL     1       0.114   9.628  21.649  0.00  0.00    +0.000 A 
ATOM     19  C   UNL     1      -0.516   9.916  22.983  0.00  0.00    +0.000 C 
ATOM     20  C   UNL     1       0.665   8.348  21.451  0.00  0.00    +0.000 A 
ENDBRANCH  10  13
BRANCH   1  21
ATOM     21  C   UNL     1       5.444   4.537  16.369  0.00  0.00    +0.000 C 
BRANCH  21  22
ATOM     22  C   UNL     1       6.796   4.213  17.013  0.00  0.00    +0.000 C 
BRANCH  22  24
ATOM     23  N   UNL     1       7.839   6.365  17.495  0.00  0.00    +0.000 N 
ATOM     24  C   UNL     1       7.160   5.287  18.016  0.00  0.00    +0.000 C 
ATOM     25  O   UNL     1       6.862   5.212  19.203  0.00  0.00    +0.000 OA
ATOM     26  H   UNL     1       8.194   6.331  16.546  0.00  0.00    +0.000 HD
BRANCH  23  27
ATOM     27  C   UNL     1       8.257   7.434  18.394  0.00  0.00    +0.000 C 
BRANCH  27  28
ATOM     28  C   UNL     1       7.864   8.834  17.924  0.00  0.00    +0.000 C 
BRANCH  28  32
ATOM     29  C   UNL     1      10.510  11.854  19.535  0.00  0.00    +0.000 A 
ATOM     30  C   UNL     1      10.425  11.651  18.158  0.00  0.00    +0.000 A 
ATOM     31  C   UNL     1       9.564  10.681  17.635  0.00  0.00    +0.000 A 
ATOM     32  C   UNL     1       8.784   9.890  18.487  0.00  0.00    +0.000 A 
ATOM     33  C   UNL     1       8.902  10.074  19.872  0.00  0.00    +0.000 A 
ATOM     34  C   UNL     1       9.766  11.047  20.393  0.00  0.00    +0.000 A 
BRANCH  29  35
ATOM     35  O   UNL     1      11.359  12.852  19.927  0.00  0.00    +0.000 OA
BRANCH  35  37
ATOM     36  C   UNL     1       9.904  14.739  19.841  0.00  0.00    +0.000 C 
ATOM     37  C   UNL     1      10.784  13.881  20.734  0.00  0.00    +0.000 C 
ENDBRANCH  35  37
ENDBRANCH  29  35
ENDBRANCH  28  32
ENDBRANCH  27  28
ENDBRANCH  23  27
ENDBRANCH  22  24
ENDBRANCH  21  22
ENDBRANCH   1  21
TORSDOF 9
ENDMDL
MODEL 3
REMARK VINA RESULT:      -8.5      5.020      9.141
REMARK  Name = 
REMARK  15 active torsions:
REMARK  status: ('A' for Active; 'I' for Inactive)
REMARK    1  A    between atoms: C_1  and  C_2
REMARK    2  A    between atoms: C_2  and  O_3
REMARK    3  A    between atoms: O_3  and  C_4
REMARK    4  A    between atoms: C_7  and  C_8
REMARK    5  A    between atoms: C_8  and  C_9
REMARK    6  A    between atoms: C_9  and  N_10
REMARK    7  A    between atoms: C_11  and  C_13
REMARK    8  A    between atoms: C_13  and  C_14
REMARK    9  A    between atoms: C_14  and  C_15
REMARK   10  A    between atoms: C_16  and  C_17
REMARK   11  A    between atoms: C_21  and  C_22
REMARK   12  A    between atoms: N_24  and  C_25
REMARK   13  A    between atoms: C_28  and  C_29
REMARK   14  A    between atoms: C_30  and  C_31
REMARK   15  A    between atoms: C_33  and  C_34
REMARK                            x       y       z     vdW  Elec       q    Type
REMARK                         _______ _______ _______ _____ _____    ______ ____
ROOT
ATOM      1  C   UNL     1       2.109   5.812  19.702  0.00  0.00    +0.000 A 
ATOM      2  C   UNL     1       2.706   6.493  18.627  0.00  0.00    +0.000 A 
ATOM      3  C   UNL     1       2.482   7.945  18.305  0.00  0.00    +0.000 C 
ATOM      4  N   UNL     1       3.533   5.910  17.749  0.00  0.00    +0.000 NA
ATOM      5  C   UNL     1       3.763   4.598  17.940  0.00  0.00    +0.000 A 
ATOM      6  C   UNL     1       3.239   3.792  18.941  0.00  0.00    +0.000 A 
ATOM      7  C   UNL     1       3.784   2.502  18.647  0.00  0.00    +0.000 A 
ATOM      8  C   UNL     1       3.709   1.212  19.380  0.00  0.00    +0.000 C 
ATOM      9  N   UNL     1       4.466   2.491  17.492  0.00  0.00    +0.000 NA
ATOM     10  N   UNL     1       4.544   3.796  17.128  0.00  0.00    +0.000 N 
ATOM     11  C   UNL     1       2.390   4.418  19.895  0.00  0.00    +0.000 A 
ATOM     12  C   UNL     1       1.768   3.698  21.064  0.00  0.00    +0.000 C 
ENDROOT
BRANCH  10  13
ATOM     13  C   UNL     1       5.371   4.202  16.048  0.00  0.00    +0.000 A 
ATOM     14  C   UNL     1       6.352   5.179  16.235  0.00  0.00    +0.000 A 
ATOM     15  C   UNL     1       7.204   5.521  15.186  0.00  0.00    +0.000 A 
ATOM     16  C   UNL     1       7.066   4.926  13.923  0.00  0.00    +0.000 A 
ATOM     17  C   UNL     1       8.044   5.296  12.843  0.00  0.00    +0.000 C 
ATOM     18  C   UNL     1       6.035   3.989  13.711  0.00  0.00    +0.000 A 
ATOM     19  C   UNL     1       5.739   3.383  12.367  0.00  0.00    +0.000 C 
ATOM     20  C   UNL     1       5.219   3.604  14.792  0.00  0.00    +0.000 A 
ENDBRANCH  10  13
BRANCH   1  21
ATOM     21  C   UNL     1       1.153   6.535  20.631  0.00  0.00    +0.000 C 
BRANCH  21  22
ATOM     22  C   UNL     1       1.730   7.842  21.186  0.00  0.00    +0.000 C 
BRANCH  22  24
ATOM     23  N   UNL     1       1.032  10.145  21.587  0.00  0.00    +0.000 N 
ATOM     24  C   UNL     1       0.617   8.846  21.404  0.00  0.00    +0.000 C 
ATOM     25  O   UNL     1      -0.567   8.529  21.407  0.00  0.00    +0.000 OA
ATOM     26  H   UNL     1       2.016  10.351  21.722  0.00  0.00    +0.000 HD
BRANCH  23  27
ATOM     27  C   UNL     1       0.030  11.175  21.834  0.00  0.00    +0.000 C 
BRANCH  27  28
ATOM     28  C   UNL     1      -0.121  12.185  20.697  0.00  0.00    +0.000 C 
BRANCH  28  32
ATOM     29  C   UNL     1      -2.894  10.783  17.686  0.00  0.00    +0.000 A 
ATOM     30  C   UNL     1      -3.314  11.674  18.674  0.00  0.00    +0.000 A 
ATOM     31  C   UNL     1      -2.417  12.135  19.642  0.00  0.00    +0.000 A 
ATOM     32  C   UNL     1      -1.087  11.698  19.643  0.00  0.00    +0.000 A 
ATOM     33  C   UNL     1      -0.681  10.774  18.670  0.00  0.00    +0.000 A 
ATOM     34  C   UNL     1      -1.582  10.315  17.700  0.00  0.00    +0.000 A 
BRANCH  29  35
ATOM     35  O   UNL     1      -3.850  10.431  16.773  0.00  0.00    +0.000 OA
BRANCH  35  37
ATOM     36  C   UNL     1      -3.151  10.447  14.494  0.00  0.00    +0.000 C 
ATOM     37  C   UNL     1      -3.417   9.579  15.711  0.00  0.00    +0.000 C 
ENDBRANCH  35  37
ENDBRANCH  29  35
ENDBRANCH  28  32
ENDBRANCH  27  28
ENDBRANCH  23  27
ENDBRANCH  22  24
ENDBRANCH  21  22
ENDBRANCH   1  21
TORSDOF 9
ENDMDL
MODEL 4
REMARK VINA RESULT:      -8.4      4.184      8.457
REMARK  Name = 
REMARK  15 active torsions:
REMARK  status: ('A' for Active; 'I' for Inactive)
REMARK    1  A    between atoms: C_1  and  C_2
REMARK    2  A    between atoms: C_2  and  O_3
REMARK    3  A    between atoms: O_3  and  C_4
REMARK    4  A    between atoms: C_7  and  C_8
REMARK    5  A    between atoms: C_8  and  C_9
REMARK    6  A    between atoms: C_9  and  N_10
REMARK    7  A    between atoms: C_11  and  C_13
REMARK    8  A    between atoms: C_13  and  C_14
REMARK    9  A    between atoms: C_14  and  C_15
REMARK   10  A    between atoms: C_16  and  C_17
REMARK   11  A    between atoms: C_21  and  C_22
REMARK   12  A    between atoms: N_24  and  C_25
REMARK   13  A    between atoms: C_28  and  C_29
REMARK   14  A    between atoms: C_30  and  C_31
REMARK   15  A    between atoms: C_33  and  C_34
REMARK                            x       y       z     vdW  Elec       q    Type
REMARK                         _______ _______ _______ _____ _____    ______ ____
ROOT
ATOM      1  C   UNL     1      -0.044  10.543  20.745  0.00  0.00    +0.000 A 
ATOM      2  C   UNL     1       0.412  11.221  19.602  0.00  0.00    +0.000 A 
ATOM      3  C   UNL     1       0.980  10.551  18.381  0.00  0.00    +0.000 C 
ATOM      4  N   UNL     1       0.413  12.556  19.483  0.00  0.00    +0.000 NA
ATOM      5  C   UNL     1      -0.047  13.240  20.546  0.00  0.00    +0.000 A 
ATOM      6  C   UNL     1      -0.516  12.715  21.743  0.00  0.00    +0.000 A 
ATOM      7  C   UNL     1      -0.835  13.879  22.512  0.00  0.00    +0.000 A 
ATOM      8  C   UNL     1      -1.477  14.032  23.844  0.00  0.00    +0.000 C 
ATOM      9  N   UNL     1      -0.465  15.012  21.897  0.00  0.00    +0.000 NA
ATOM     10  N   UNL     1      -0.091  14.619  20.653  0.00  0.00    +0.000 N 
ATOM     11  C   UNL     1      -0.550  11.298  21.856  0.00  0.00    +0.000 A 
ATOM     12  C   UNL     1      -1.064  10.566  23.070  0.00  0.00    +0.000 C 
ENDROOT
BRANCH  10  13
ATOM     13  C   UNL     1       0.179  15.574  19.639  0.00  0.00    +0.000 A 
ATOM     14  C   UNL     1      -0.821  16.448  19.204  0.00  0.00    +0.000 A 
ATOM     15  C   UNL     1      -0.526  17.428  18.257  0.00  0.00    +0.000 A 
ATOM     16  C   UNL     1       0.756  17.525  17.696  0.00  0.00    +0.000 A 
ATOM     17  C   UNL     1       1.030  18.631  16.716  0.00  0.00    +0.000 C 
ATOM     18  C   UNL     1       1.749  16.601  18.081  0.00  0.00    +0.000 A 
ATOM     19  C   UNL     1       3.116  16.557  17.454  0.00  0.00    +0.000 C 
ATOM     20  C   UNL     1       1.461  15.656  19.083  0.00  0.00    +0.000 A 
ENDBRANCH  10  13
BRANCH   1  21
ATOM     21  C   UNL     1       0.023   9.029  20.817  0.00  0.00    +0.000 C 
BRANCH  21  22
ATOM     22  C   UNL     1       1.334   8.516  21.422  0.00  0.00    +0.000 C 
BRANCH  22  24
ATOM     23  N   UNL     1       1.804   6.193  20.842  0.00  0.00    +0.000 N 
ATOM     24  C   UNL     1       1.975   7.512  20.487  0.00  0.00    +0.000 C 
ATOM     25  O   UNL     1       2.592   7.846  19.481  0.00  0.00    +0.000 OA
ATOM     26  H   UNL     1       1.415   5.957  21.749  0.00  0.00    +0.000 HD
BRANCH  23  27
ATOM     27  C   UNL     1       2.412   5.158  20.016  0.00  0.00    +0.000 C 
BRANCH  27  28
ATOM     28  C   UNL     1       2.148   5.318  18.519  0.00  0.00    +0.000 C 
BRANCH  28  32
ATOM     29  C   UNL     1       5.687   4.515  16.163  0.00  0.00    +0.000 A 
ATOM     30  C   UNL     1       5.315   5.827  16.456  0.00  0.00    +0.000 A 
ATOM     31  C   UNL     1       4.177   6.088  17.225  0.00  0.00    +0.000 A 
ATOM     32  C   UNL     1       3.385   5.036  17.701  0.00  0.00    +0.000 A 
ATOM     33  C   UNL     1       3.743   3.722  17.371  0.00  0.00    +0.000 A 
ATOM     34  C   UNL     1       4.885   3.463  16.601  0.00  0.00    +0.000 A 
BRANCH  29  35
ATOM     35  O   UNL     1       6.837   4.382  15.434  0.00  0.00    +0.000 OA
BRANCH  35  37
ATOM     36  C   UNL     1       6.048   3.743  13.277  0.00  0.00    +0.000 C 
ATOM     37  C   UNL     1       6.769   4.816  14.075  0.00  0.00    +0.000 C 
ENDBRANCH  35  37
ENDBRANCH  29  35
ENDBRANCH  28  32
ENDBRANCH  27  28
ENDBRANCH  23  27
ENDBRANCH  22  24
ENDBRANCH  21  22
ENDBRANCH   1  21
TORSDOF 9
ENDMDL
MODEL 5
REMARK VINA RESULT:      -8.4      0.631      1.457
REMARK  Name = 
REMARK  15 active torsions:
REMARK  status: ('A' for Active; 'I' for Inactive)
REMARK    1  A    between atoms: C_1  and  C_2
REMARK    2  A    between atoms: C_2  and  O_3
REMARK    3  A    between atoms: O_3  and  C_4
REMARK    4  A    between atoms: C_7  and  C_8
REMARK    5  A    between atoms: C_8  and  C_9
REMARK    6  A    between atoms: C_9  and  N_10
REMARK    7  A    between atoms: C_11  and  C_13
REMARK    8  A    between atoms: C_13  and  C_14
REMARK    9  A    between atoms: C_14  and  C_15
REMARK   10  A    between atoms: C_16  and  C_17
REMARK   11  A    between atoms: C_21  and  C_22
REMARK   12  A    between atoms: N_24  and  C_25
REMARK   13  A    between atoms: C_28  and  C_29
REMARK   14  A    between atoms: C_30  and  C_31
REMARK   15  A    between atoms: C_33  and  C_34
REMARK                            x       y       z     vdW  Elec       q    Type
REMARK                         _______ _______ _______ _____ _____    ______ ____
ROOT
ATOM      1  C   UNL     1       4.240   5.170  17.605  0.00  0.00    +0.000 A 
ATOM      2  C   UNL     1       3.893   6.528  17.499  0.00  0.00    +0.000 A 
ATOM      3  C   UNL     1       4.393   7.457  16.428  0.00  0.00    +0.000 C 
ATOM      4  N   UNL     1       3.086   7.155  18.367  0.00  0.00    +0.000 NA
ATOM      5  C   UNL     1       2.619   6.407  19.382  0.00  0.00    +0.000 A 
ATOM      6  C   UNL     1       2.883   5.065  19.626  0.00  0.00    +0.000 A 
ATOM      7  C   UNL     1       2.166   4.802  20.836  0.00  0.00    +0.000 A 
ATOM      8  C   UNL     1       1.939   3.542  21.591  0.00  0.00    +0.000 C 
ATOM      9  N   UNL     1       1.629   5.914  21.361  0.00  0.00    +0.000 NA
ATOM     10  N   UNL     1       1.814   6.864  20.409  0.00  0.00    +0.000 N 
ATOM     11  C   UNL     1       3.709   4.390  18.686  0.00  0.00    +0.000 A 
ATOM     12  C   UNL     1       4.062   2.927  18.781  0.00  0.00    +0.000 C 
ENDROOT
BRANCH  10  13
ATOM     13  C   UNL     1       1.196   8.137  20.523  0.00  0.00    +0.000 A 
ATOM     14  C   UNL     1       1.157   8.798  21.753  0.00  0.00    +0.000 A 
ATOM     15  C   UNL     1       0.610  10.078  21.839  0.00  0.00    +0.000 A 
ATOM     16  C   UNL     1       0.054  10.701  20.712  0.00  0.00    +0.000 A 
ATOM     17  C   UNL     1      -0.478  12.099  20.852  0.00  0.00    +0.000 C 
ATOM     18  C   UNL     1       0.030  10.009  19.484  0.00  0.00    +0.000 A 
ATOM     19  C   UNL     1      -0.643  10.549  18.251  0.00  0.00    +0.000 C 
ATOM     20  C   UNL     1       0.640   8.745  19.392  0.00  0.00    +0.000 A 
ENDBRANCH  10  13
BRANCH   1  21
ATOM     21  C   UNL     1       5.190   4.542  16.603  0.00  0.00    +0.000 C 
BRANCH  21  22
ATOM     22  C   UNL     1       6.648   4.546  17.075  0.00  0.00    +0.000 C 
BRANCH  22  24
ATOM     23  N   UNL     1       7.389   6.698  17.956  0.00  0.00    +0.000 N 
ATOM     24  C   UNL     1       7.263   5.909  16.834  0.00  0.00    +0.000 C 
ATOM     25  O   UNL     1       7.633   6.281  15.726  0.00  0.00    +0.000 OA
ATOM     26  H   UNL     1       6.946   6.420  18.825  0.00  0.00    +0.000 HD
BRANCH  23  27
ATOM     27  C   UNL     1       7.944   8.038  17.814  0.00  0.00    +0.000 C 
BRANCH  27  28
ATOM     28  C   UNL     1       8.861   8.459  18.960  0.00  0.00    +0.000 C 
BRANCH  28  32
ATOM     29  C   UNL     1       9.409  12.750  19.075  0.00  0.00    +0.000 A 
ATOM     30  C   UNL     1       9.523  11.991  20.240  0.00  0.00    +0.000 A 
ATOM     31  C   UNL     1       9.355  10.604  20.204  0.00  0.00    +0.000 A 
ATOM     32  C   UNL     1       9.056   9.956  18.998  0.00  0.00    +0.000 A 
ATOM     33  C   UNL     1       8.906  10.728  17.838  0.00  0.00    +0.000 A 
ATOM     34  C   UNL     1       9.076  12.119  17.878  0.00  0.00    +0.000 A 
BRANCH  29  35
ATOM     35  O   UNL     1       9.629  14.091  19.228  0.00  0.00    +0.000 OA
BRANCH  35  37
ATOM     36  C   UNL     1       9.097  15.984  17.879  0.00  0.00    +0.000 C 
ATOM     37  C   UNL     1       8.551  14.949  18.847  0.00  0.00    +0.000 C 
ENDBRANCH  35  37
ENDBRANCH  29  35
ENDBRANCH  28  32
ENDBRANCH  27  28
ENDBRANCH  23  27
ENDBRANCH  22  24
ENDBRANCH  21  22
ENDBRANCH   1  21
TORSDOF 9
ENDMDL
MODEL 6
REMARK VINA RESULT:      -8.3      3.411      7.534
REMARK  Name = 
REMARK  15 active torsions:
REMARK  status: ('A' for Active; 'I' for Inactive)
REMARK    1  A    between atoms: C_1  and  C_2
REMARK    2  A    between atoms: C_2  and  O_3
REMARK    3  A    between atoms: O_3  and  C_4
REMARK    4  A    between atoms: C_7  and  C_8
REMARK    5  A    between atoms: C_8  and  C_9
REMARK    6  A    between atoms: C_9  and  N_10
REMARK    7  A    between atoms: C_11  and  C_13
REMARK    8  A    between atoms: C_13  and  C_14
REMARK    9  A    between atoms: C_14  and  C_15
REMARK   10  A    between atoms: C_16  and  C_17
REMARK   11  A    between atoms: C_21  and  C_22
REMARK   12  A    between atoms: N_24  and  C_25
REMARK   13  A    between atoms: C_28  and  C_29
REMARK   14  A    between atoms: C_30  and  C_31
REMARK   15  A    between atoms: C_33  and  C_34
REMARK                            x       y       z     vdW  Elec       q    Type
REMARK                         _______ _______ _______ _____ _____    ______ ____
ROOT
ATOM      1  C   UNL     1       2.213   6.272  19.712  0.00  0.00    +0.000 A 
ATOM      2  C   UNL     1       2.685   6.804  18.500  0.00  0.00    +0.000 A 
ATOM      3  C   UNL     1       2.268   8.133  17.931  0.00  0.00    +0.000 C 
ATOM      4  N   UNL     1       3.551   6.168  17.699  0.00  0.00    +0.000 NA
ATOM      5  C   UNL     1       3.951   4.953  18.114  0.00  0.00    +0.000 A 
ATOM      6  C   UNL     1       3.565   4.293  19.273  0.00  0.00    +0.000 A 
ATOM      7  C   UNL     1       4.260   3.045  19.190  0.00  0.00    +0.000 A 
ATOM      8  C   UNL     1       4.372   1.915  20.150  0.00  0.00    +0.000 C 
ATOM      9  N   UNL     1       4.901   2.897  18.021  0.00  0.00    +0.000 NA
ATOM     10  N   UNL     1       4.801   4.110  17.421  0.00  0.00    +0.000 N 
ATOM     11  C   UNL     1       2.674   4.983  20.141  0.00  0.00    +0.000 A 
ATOM     12  C   UNL     1       2.186   4.426  21.454  0.00  0.00    +0.000 C 
ENDROOT
BRANCH  10  13
ATOM     13  C   UNL     1       5.536   4.401  16.242  0.00  0.00    +0.000 A 
ATOM     14  C   UNL     1       6.662   5.226  16.293  0.00  0.00    +0.000 A 
ATOM     15  C   UNL     1       7.416   5.449  15.142  0.00  0.00    +0.000 A 
ATOM     16  C   UNL     1       7.036   4.889  13.913  0.00  0.00    +0.000 A 
ATOM     17  C   UNL     1       7.913   5.123  12.715  0.00  0.00    +0.000 C 
ATOM     18  C   UNL     1       5.863   4.111  13.843  0.00  0.00    +0.000 A 
ATOM     19  C   UNL     1       5.317   3.564  12.552  0.00  0.00    +0.000 C 
ATOM     20  C   UNL     1       5.143   3.840  15.021  0.00  0.00    +0.000 A 
ENDBRANCH  10  13
BRANCH   1  21
ATOM     21  C   UNL     1       1.203   7.038  20.545  0.00  0.00    +0.000 C 
BRANCH  21  22
ATOM     22  C   UNL     1       1.834   8.177  21.354  0.00  0.00    +0.000 C 
BRANCH  22  24
ATOM     23  N   UNL     1       0.257   9.923  20.707  0.00  0.00    +0.000 N 
ATOM     24  C   UNL     1       0.771   9.181  21.747  0.00  0.00    +0.000 C 
ATOM     25  O   UNL     1       0.385   9.317  22.903  0.00  0.00    +0.000 OA
ATOM     26  H   UNL     1       0.695   9.888  19.793  0.00  0.00    +0.000 HD
BRANCH  23  27
ATOM     27  C   UNL     1      -0.751  10.935  20.997  0.00  0.00    +0.000 C 
BRANCH  27  28
ATOM     28  C   UNL     1      -0.824  12.057  19.963  0.00  0.00    +0.000 C 
BRANCH  28  32
ATOM     29  C   UNL     1       3.028  13.925  19.339  0.00  0.00    +0.000 A 
ATOM     30  C   UNL     1       2.356  14.078  20.552  0.00  0.00    +0.000 A 
ATOM     31  C   UNL     1       1.115  13.469  20.759  0.00  0.00    +0.000 A 
ATOM     32  C   UNL     1       0.522  12.705  19.746  0.00  0.00    +0.000 A 
ATOM     33  C   UNL     1       1.185  12.586  18.516  0.00  0.00    +0.000 A 
ATOM     34  C   UNL     1       2.429  13.198  18.313  0.00  0.00    +0.000 A 
BRANCH  29  35
ATOM     35  O   UNL     1       4.249  14.539  19.267  0.00  0.00    +0.000 OA
BRANCH  35  37
ATOM     36  C   UNL     1       6.155  14.764  17.853  0.00  0.00    +0.000 C 
ATOM     37  C   UNL     1       4.655  14.971  17.967  0.00  0.00    +0.000 C 
ENDBRANCH  35  37
ENDBRANCH  29  35
ENDBRANCH  28  32
ENDBRANCH  27  28
ENDBRANCH  23  27
ENDBRANCH  22  24
ENDBRANCH  21  22
ENDBRANCH   1  21
TORSDOF 9
ENDMDL
MODEL 7
REMARK VINA RESULT:      -8.3      4.549      7.372
REMARK  Name = 
REMARK  15 active torsions:
REMARK  status: ('A' for Active; 'I' for Inactive)
REMARK    1  A    between atoms: C_1  and  C_2
REMARK    2  A    between atoms: C_2  and  O_3
REMARK    3  A    between atoms: O_3  and  C_4
REMARK    4  A    between atoms: C_7  and  C_8
REMARK    5  A    between atoms: C_8  and  C_9
REMARK    6  A    between atoms: C_9  and  N_10
REMARK    7  A    between atoms: C_11  and  C_13
REMARK    8  A    between atoms: C_13  and  C_14
REMARK    9  A    between atoms: C_14  and  C_15
REMARK   10  A    between atoms: C_16  and  C_17
REMARK   11  A    between atoms: C_21  and  C_22
REMARK   12  A    between atoms: N_24  and  C_25
REMARK   13  A    between atoms: C_28  and  C_29
REMARK   14  A    between atoms: C_30  and  C_31
REMARK   15  A    between atoms: C_33  and  C_34
REMARK                            x       y       z     vdW  Elec       q    Type
REMARK                         _______ _______ _______ _____ _____    ______ ____
ROOT
ATOM      1  C   UNL     1       1.048   9.190  20.217  0.00  0.00    +0.000 A 
ATOM      2  C   UNL     1       0.829   9.700  21.508  0.00  0.00    +0.000 A 
ATOM      3  C   UNL     1       1.540   9.227  22.746  0.00  0.00    +0.000 C 
ATOM      4  N   UNL     1      -0.067  10.659  21.783  0.00  0.00    +0.000 NA
ATOM      5  C   UNL     1      -0.777  11.117  20.737  0.00  0.00    +0.000 A 
ATOM      6  C   UNL     1      -0.683  10.705  19.414  0.00  0.00    +0.000 A 
ATOM      7  C   UNL     1      -1.678  11.491  18.751  0.00  0.00    +0.000 A 
ATOM      8  C   UNL     1      -2.033  11.621  17.314  0.00  0.00    +0.000 C 
ATOM      9  N   UNL     1      -2.410  12.215  19.612  0.00  0.00    +0.000 NA
ATOM     10  N   UNL     1      -1.779  12.068  20.804  0.00  0.00    +0.000 N 
ATOM     11  C   UNL     1       0.292   9.713  19.115  0.00  0.00    +0.000 A 
ATOM     12  C   UNL     1       0.549   9.183  17.728  0.00  0.00    +0.000 C 
ENDROOT
BRANCH  10  13
ATOM     13  C   UNL     1      -2.151  12.854  21.925  0.00  0.00    +0.000 A 
ATOM     14  C   UNL     1      -1.623  14.136  22.100  0.00  0.00    +0.000 A 
ATOM     15  C   UNL     1      -2.048  14.926  23.166  0.00  0.00    +0.000 A 
ATOM     16  C   UNL     1      -2.973  14.437  24.101  0.00  0.00    +0.000 A 
ATOM     17  C   UNL     1      -3.432  15.349  25.204  0.00  0.00    +0.000 C 
ATOM     18  C   UNL     1      -3.457  13.120  23.968  0.00  0.00    +0.000 A 
ATOM     19  C   UNL     1      -4.362  12.472  24.979  0.00  0.00    +0.000 C 
ATOM     20  C   UNL     1      -3.070  12.352  22.853  0.00  0.00    +0.000 A 
ENDBRANCH  10  13
BRANCH   1  21
ATOM     21  C   UNL     1       2.054   8.077  19.993  0.00  0.00    +0.000 C 
BRANCH  21  22
ATOM     22  C   UNL     1       1.616   6.742  20.605  0.00  0.00    +0.000 C 
BRANCH  22  24
ATOM     23  N   UNL     1       2.300   4.411  20.375  0.00  0.00    +0.000 N 
ATOM     24  C   UNL     1       2.062   5.597  19.719  0.00  0.00    +0.000 C 
ATOM     25  O   UNL     1       2.190   5.713  18.505  0.00  0.00    +0.000 OA
ATOM     26  H   UNL     1       2.323   4.386  21.388  0.00  0.00    +0.000 HD
BRANCH  23  27
ATOM     27  C   UNL     1       2.761   3.262  19.605  0.00  0.00    +0.000 C 
BRANCH  27  28
ATOM     28  C   UNL     1       4.276   3.062  19.629  0.00  0.00    +0.000 C 
BRANCH  28  32
ATOM     29  C   UNL     1       6.179   4.907  16.209  0.00  0.00    +0.000 A 
ATOM     30  C   UNL     1       6.636   5.172  17.500  0.00  0.00    +0.000 A 
ATOM     31  C   UNL     1       6.027   4.570  18.606  0.00  0.00    +0.000 A 
ATOM     32  C   UNL     1       4.942   3.702  18.434  0.00  0.00    +0.000 A 
ATOM     33  C   UNL     1       4.464   3.470  17.137  0.00  0.00    +0.000 A 
ATOM     34  C   UNL     1       5.077   4.074  16.031  0.00  0.00    +0.000 A 
BRANCH  29  35
ATOM     35  O   UNL     1       6.874   5.525  15.206  0.00  0.00    +0.000 OA
BRANCH  35  37
ATOM     36  C   UNL     1       7.978   5.533  13.093  0.00  0.00    +0.000 C 
ATOM     37  C   UNL     1       7.005   4.788  13.989  0.00  0.00    +0.000 C 
ENDBRANCH  35  37
ENDBRANCH  29  35
ENDBRANCH  28  32
ENDBRANCH  27  28
ENDBRANCH  23  27
ENDBRANCH  22  24
ENDBRANCH  21  22
ENDBRANCH   1  21
TORSDOF 9
ENDMDL
MODEL 8
REMARK VINA RESULT:      -8.3      5.740     11.214
REMARK  Name = 
REMARK  15 active torsions:
REMARK  status: ('A' for Active; 'I' for Inactive)
REMARK    1  A    between atoms: C_1  and  C_2
REMARK    2  A    between atoms: C_2  and  O_3
REMARK    3  A    between atoms: O_3  and  C_4
REMARK    4  A    between atoms: C_7  and  C_8
REMARK    5  A    between atoms: C_8  and  C_9
REMARK    6  A    between atoms: C_9  and  N_10
REMARK    7  A    between atoms: C_11  and  C_13
REMARK    8  A    between atoms: C_13  and  C_14
REMARK    9  A    between atoms: C_14  and  C_15
REMARK   10  A    between atoms: C_16  and  C_17
REMARK   11  A    between atoms: C_21  and  C_22
REMARK   12  A    between atoms: N_24  and  C_25
REMARK   13  A    between atoms: C_28  and  C_29
REMARK   14  A    between atoms: C_30  and  C_31
REMARK   15  A    between atoms: C_33  and  C_34
REMARK                            x       y       z     vdW  Elec       q    Type
REMARK                         _______ _______ _______ _____ _____    ______ ____
ROOT
ATOM      1  C   UNL     1      -3.027  11.341  18.074  0.00  0.00    +0.000 A 
ATOM      2  C   UNL     1      -2.335  10.350  17.359  0.00  0.00    +0.000 A 
ATOM      3  C   UNL     1      -2.791   9.762  16.052  0.00  0.00    +0.000 C 
ATOM      4  N   UNL     1      -1.188   9.797  17.781  0.00  0.00    +0.000 NA
ATOM      5  C   UNL     1      -0.723  10.239  18.963  0.00  0.00    +0.000 A 
ATOM      6  C   UNL     1      -1.300  11.197  19.786  0.00  0.00    +0.000 A 
ATOM      7  C   UNL     1      -0.413  11.246  20.908  0.00  0.00    +0.000 A 
ATOM      8  C   UNL     1      -0.385  12.130  22.102  0.00  0.00    +0.000 C 
ATOM      9  N   UNL     1       0.541  10.305  20.843  0.00  0.00    +0.000 NA
ATOM     10  N   UNL     1       0.412   9.773  19.602  0.00  0.00    +0.000 N 
ATOM     11  C   UNL     1      -2.496  11.810  19.322  0.00  0.00    +0.000 A 
ATOM     12  C   UNL     1      -3.229  12.892  20.073  0.00  0.00    +0.000 C 
ENDROOT
BRANCH  10  13
ATOM     13  C   UNL     1       1.384   8.874  19.091  0.00  0.00    +0.000 A 
ATOM     14  C   UNL     1       2.080   9.175  17.917  0.00  0.00    +0.000 A 
ATOM     15  C   UNL     1       3.082   8.319  17.462  0.00  0.00    +0.000 A 
ATOM     16  C   UNL     1       3.377   7.129  18.144  0.00  0.00    +0.000 A 
ATOM     17  C   UNL     1       4.499   6.268  17.636  0.00  0.00    +0.000 C 
ATOM     18  C   UNL     1       2.630   6.787  19.290  0.00  0.00    +0.000 A 
ATOM     19  C   UNL     1       2.798   5.483  20.021  0.00  0.00    +0.000 C 
ATOM     20  C   UNL     1       1.664   7.687  19.778  0.00  0.00    +0.000 A 
ENDBRANCH  10  13
BRANCH   1  21
ATOM     21  C   UNL     1      -4.340  11.890  17.548  0.00  0.00    +0.000 C 
BRANCH  21  22
ATOM     22  C   UNL     1      -5.534  10.978  17.845  0.00  0.00    +0.000 C 
BRANCH  22  24
ATOM     23  N   UNL     1      -6.538  11.696  19.950  0.00  0.00    +0.000 N 
ATOM     24  C   UNL     1      -6.608  11.756  18.576  0.00  0.00    +0.000 C 
ATOM     25  O   UNL     1      -7.470  12.403  17.991  0.00  0.00    +0.000 OA
ATOM     26  H   UNL     1      -5.906  11.042  20.398  0.00  0.00    +0.000 HD
BRANCH  23  27
ATOM     27  C   UNL     1      -7.549  12.391  20.736  0.00  0.00    +0.000 C 
BRANCH  27  28
ATOM     28  C   UNL     1      -7.216  13.853  21.030  0.00  0.00    +0.000 C 
BRANCH  28  32
ATOM     29  C   UNL     1      -4.119  14.219  24.029  0.00  0.00    +0.000 A 
ATOM     30  C   UNL     1      -4.949  13.098  24.003  0.00  0.00    +0.000 A 
ATOM     31  C   UNL     1      -5.945  12.974  23.029  0.00  0.00    +0.000 A 
ATOM     32  C   UNL     1      -6.132  13.980  22.073  0.00  0.00    +0.000 A 
ATOM     33  C   UNL     1      -5.320  15.121  22.128  0.00  0.00    +0.000 A 
ATOM     34  C   UNL     1      -4.322  15.241  23.105  0.00  0.00    +0.000 A 
BRANCH  29  35
ATOM     35  O   UNL     1      -3.160  14.212  25.004  0.00  0.00    +0.000 OA
BRANCH  35  37
ATOM     36  C   UNL     1      -1.618  15.849  25.797  0.00  0.00    +0.000 C 
ATOM     37  C   UNL     1      -1.934  14.870  24.680  0.00  0.00    +0.000 C 
ENDBRANCH  35  37
ENDBRANCH  29  35
ENDBRANCH  28  32
ENDBRANCH  27  28
ENDBRANCH  23  27
ENDBRANCH  22  24
ENDBRANCH  21  22
ENDBRANCH   1  21
TORSDOF 9
ENDMDL
MODEL 9
REMARK VINA RESULT:      -8.3      4.257      8.522
REMARK  Name = 
REMARK  15 active torsions:
REMARK  status: ('A' for Active; 'I' for Inactive)
REMARK    1  A    between atoms: C_1  and  C_2
REMARK    2  A    between atoms: C_2  and  O_3
REMARK    3  A    between atoms: O_3  and  C_4
REMARK    4  A    between atoms: C_7  and  C_8
REMARK    5  A    between atoms: C_8  and  C_9
REMARK    6  A    between atoms: C_9  and  N_10
REMARK    7  A    between atoms: C_11  and  C_13
REMARK    8  A    between atoms: C_13  and  C_14
REMARK    9  A    between atoms: C_14  and  C_15
REMARK   10  A    between atoms: C_16  and  C_17
REMARK   11  A    between atoms: C_21  and  C_22
REMARK   12  A    between atoms: N_24  and  C_25
REMARK   13  A    between atoms: C_28  and  C_29
REMARK   14  A    between atoms: C_30  and  C_31
REMARK   15  A    between atoms: C_33  and  C_34
REMARK                            x       y       z     vdW  Elec       q    Type
REMARK                         _______ _______ _______ _____ _____    ______ ____
ROOT
ATOM      1  C   UNL     1      -0.159  10.722  20.957  0.00  0.00    +0.000 A 
ATOM      2  C   UNL     1       0.252  11.347  19.767  0.00  0.00    +0.000 A 
ATOM      3  C   UNL     1       0.754  10.620  18.550  0.00  0.00    +0.000 C 
ATOM      4  N   UNL     1       0.261  12.676  19.593  0.00  0.00    +0.000 NA
ATOM      5  C   UNL     1      -0.141  13.409  20.647  0.00  0.00    +0.000 A 
ATOM      6  C   UNL     1      -0.559  12.940  21.885  0.00  0.00    +0.000 A 
ATOM      7  C   UNL     1      -0.830  14.138  22.618  0.00  0.00    +0.000 A 
ATOM      8  C   UNL     1      -1.407  14.355  23.971  0.00  0.00    +0.000 C 
ATOM      9  N   UNL     1      -0.476  15.240  21.940  0.00  0.00    +0.000 NA
ATOM     10  N   UNL     1      -0.165  14.791  20.698  0.00  0.00    +0.000 N 
ATOM     11  C   UNL     1      -0.604  11.529  22.058  0.00  0.00    +0.000 A 
ATOM     12  C   UNL     1      -1.068  10.855  23.323  0.00  0.00    +0.000 C 
ENDROOT
BRANCH  10  13
ATOM     13  C   UNL     1       0.068  15.700  19.633  0.00  0.00    +0.000 A 
ATOM     14  C   UNL     1      -0.973  16.484  19.129  0.00  0.00    +0.000 A 
ATOM     15  C   UNL     1      -0.719  17.423  18.131  0.00  0.00    +0.000 A 
ATOM     16  C   UNL     1       0.567  17.566  17.588  0.00  0.00    +0.000 A 
ATOM     17  C   UNL     1       0.794  18.628  16.548  0.00  0.00    +0.000 C 
ATOM     18  C   UNL     1       1.606  16.731  18.045  0.00  0.00    +0.000 A 
ATOM     19  C   UNL     1       2.986  16.734  17.447  0.00  0.00    +0.000 C 
ATOM     20  C   UNL     1       1.354  15.829  19.097  0.00  0.00    +0.000 A 
ENDBRANCH  10  13
BRANCH   1  21
ATOM     21  C   UNL     1      -0.105   9.212  21.089  0.00  0.00    +0.000 C 
BRANCH  21  22
ATOM     22  C   UNL     1       1.304   8.687  21.384  0.00  0.00    +0.000 C 
BRANCH  22  24
ATOM     23  N   UNL     1       1.542   6.302  20.927  0.00  0.00    +0.000 N 
ATOM     24  C   UNL     1       1.653   7.575  20.416  0.00  0.00    +0.000 C 
ATOM     25  O   UNL     1       1.996   7.790  19.259  0.00  0.00    +0.000 OA
ATOM     26  H   UNL     1       1.395   6.164  21.921  0.00  0.00    +0.000 HD
BRANCH  23  27
ATOM     27  C   UNL     1       1.886   5.170  20.075  0.00  0.00    +0.000 C 
BRANCH  27  28
ATOM     28  C   UNL     1       3.356   4.760  20.144  0.00  0.00    +0.000 C 
BRANCH  28  32
ATOM     29  C   UNL     1       5.150   4.528  16.214  0.00  0.00    +0.000 A 
ATOM     30  C   UNL     1       4.552   3.405  16.785  0.00  0.00    +0.000 A 
ATOM     31  C   UNL     1       3.964   3.480  18.052  0.00  0.00    +0.000 A 
ATOM     32  C   UNL     1       3.978   4.682  18.771  0.00  0.00    +0.000 A 
ATOM     33  C   UNL     1       4.614   5.796  18.207  0.00  0.00    +0.000 A 
ATOM     34  C   UNL     1       5.201   5.718  16.937  0.00  0.00    +0.000 A 
BRANCH  29  35
ATOM     35  O   UNL     1       5.660   4.343  14.958  0.00  0.00    +0.000 OA
BRANCH  35  37
ATOM     36  C   UNL     1       7.248   5.067  13.334  0.00  0.00    +0.000 C 
ATOM     37  C   UNL     1       7.038   4.678  14.787  0.00  0.00    +0.000 C 
ENDBRANCH  35  37
ENDBRANCH  29  35
ENDBRANCH  28  32
ENDBRANCH  27  28
ENDBRANCH  23  27
ENDBRANCH  22  24
ENDBRANCH  21  22
ENDBRANCH   1  21
TORSDOF 9
ENDMDL
