MODEL 1
REMARK VINA RESULT:      -8.6      0.000      0.000
REMARK  Name = 
REMARK  6 active torsions:
REMARK  status: ('A' for Active; 'I' for Inactive)
REMARK    1  A    between atoms: C_2  and  C_4
REMARK    2  A    between atoms: C_8  and  C_9
REMARK    3  A    between atoms: C_10  and  C_11
REMARK    4  A    between atoms: C_16  and  C_17
REMARK    5  A    between atoms: C_17  and  O_18
REMARK    6  A    between atoms: O_18  and  C_19
REMARK                            x       y       z     vdW  Elec       q    Type
REMARK                         _______ _______ _______ _____ _____    ______ ____
ROOT
ATOM      1  C   UNL     1       4.107   6.076  18.818  0.00  0.00    +0.000 C 
ATOM      2  C   UNL     1       2.775   6.230  18.786  0.00  0.00    +0.000 C 
ENDROOT
BRANCH   1   7
ATOM      3  C   UNL     1       5.665   4.241  13.062  0.00  0.00    +0.000 C 
ATOM      4  C   UNL     1       5.033   3.851  14.402  0.00  0.00    +0.000 C 
ATOM      5  C   UNL     1       5.365   4.837  15.486  0.00  0.00    +0.000 A 
ATOM      6  C   UNL     1       4.537   5.033  16.600  0.00  0.00    +0.000 A 
ATOM      7  C   UNL     1       4.938   5.896  17.622  0.00  0.00    +0.000 A 
ATOM      8  C   UNL     1       6.199   6.478  17.489  0.00  0.00    +0.000 A 
ATOM      9  N   UNL     1       7.030   6.296  16.437  0.00  0.00    +0.000 NA
ATOM     10  C   UNL     1       6.590   5.492  15.458  0.00  0.00    +0.000 A 
ATOM     11  N   UNL     1       7.441   5.310  14.383  0.00  0.00    +0.000 N 
ATOM     12  C   UNL     1       7.114   4.661  13.227  0.00  0.00    +0.000 C 
ATOM     13  O   UNL     1       7.945   4.551  12.326  0.00  0.00    +0.000 OA
ATOM     14  H   UNL     1       8.362   5.716  14.464  0.00  0.00    +0.000 HD
BRANCH   3  16
ATOM     15  N   UNL     1       6.558   2.267  11.927  0.00  0.00    +0.000 N 
ATOM     16  C   UNL     1       5.494   3.116  12.056  0.00  0.00    +0.000 C 
ATOM     17  O   UNL     1       4.508   2.978  11.338  0.00  0.00    +0.000 OA
ATOM     18  H   UNL     1       6.396   1.452  11.348  0.00  0.00    +0.000 HD
ATOM     19  H   UNL     1       7.165   2.120  12.730  0.00  0.00    +0.000 HD
ENDBRANCH   3  16
ENDBRANCH   1   7
BRANCH   2  20
ATOM     20  C   UNL     1       2.075   6.525  20.058  0.00  0.00    +0.000 C 
ATOM     21  O   UNL     1       1.892   5.622  20.868  0.00  0.00    +0.000 OA
ATOM     22  N   UNL     1       1.707   7.845  20.257  0.00  0.00    +0.000 N 
ATOM     23  C   UNL     1       1.140   8.234  21.546  0.00  0.00    +0.000 C 
ATOM     24  C   UNL     1      -0.205   8.933  21.353  0.00  0.00    +0.000 C 
ATOM     25  C   UNL     1      -0.120  10.106  20.357  0.00  0.00    +0.000 C 
ATOM     26  C   UNL     1       0.548   9.639  19.051  0.00  0.00    +0.000 C 
ATOM     27  C   UNL     1       1.885   8.940  19.302  0.00  0.00    +0.000 C 
BRANCH  25  28
ATOM     28  C   UNL     1       0.616  11.329  20.931  0.00  0.00    +0.000 C 
BRANCH  28  29
ATOM     29  O   UNL     1      -0.177  12.503  20.760  0.00  0.00    +0.000 OA
BRANCH  29  30
ATOM     30  C   UNL     1      -1.374  12.525  21.426  0.00  0.00    +0.000 A 
ATOM     31  C   UNL     1      -1.552  12.291  22.794  0.00  0.00    +0.000 A 
ATOM     32  C   UNL     1      -2.830  12.344  23.357  0.00  0.00    +0.000 A 
ATOM     33  C   UNL     1      -3.924  12.631  22.553  0.00  0.00    +0.000 A 
ATOM     34  F   UNL     1      -5.146  12.682  23.097  0.00  0.00    +0.000 F 
ATOM     35  C   UNL     1      -3.766  12.864  21.192  0.00  0.00    +0.000 A 
ATOM     36  C   UNL     1      -2.489  12.809  20.629  0.00  0.00    +0.000 A 
ENDBRANCH  29  30
ENDBRANCH  28  29
ENDBRANCH  25  28
ENDBRANCH   2  20
TORSDOF 6
ENDMDL
MODEL 2
REMARK VINA RESULT:      -8.4      4.660     12.228
REMARK  Name = 
REMARK  6 active torsions:
REMARK  status: ('A' for Active; 'I' for Inactive)
REMARK    1  A    between atoms: C_2  and  C_4
REMARK    2  A    between atoms: C_8  and  C_9
REMARK    3  A    between atoms: C_10  and  C_11
REMARK    4  A    between atoms: C_16  and  C_17
REMARK    5  A    between atoms: C_17  and  O_18
REMARK    6  A    between atoms: O_18  and  C_19
REMARK                            x       y       z     vdW  Elec       q    Type
REMARK                         _______ _______ _______ _____ _____    ______ ____
ROOT
ATOM      1  C   UNL     1       1.089  11.270  19.767  0.00  0.00    +0.000 C 
ATOM      2  C   UNL     1       0.732  10.013  19.465  0.00  0.00    +0.000 C 
ENDROOT
BRANCH   1   7
ATOM      3  C   UNL     1      -3.156  12.910  24.034  0.00  0.00    +0.000 C 
ATOM      4  C   UNL     1      -2.902  12.412  22.608  0.00  0.00    +0.000 C 
ATOM      5  C   UNL     1      -1.471  12.602  22.195  0.00  0.00    +0.000 A 
ATOM      6  C   UNL     1      -0.857  11.796  21.226  0.00  0.00    +0.000 A 
ATOM      7  C   UNL     1       0.448  12.073  20.815  0.00  0.00    +0.000 A 
ATOM      8  C   UNL     1       1.052  13.202  21.370  0.00  0.00    +0.000 A 
ATOM      9  N   UNL     1       0.482  14.011  22.294  0.00  0.00    +0.000 NA
ATOM     10  C   UNL     1      -0.757  13.685  22.692  0.00  0.00    +0.000 A 
ATOM     11  N   UNL     1      -1.336  14.513  23.636  0.00  0.00    +0.000 N 
ATOM     12  C   UNL     1      -2.515  14.265  24.277  0.00  0.00    +0.000 C 
ATOM     13  O   UNL     1      -2.948  15.066  25.105  0.00  0.00    +0.000 OA
ATOM     14  H   UNL     1      -0.821  15.348  23.879  0.00  0.00    +0.000 HD
BRANCH   3  16
ATOM     15  N   UNL     1      -5.318  14.055  24.013  0.00  0.00    +0.000 N 
ATOM     16  C   UNL     1      -4.646  12.908  24.333  0.00  0.00    +0.000 C 
ATOM     17  O   UNL     1      -5.235  11.982  24.882  0.00  0.00    +0.000 OA
ATOM     18  H   UNL     1      -6.326  14.006  24.101  0.00  0.00    +0.000 HD
ATOM     19  H   UNL     1      -4.972  14.626  23.247  0.00  0.00    +0.000 HD
ENDBRANCH   3  16
ENDBRANCH   1   7
BRANCH   2  20
ATOM     20  C   UNL     1       1.543   9.276  18.469  0.00  0.00    +0.000 C 
ATOM     21  O   UNL     1       1.694   9.749  17.347  0.00  0.00    +0.000 OA
ATOM     22  N   UNL     1       2.119   8.095  18.907  0.00  0.00    +0.000 N 
ATOM     23  C   UNL     1       3.044   7.389  18.024  0.00  0.00    +0.000 C 
ATOM     24  C   UNL     1       2.606   5.938  17.835  0.00  0.00    +0.000 C 
ATOM     25  C   UNL     1       2.386   5.211  19.177  0.00  0.00    +0.000 C 
ATOM     26  C   UNL     1       1.458   6.044  20.080  0.00  0.00    +0.000 C 
ATOM     27  C   UNL     1       1.938   7.489  20.227  0.00  0.00    +0.000 C 
BRANCH  25  28
ATOM     28  C   UNL     1       3.701   4.889  19.908  0.00  0.00    +0.000 C 
BRANCH  28  29
ATOM     29  O   UNL     1       4.342   3.772  19.293  0.00  0.00    +0.000 OA
BRANCH  29  30
ATOM     30  C   UNL     1       5.207   4.060  18.270  0.00  0.00    +0.000 A 
ATOM     31  C   UNL     1       6.451   4.686  18.404  0.00  0.00    +0.000 A 
ATOM     32  C   UNL     1       7.245   4.923  17.280  0.00  0.00    +0.000 A 
ATOM     33  C   UNL     1       6.794   4.535  16.026  0.00  0.00    +0.000 A 
ATOM     34  F   UNL     1       7.558   4.764  14.950  0.00  0.00    +0.000 F 
ATOM     35  C   UNL     1       5.561   3.914  15.874  0.00  0.00    +0.000 A 
ATOM     36  C   UNL     1       4.767   3.679  16.998  0.00  0.00    +0.000 A 
ENDBRANCH  29  30
ENDBRANCH  28  29
ENDBRANCH  25  28
ENDBRANCH   2  20
TORSDOF 6
ENDMDL
MODEL 3
REMARK VINA RESULT:      -8.4      0.809      1.084
REMARK  Name = 
REMARK  6 active torsions:
REMARK  status: ('A' for Active; 'I' for Inactive)
REMARK    1  A    between atoms: C_2  and  C_4
REMARK    2  A    between atoms: C_8  and  C_9
REMARK    3  A    between atoms: C_10  and  C_11
REMARK    4  A    between atoms: C_16  and  C_17
REMARK    5  A    between atoms: C_17  and  O_18
REMARK    6  A    between atoms: O_18  and  C_19
REMARK                            x       y       z     vdW  Elec       q    Type
REMARK                         _______ _______ _______ _____ _____    ______ ____
ROOT
ATOM      1  C   UNL     1       4.190   5.982  18.726  0.00  0.00    +0.000 C 
ATOM      2  C   UNL     1       2.863   6.176  18.720  0.00  0.00    +0.000 C 
ENDROOT
BRANCH   1   7
ATOM      3  C   UNL     1       5.628   4.153  12.937  0.00  0.00    +0.000 C 
ATOM      4  C   UNL     1       5.025   3.762  14.289  0.00  0.00    +0.000 C 
ATOM      5  C   UNL     1       5.379   4.746  15.367  0.00  0.00    +0.000 A 
ATOM      6  C   UNL     1       4.574   4.942  16.498  0.00  0.00    +0.000 A 
ATOM      7  C   UNL     1       4.996   5.803  17.513  0.00  0.00    +0.000 A 
ATOM      8  C   UNL     1       6.254   6.386  17.355  0.00  0.00    +0.000 A 
ATOM      9  N   UNL     1       7.064   6.204  16.285  0.00  0.00    +0.000 NA
ATOM     10  C   UNL     1       6.603   5.402  15.315  0.00  0.00    +0.000 A 
ATOM     11  N   UNL     1       7.431   5.221  14.222  0.00  0.00    +0.000 N 
ATOM     12  C   UNL     1       7.081   4.574  13.073  0.00  0.00    +0.000 C 
ATOM     13  O   UNL     1       7.893   4.464  12.154  0.00  0.00    +0.000 OA
ATOM     14  H   UNL     1       8.354   5.627  14.285  0.00  0.00    +0.000 HD
BRANCH   3  16
ATOM     15  N   UNL     1       6.458   2.123  11.854  0.00  0.00    +0.000 N 
ATOM     16  C   UNL     1       5.437   3.030  11.933  0.00  0.00    +0.000 C 
ATOM     17  O   UNL     1       4.475   2.939  11.177  0.00  0.00    +0.000 OA
ATOM     18  H   UNL     1       6.274   1.312  11.275  0.00  0.00    +0.000 HD
ATOM     19  H   UNL     1       7.022   1.951  12.682  0.00  0.00    +0.000 HD
ENDBRANCH   3  16
ENDBRANCH   1   7
BRANCH   2  20
ATOM     20  C   UNL     1       2.192   6.464  20.008  0.00  0.00    +0.000 C 
ATOM     21  O   UNL     1       2.078   5.570  20.841  0.00  0.00    +0.000 OA
ATOM     22  N   UNL     1       1.771   7.770  20.196  0.00  0.00    +0.000 N 
ATOM     23  C   UNL     1       1.229   8.159  21.496  0.00  0.00    +0.000 C 
ATOM     24  C   UNL     1      -0.151   8.792  21.336  0.00  0.00    +0.000 C 
ATOM     25  C   UNL     1      -0.153   9.948  20.317  0.00  0.00    +0.000 C 
ATOM     26  C   UNL     1       0.492   9.486  18.997  0.00  0.00    +0.000 C 
ATOM     27  C   UNL     1       1.867   8.853  19.216  0.00  0.00    +0.000 C 
BRANCH  25  28
ATOM     28  C   UNL     1       0.545  11.214  20.843  0.00  0.00    +0.000 C 
BRANCH  28  29
ATOM     29  O   UNL     1      -0.278  12.358  20.615  0.00  0.00    +0.000 OA
BRANCH  29  30
ATOM     30  C   UNL     1      -1.075  12.746  21.660  0.00  0.00    +0.000 A 
ATOM     31  C   UNL     1      -2.351  12.246  21.944  0.00  0.00    +0.000 A 
ATOM     32  C   UNL     1      -3.066  12.724  23.045  0.00  0.00    +0.000 A 
ATOM     33  C   UNL     1      -2.504  13.699  23.858  0.00  0.00    +0.000 A 
ATOM     34  F   UNL     1      -3.193  14.154  24.912  0.00  0.00    +0.000 F 
ATOM     35  C   UNL     1      -1.240  14.208  23.590  0.00  0.00    +0.000 A 
ATOM     36  C   UNL     1      -0.527  13.731  22.488  0.00  0.00    +0.000 A 
ENDBRANCH  29  30
ENDBRANCH  28  29
ENDBRANCH  25  28
ENDBRANCH   2  20
TORSDOF 6
ENDMDL
MODEL 4
REMARK VINA RESULT:      -8.3      3.916      6.011
REMARK  Name = 
REMARK  6 active torsions:
REMARK  status: ('A' for Active; 'I' for Inactive)
REMARK    1  A    between atoms: C_2  and  C_4
REMARK    2  A    between atoms: C_8  and  C_9
REMARK    3  A    between atoms: C_10  and  C_11
REMARK    4  A    between atoms: C_16  and  C_17
REMARK    5  A    between atoms: C_17  and  O_18
REMARK    6  A    between atoms: O_18  and  C_19
REMARK                            x       y       z     vdW  Elec       q    Type
REMARK                         _______ _______ _______ _____ _____    ______ ____
ROOT
ATOM      1  C   UNL     1       0.968   8.900  21.465  0.00  0.00    +0.000 C 
ATOM      2  C   UNL     1      -0.037   9.759  21.236  0.00  0.00    +0.000 C 
ENDROOT
BRANCH   1   7
ATOM      3  C   UNL     1       3.089   3.690  18.766  0.00  0.00    +0.000 C 
ATOM      4  C   UNL     1       3.073   4.564  20.024  0.00  0.00    +0.000 C 
ATOM      5  C   UNL     1       2.554   5.945  19.741  0.00  0.00    +0.000 A 
ATOM      6  C   UNL     1       1.945   6.734  20.726  0.00  0.00    +0.000 A 
ATOM      7  C   UNL     1       1.562   8.044  20.432  0.00  0.00    +0.000 A 
ATOM      8  C   UNL     1       1.873   8.513  19.155  0.00  0.00    +0.000 A 
ATOM      9  N   UNL     1       2.476   7.785  18.187  0.00  0.00    +0.000 NA
ATOM     10  C   UNL     1       2.790   6.519  18.498  0.00  0.00    +0.000 A 
ATOM     11  N   UNL     1       3.404   5.777  17.505  0.00  0.00    +0.000 N 
ATOM     12  C   UNL     1       3.657   4.437  17.573  0.00  0.00    +0.000 C 
ATOM     13  O   UNL     1       4.211   3.866  16.634  0.00  0.00    +0.000 OA
ATOM     14  H   UNL     1       3.655   6.273  16.662  0.00  0.00    +0.000 HD
BRANCH   3  16
ATOM     15  N   UNL     1       5.054   2.510  19.622  0.00  0.00    +0.000 N 
ATOM     16  C   UNL     1       3.821   2.388  19.042  0.00  0.00    +0.000 C 
ATOM     17  O   UNL     1       3.398   1.281  18.724  0.00  0.00    +0.000 OA
ATOM     18  H   UNL     1       5.484   1.640  19.913  0.00  0.00    +0.000 HD
ATOM     19  H   UNL     1       5.234   3.311  20.221  0.00  0.00    +0.000 HD
ENDBRANCH   3  16
ENDBRANCH   1   7
BRANCH   2  20
ATOM     20  C   UNL     1      -0.459  10.650  22.341  0.00  0.00    +0.000 C 
ATOM     21  O   UNL     1      -0.493  10.214  23.487  0.00  0.00    +0.000 OA
ATOM     22  N   UNL     1      -0.752  11.958  21.989  0.00  0.00    +0.000 N 
ATOM     23  C   UNL     1      -1.039  12.926  23.045  0.00  0.00    +0.000 C 
ATOM     24  C   UNL     1      -2.380  13.613  22.794  0.00  0.00    +0.000 C 
ATOM     25  C   UNL     1      -2.474  14.222  21.381  0.00  0.00    +0.000 C 
ATOM     26  C   UNL     1      -2.094  13.165  20.328  0.00  0.00    +0.000 C 
ATOM     27  C   UNL     1      -0.748  12.503  20.632  0.00  0.00    +0.000 C 
BRANCH  25  28
ATOM     28  C   UNL     1      -1.612  15.484  21.212  0.00  0.00    +0.000 C 
BRANCH  28  29
ATOM     29  O   UNL     1      -1.932  16.135  19.983  0.00  0.00    +0.000 OA
BRANCH  29  30
ATOM     30  C   UNL     1      -0.869  16.561  19.231  0.00  0.00    +0.000 A 
ATOM     31  C   UNL     1      -0.872  17.655  18.359  0.00  0.00    +0.000 A 
ATOM     32  C   UNL     1       0.282  17.991  17.646  0.00  0.00    +0.000 A 
ATOM     33  C   UNL     1       1.434  17.233  17.807  0.00  0.00    +0.000 A 
ATOM     34  F   UNL     1       2.538  17.558  17.122  0.00  0.00    +0.000 F 
ATOM     35  C   UNL     1       1.454  16.142  18.667  0.00  0.00    +0.000 A 
ATOM     36  C   UNL     1       0.299  15.806  19.377  0.00  0.00    +0.000 A 
ENDBRANCH  29  30
ENDBRANCH  28  29
ENDBRANCH  25  28
ENDBRANCH   2  20
TORSDOF 6
ENDMDL
MODEL 5
REMARK VINA RESULT:      -8.3      2.635      3.331
REMARK  Name = 
REMARK  6 active torsions:
REMARK  status: ('A' for Active; 'I' for Inactive)
REMARK    1  A    between atoms: C_2  and  C_4
REMARK    2  A    between atoms: C_8  and  C_9
REMARK    3  A    between atoms: C_10  and  C_11
REMARK    4  A    between atoms: C_16  and  C_17
REMARK    5  A    between atoms: C_17  and  O_18
REMARK    6  A    between atoms: O_18  and  C_19
REMARK                            x       y       z     vdW  Elec       q    Type
REMARK                         _______ _______ _______ _____ _____    ______ ____
ROOT
ATOM      1  C   UNL     1       4.273   6.197  18.652  0.00  0.00    +0.000 C 
ATOM      2  C   UNL     1       2.940   6.055  18.717  0.00  0.00    +0.000 C 
ENDROOT
BRANCH   1   7
ATOM      3  C   UNL     1       5.592   4.162  12.904  0.00  0.00    +0.000 C 
ATOM      4  C   UNL     1       4.974   3.834  14.267  0.00  0.00    +0.000 C 
ATOM      5  C   UNL     1       5.383   4.824  15.320  0.00  0.00    +0.000 A 
ATOM      6  C   UNL     1       4.594   5.087  16.448  0.00  0.00    +0.000 A 
ATOM      7  C   UNL     1       5.063   5.949  17.442  0.00  0.00    +0.000 A 
ATOM      8  C   UNL     1       6.350   6.462  17.266  0.00  0.00    +0.000 A 
ATOM      9  N   UNL     1       7.144   6.215  16.199  0.00  0.00    +0.000 NA
ATOM     10  C   UNL     1       6.639   5.414  15.249  0.00  0.00    +0.000 A 
ATOM     11  N   UNL     1       7.453   5.165  14.159  0.00  0.00    +0.000 N 
ATOM     12  C   UNL     1       7.065   4.510  13.026  0.00  0.00    +0.000 C 
ATOM     13  O   UNL     1       7.867   4.338  12.108  0.00  0.00    +0.000 OA
ATOM     14  H   UNL     1       8.396   5.524  14.209  0.00  0.00    +0.000 HD
BRANCH   3  16
ATOM     15  N   UNL     1       6.308   2.062  11.873  0.00  0.00    +0.000 N 
ATOM     16  C   UNL     1       5.339   3.026  11.928  0.00  0.00    +0.000 C 
ATOM     17  O   UNL     1       4.374   2.971  11.172  0.00  0.00    +0.000 OA
ATOM     18  H   UNL     1       6.080   1.249  11.313  0.00  0.00    +0.000 HD
ATOM     19  H   UNL     1       6.861   1.880  12.706  0.00  0.00    +0.000 HD
ENDBRANCH   3  16
ENDBRANCH   1   7
BRANCH   2  20
ATOM     20  C   UNL     1       2.255   6.457  19.967  0.00  0.00    +0.000 C 
ATOM     21  O   UNL     1       2.093   5.630  20.858  0.00  0.00    +0.000 OA
ATOM     22  N   UNL     1       1.874   7.786  20.051  0.00  0.00    +0.000 N 
ATOM     23  C   UNL     1       1.320   8.285  21.308  0.00  0.00    +0.000 C 
ATOM     24  C   UNL     1      -0.035   8.949  21.072  0.00  0.00    +0.000 C 
ATOM     25  C   UNL     1       0.023  10.028  19.973  0.00  0.00    +0.000 C 
ATOM     26  C   UNL     1       0.678   9.452  18.705  0.00  0.00    +0.000 C 
ATOM     27  C   UNL     1       2.026   8.792  18.999  0.00  0.00    +0.000 C 
BRANCH  25  28
ATOM     28  C   UNL     1       0.753  11.305  20.423  0.00  0.00    +0.000 C 
BRANCH  28  29
ATOM     29  O   UNL     1       0.221  12.440  19.739  0.00  0.00    +0.000 OA
BRANCH  29  30
ATOM     30  C   UNL     1       1.137  13.296  19.186  0.00  0.00    +0.000 A 
ATOM     31  C   UNL     1       2.350  12.923  18.596  0.00  0.00    +0.000 A 
ATOM     32  C   UNL     1       3.201  13.894  18.063  0.00  0.00    +0.000 A 
ATOM     33  C   UNL     1       2.839  15.233  18.121  0.00  0.00    +0.000 A 
ATOM     34  F   UNL     1       3.658  16.160  17.609  0.00  0.00    +0.000 F 
ATOM     35  C   UNL     1       1.640  15.621  18.705  0.00  0.00    +0.000 A 
ATOM     36  C   UNL     1       0.790  14.650  19.240  0.00  0.00    +0.000 A 
ENDBRANCH  29  30
ENDBRANCH  28  29
ENDBRANCH  25  28
ENDBRANCH   2  20
TORSDOF 6
ENDMDL
MODEL 6
REMARK VINA RESULT:      -8.3      4.027      6.077
REMARK  Name = 
REMARK  6 active torsions:
REMARK  status: ('A' for Active; 'I' for Inactive)
REMARK    1  A    between atoms: C_2  and  C_4
REMARK    2  A    between atoms: C_8  and  C_9
REMARK    3  A    between atoms: C_10  and  C_11
REMARK    4  A    between atoms: C_16  and  C_17
REMARK    5  A    between atoms: C_17  and  O_18
REMARK    6  A    between atoms: O_18  and  C_19
REMARK                            x       y       z     vdW  Elec       q    Type
REMARK                         _______ _______ _______ _____ _____    ______ ____
ROOT
ATOM      1  C   UNL     1       0.670   8.914  21.323  0.00  0.00    +0.000 C 
ATOM      2  C   UNL     1       0.313  10.190  21.117  0.00  0.00    +0.000 C 
ENDROOT
BRANCH   1   7
ATOM      3  C   UNL     1       3.295   3.852  18.790  0.00  0.00    +0.000 C 
ATOM      4  C   UNL     1       3.108   4.701  20.051  0.00  0.00    +0.000 C 
ATOM      5  C   UNL     1       2.560   6.063  19.734  0.00  0.00    +0.000 A 
ATOM      6  C   UNL     1       1.816   6.806  20.661  0.00  0.00    +0.000 A 
ATOM      7  C   UNL     1       1.407   8.103  20.346  0.00  0.00    +0.000 A 
ATOM      8  C   UNL     1       1.827   8.609  19.115  0.00  0.00    +0.000 A 
ATOM      9  N   UNL     1       2.560   7.926  18.206  0.00  0.00    +0.000 NA
ATOM     10  C   UNL     1       2.897   6.669  18.530  0.00  0.00    +0.000 A 
ATOM     11  N   UNL     1       3.644   5.973  17.598  0.00  0.00    +0.000 N 
ATOM     12  C   UNL     1       3.949   4.645  17.673  0.00  0.00    +0.000 C 
ATOM     13  O   UNL     1       4.623   4.115  16.789  0.00  0.00    +0.000 OA
ATOM     14  H   UNL     1       3.959   6.495  16.792  0.00  0.00    +0.000 HD
BRANCH   3  16
ATOM     15  N   UNL     1       3.812   1.512  18.302  0.00  0.00    +0.000 N 
ATOM     16  C   UNL     1       4.052   2.578  19.123  0.00  0.00    +0.000 C 
ATOM     17  O   UNL     1       4.791   2.451  20.095  0.00  0.00    +0.000 OA
ATOM     18  H   UNL     1       4.407   0.705  18.453  0.00  0.00    +0.000 HD
ATOM     19  H   UNL     1       3.552   1.689  17.336  0.00  0.00    +0.000 HD
ENDBRANCH   3  16
ENDBRANCH   1   7
BRANCH   2  20
ATOM     20  C   UNL     1      -0.320  10.927  22.235  0.00  0.00    +0.000 C 
ATOM     21  O   UNL     1      -0.537  10.346  23.293  0.00  0.00    +0.000 OA
ATOM     22  N   UNL     1      -0.586  12.267  22.006  0.00  0.00    +0.000 N 
ATOM     23  C   UNL     1      -1.079  13.089  23.109  0.00  0.00    +0.000 C 
ATOM     24  C   UNL     1      -2.377  13.792  22.716  0.00  0.00    +0.000 C 
ATOM     25  C   UNL     1      -2.245  14.578  21.397  0.00  0.00    +0.000 C 
ATOM     26  C   UNL     1      -1.657  13.669  20.301  0.00  0.00    +0.000 C 
ATOM     27  C   UNL     1      -0.365  12.984  20.749  0.00  0.00    +0.000 C 
BRANCH  25  28
ATOM     28  C   UNL     1      -1.405  15.858  21.542  0.00  0.00    +0.000 C 
BRANCH  28  29
ATOM     29  O   UNL     1      -1.784  16.809  20.546  0.00  0.00    +0.000 OA
BRANCH  29  30
ATOM     30  C   UNL     1      -0.838  17.100  19.599  0.00  0.00    +0.000 A 
ATOM     31  C   UNL     1       0.536  16.867  19.717  0.00  0.00    +0.000 A 
ATOM     32  C   UNL     1       1.401  17.208  18.675  0.00  0.00    +0.000 A 
ATOM     33  C   UNL     1       0.890  17.781  17.518  0.00  0.00    +0.000 A 
ATOM     34  F   UNL     1       1.723  18.106  16.521  0.00  0.00    +0.000 F 
ATOM     35  C   UNL     1      -0.471  18.021  17.384  0.00  0.00    +0.000 A 
ATOM     36  C   UNL     1      -1.335  17.681  18.427  0.00  0.00    +0.000 A 
ENDBRANCH  29  30
ENDBRANCH  28  29
ENDBRANCH  25  28
ENDBRANCH   2  20
TORSDOF 6
ENDMDL
MODEL 7
REMARK VINA RESULT:      -8.2      6.395     10.157
REMARK  Name = 
REMARK  6 active torsions:
REMARK  status: ('A' for Active; 'I' for Inactive)
REMARK    1  A    between atoms: C_2  and  C_4
REMARK    2  A    between atoms: C_8  and  C_9
REMARK    3  A    between atoms: C_10  and  C_11
REMARK    4  A    between atoms: C_16  and  C_17
REMARK    5  A    between atoms: C_17  and  O_18
REMARK    6  A    between atoms: O_18  and  C_19
REMARK                            x       y       z     vdW  Elec       q    Type
REMARK                         _______ _______ _______ _____ _____    ______ ____
ROOT
ATOM      1  C   UNL     1       9.045   9.427  18.803  0.00  0.00    +0.000 C 
ATOM      2  C   UNL     1       8.280   8.635  18.036  0.00  0.00    +0.000 C 
ENDROOT
BRANCH   1   7
ATOM      3  C   UNL     1       8.725  15.639  19.279  0.00  0.00    +0.000 C 
ATOM      4  C   UNL     1       7.950  14.319  19.215  0.00  0.00    +0.000 C 
ATOM      5  C   UNL     1       8.807  13.189  18.721  0.00  0.00    +0.000 A 
ATOM      6  C   UNL     1       8.554  11.853  19.059  0.00  0.00    +0.000 A 
ATOM      7  C   UNL     1       9.327  10.834  18.499  0.00  0.00    +0.000 A 
ATOM      8  C   UNL     1      10.294  11.222  17.570  0.00  0.00    +0.000 A 
ATOM      9  N   UNL     1      10.552  12.500  17.208  0.00  0.00    +0.000 NA
ATOM     10  C   UNL     1       9.814  13.451  17.799  0.00  0.00    +0.000 A 
ATOM     11  N   UNL     1      10.082  14.756  17.429  0.00  0.00    +0.000 N 
ATOM     12  C   UNL     1       9.553  15.863  18.026  0.00  0.00    +0.000 C 
ATOM     13  O   UNL     1       9.855  16.986  17.621  0.00  0.00    +0.000 OA
ATOM     14  H   UNL     1      10.741  14.884  16.675  0.00  0.00    +0.000 HD
BRANCH   3  16
ATOM     15  N   UNL     1       6.995  17.192  18.518  0.00  0.00    +0.000 N 
ATOM     16  C   UNL     1       7.776  16.790  19.566  0.00  0.00    +0.000 C 
ATOM     17  O   UNL     1       7.728  17.390  20.635  0.00  0.00    +0.000 OA
ATOM     18  H   UNL     1       6.282  17.875  18.746  0.00  0.00    +0.000 HD
ATOM     19  H   UNL     1       6.738  16.509  17.812  0.00  0.00    +0.000 HD
ENDBRANCH   3  16
ENDBRANCH   1   7
BRANCH   2  20
ATOM     20  C   UNL     1       7.977   7.270  18.524  0.00  0.00    +0.000 C 
ATOM     21  O   UNL     1       8.770   6.709  19.274  0.00  0.00    +0.000 OA
ATOM     22  N   UNL     1       6.767   6.733  18.116  0.00  0.00    +0.000 N 
ATOM     23  C   UNL     1       6.340   5.451  18.671  0.00  0.00    +0.000 C 
ATOM     24  C   UNL     1       6.016   4.463  17.552  0.00  0.00    +0.000 C 
ATOM     25  C   UNL     1       5.014   5.038  16.532  0.00  0.00    +0.000 C 
ATOM     26  C   UNL     1       5.495   6.416  16.043  0.00  0.00    +0.000 C 
ATOM     27  C   UNL     1       5.813   7.362  17.202  0.00  0.00    +0.000 C 
BRANCH  25  28
ATOM     28  C   UNL     1       3.582   5.132  17.084  0.00  0.00    +0.000 C 
BRANCH  28  29
ATOM     29  O   UNL     1       3.018   3.826  17.209  0.00  0.00    +0.000 OA
BRANCH  29  30
ATOM     30  C   UNL     1       2.598   3.467  18.463  0.00  0.00    +0.000 A 
ATOM     31  C   UNL     1       3.233   2.546  19.303  0.00  0.00    +0.000 A 
ATOM     32  C   UNL     1       2.705   2.265  20.566  0.00  0.00    +0.000 A 
ATOM     33  C   UNL     1       1.547   2.905  20.985  0.00  0.00    +0.000 A 
ATOM     34  F   UNL     1       1.045   2.634  22.196  0.00  0.00    +0.000 F 
ATOM     35  C   UNL     1       0.903   3.821  20.162  0.00  0.00    +0.000 A 
ATOM     36  C   UNL     1       1.429   4.100  18.899  0.00  0.00    +0.000 A 
ENDBRANCH  29  30
ENDBRANCH  28  29
ENDBRANCH  25  28
ENDBRANCH   2  20
TORSDOF 6
ENDMDL
MODEL 8
REMARK VINA RESULT:      -8.1      3.389      5.293
REMARK  Name = 
REMARK  6 active torsions:
REMARK  status: ('A' for Active; 'I' for Inactive)
REMARK    1  A    between atoms: C_2  and  C_4
REMARK    2  A    between atoms: C_8  and  C_9
REMARK    3  A    between atoms: C_10  and  C_11
REMARK    4  A    between atoms: C_16  and  C_17
REMARK    5  A    between atoms: C_17  and  O_18
REMARK    6  A    between atoms: O_18  and  C_19
REMARK                            x       y       z     vdW  Elec       q    Type
REMARK                         _______ _______ _______ _____ _____    ______ ____
ROOT
ATOM      1  C   UNL     1       0.706   8.454  21.216  0.00  0.00    +0.000 C 
ATOM      2  C   UNL     1       0.754   9.793  21.283  0.00  0.00    +0.000 C 
ENDROOT
BRANCH   1   7
ATOM      3  C   UNL     1       3.338   3.394  18.689  0.00  0.00    +0.000 C 
ATOM      4  C   UNL     1       3.076   4.197  19.967  0.00  0.00    +0.000 C 
ATOM      5  C   UNL     1       2.612   5.593  19.666  0.00  0.00    +0.000 A 
ATOM      6  C   UNL     1       1.820   6.329  20.559  0.00  0.00    +0.000 A 
ATOM      7  C   UNL     1       1.492   7.655  20.270  0.00  0.00    +0.000 A 
ATOM      8  C   UNL     1       2.038   8.193  19.103  0.00  0.00    +0.000 A 
ATOM      9  N   UNL     1       2.819   7.517  18.229  0.00  0.00    +0.000 NA
ATOM     10  C   UNL     1       3.077   6.234  18.524  0.00  0.00    +0.000 A 
ATOM     11  N   UNL     1       3.874   5.546  17.628  0.00  0.00    +0.000 N 
ATOM     12  C   UNL     1       4.119   4.204  17.669  0.00  0.00    +0.000 C 
ATOM     13  O   UNL     1       4.845   3.683  16.822  0.00  0.00    +0.000 OA
ATOM     14  H   UNL     1       4.278   6.087  16.877  0.00  0.00    +0.000 HD
BRANCH   3  16
ATOM     15  N   UNL     1       4.975   2.132  19.996  0.00  0.00    +0.000 N 
ATOM     16  C   UNL     1       4.013   2.076  19.027  0.00  0.00    +0.000 C 
ATOM     17  O   UNL     1       3.784   1.018  18.448  0.00  0.00    +0.000 OA
ATOM     18  H   UNL     1       5.335   1.236  20.303  0.00  0.00    +0.000 HD
ATOM     19  H   UNL     1       4.900   2.844  20.718  0.00  0.00    +0.000 HD
ENDBRANCH   3  16
ENDBRANCH   1   7
BRANCH   2  20
ATOM     20  C   UNL     1       0.001  10.466  22.366  0.00  0.00    +0.000 C 
ATOM     21  O   UNL     1       0.077  10.033  23.512  0.00  0.00    +0.000 OA
ATOM     22  N   UNL     1      -0.719  11.591  21.998  0.00  0.00    +0.000 N 
ATOM     23  C   UNL     1      -1.371  12.384  23.038  0.00  0.00    +0.000 C 
ATOM     24  C   UNL     1      -2.856  12.558  22.729  0.00  0.00    +0.000 C 
ATOM     25  C   UNL     1      -3.102  13.111  21.311  0.00  0.00    +0.000 C 
ATOM     26  C   UNL     1      -2.332  12.267  20.279  0.00  0.00    +0.000 C 
ATOM     27  C   UNL     1      -0.853  12.118  20.640  0.00  0.00    +0.000 C 
BRANCH  25  28
ATOM     28  C   UNL     1      -2.734  14.598  21.174  0.00  0.00    +0.000 C 
BRANCH  28  29
ATOM     29  O   UNL     1      -3.912  15.402  21.234  0.00  0.00    +0.000 OA
BRANCH  29  30
ATOM     30  C   UNL     1      -4.146  16.041  22.423  0.00  0.00    +0.000 A 
ATOM     31  C   UNL     1      -3.228  16.834  23.119  0.00  0.00    +0.000 A 
ATOM     32  C   UNL     1      -3.589  17.437  24.326  0.00  0.00    +0.000 A 
ATOM     33  C   UNL     1      -4.867  17.246  24.834  0.00  0.00    +0.000 A 
ATOM     34  F   UNL     1      -5.210  17.827  25.991  0.00  0.00    +0.000 F 
ATOM     35  C   UNL     1      -5.792  16.461  24.157  0.00  0.00    +0.000 A 
ATOM     36  C   UNL     1      -5.429  15.857  22.951  0.00  0.00    +0.000 A 
ENDBRANCH  29  30
ENDBRANCH  28  29
ENDBRANCH  25  28
ENDBRANCH   2  20
TORSDOF 6
ENDMDL
MODEL 9
REMARK VINA RESULT:      -8.1      0.573      1.013
REMARK  Name = 
REMARK  6 active torsions:
REMARK  status: ('A' for Active; 'I' for Inactive)
REMARK    1  A    between atoms: C_2  and  C_4
REMARK    2  A    between atoms: C_8  and  C_9
REMARK    3  A    between atoms: C_10  and  C_11
REMARK    4  A    between atoms: C_16  and  C_17
REMARK    5  A    between atoms: C_17  and  O_18
REMARK    6  A    between atoms: O_18  and  C_19
REMARK                            x       y       z     vdW  Elec       q    Type
REMARK                         _______ _______ _______ _____ _____    ______ ____
ROOT
ATOM      1  C   UNL     1       4.171   6.063  18.782  0.00  0.00    +0.000 C 
ATOM      2  C   UNL     1       2.847   6.277  18.760  0.00  0.00    +0.000 C 
ENDROOT
BRANCH   1   7
ATOM      3  C   UNL     1       5.669   4.241  13.006  0.00  0.00    +0.000 C 
ATOM      4  C   UNL     1       5.047   3.849  14.351  0.00  0.00    +0.000 C 
ATOM      5  C   UNL     1       5.393   4.830  15.435  0.00  0.00    +0.000 A 
ATOM      6  C   UNL     1       4.576   5.026  16.556  0.00  0.00    +0.000 A 
ATOM      7  C   UNL     1       4.990   5.884  17.578  0.00  0.00    +0.000 A 
ATOM      8  C   UNL     1       6.253   6.461  17.436  0.00  0.00    +0.000 A 
ATOM      9  N   UNL     1       7.073   6.279  16.375  0.00  0.00    +0.000 NA
ATOM     10  C   UNL     1       6.621   5.480  15.398  0.00  0.00    +0.000 A 
ATOM     11  N   UNL     1       7.461   5.298  14.315  0.00  0.00    +0.000 N 
ATOM     12  C   UNL     1       7.121   4.654  13.160  0.00  0.00    +0.000 C 
ATOM     13  O   UNL     1       7.943   4.544  12.251  0.00  0.00    +0.000 OA
ATOM     14  H   UNL     1       8.385   5.699  14.389  0.00  0.00    +0.000 HD
BRANCH   3  16
ATOM     15  N   UNL     1       4.298   3.122  11.317  0.00  0.00    +0.000 N 
ATOM     16  C   UNL     1       5.484   3.120  11.998  0.00  0.00    +0.000 C 
ATOM     17  O   UNL     1       6.293   2.214  11.821  0.00  0.00    +0.000 OA
ATOM     18  H   UNL     1       4.230   2.448  10.563  0.00  0.00    +0.000 HD
ATOM     19  H   UNL     1       3.831   4.010  11.155  0.00  0.00    +0.000 HD
ENDBRANCH   3  16
ENDBRANCH   1   7
BRANCH   2  20
ATOM     20  C   UNL     1       2.164   6.563  20.042  0.00  0.00    +0.000 C 
ATOM     21  O   UNL     1       2.043   5.669  20.874  0.00  0.00    +0.000 OA
ATOM     22  N   UNL     1       1.737   7.868  20.226  0.00  0.00    +0.000 N 
ATOM     23  C   UNL     1       1.182   8.255  21.521  0.00  0.00    +0.000 C 
ATOM     24  C   UNL     1      -0.199   8.885  21.348  0.00  0.00    +0.000 C 
ATOM     25  C   UNL     1      -0.194  10.041  20.329  0.00  0.00    +0.000 C 
ATOM     26  C   UNL     1       0.465   9.581  19.016  0.00  0.00    +0.000 C 
ATOM     27  C   UNL     1       1.839   8.951  19.247  0.00  0.00    +0.000 C 
BRANCH  25  28
ATOM     28  C   UNL     1       0.496  11.309  20.862  0.00  0.00    +0.000 C 
BRANCH  28  29
ATOM     29  O   UNL     1      -0.293  12.460  20.559  0.00  0.00    +0.000 OA
BRANCH  29  30
ATOM     30  C   UNL     1      -1.511  12.538  21.182  0.00  0.00    +0.000 A 
ATOM     31  C   UNL     1      -2.738  12.768  20.551  0.00  0.00    +0.000 A 
ATOM     32  C   UNL     1      -3.916  12.824  21.300  0.00  0.00    +0.000 A 
ATOM     33  C   UNL     1      -3.863  12.651  22.677  0.00  0.00    +0.000 A 
ATOM     34  F   UNL     1      -4.995  12.705  23.391  0.00  0.00    +0.000 F 
ATOM     35  C   UNL     1      -2.653  12.424  23.320  0.00  0.00    +0.000 A 
ATOM     36  C   UNL     1      -1.476  12.369  22.571  0.00  0.00    +0.000 A 
ENDBRANCH  29  30
ENDBRANCH  28  29
ENDBRANCH  25  28
ENDBRANCH   2  20
TORSDOF 6
ENDMDL
