MODEL 1
REMARK VINA RESULT:      -7.3      0.000      0.000
REMARK  Name = 
REMARK  8 active torsions:
REMARK  status: ('A' for Active; 'I' for Inactive)
REMARK    1  A    between atoms: C_1  and  C_2
REMARK    2  A    between atoms: C_2  and  N_3
REMARK    3  A    between atoms: N_3  and  C_4
REMARK    4  A    between atoms: C_4  and  C_5
REMARK    5  A    between atoms: C_10  and  C_12
REMARK    6  A    between atoms: C_16  and  S_17
REMARK    7  A    between atoms: S_17  and  N_20
REMARK    8  A    between atoms: N_23  and  C_24
REMARK                            x       y       z     vdW  Elec       q    Type
REMARK                         _______ _______ _______ _____ _____    ______ ____
ROOT
ATOM      1  C   UNL     1       2.250   6.396  19.446  0.00  0.00    +0.000 A 
ATOM      2  C   UNL     1       2.613   6.822  18.152  0.00  0.00    +0.000 A 
ATOM      3  C   UNL     1       2.427   8.148  17.744  0.00  0.00    +0.000 A 
ATOM      4  C   UNL     1       1.875   9.073  18.627  0.00  0.00    +0.000 A 
ATOM      5  C   UNL     1       1.519   8.662  19.913  0.00  0.00    +0.000 A 
ATOM      6  C   UNL     1       1.724   7.335  20.337  0.00  0.00    +0.000 A 
ENDROOT
BRANCH   1   8
ATOM      7  N   UNL     1       3.833   4.385  19.497  0.00  0.00    +0.000 N 
ATOM      8  C   UNL     1       2.603   4.991  19.814  0.00  0.00    +0.000 C 
ATOM      9  O   UNL     1       1.741   4.382  20.454  0.00  0.00    +0.000 OA
BRANCH   7  11
ATOM     10  C   UNL     1       3.695   1.922  19.053  0.00  0.00    +0.000 C 
ATOM     11  C   UNL     1       4.031   3.030  20.039  0.00  0.00    +0.000 C 
ENDBRANCH   7  11
BRANCH   7  12
ATOM     12  C   UNL     1       5.045   5.116  19.108  0.00  0.00    +0.000 C 
BRANCH  12  13
ATOM     13  C   UNL     1       5.539   4.790  17.724  0.00  0.00    +0.000 A 
ATOM     14  C   UNL     1       4.876   4.455  16.557  0.00  0.00    +0.000 A 
ATOM     15  C   UNL     1       5.758   4.291  15.446  0.00  0.00    +0.000 A 
ATOM     16  C   UNL     1       7.074   4.479  15.800  0.00  0.00    +0.000 A 
ATOM     17  S   UNL     1       7.245   4.820  17.463  0.00  0.00    +0.000 S 
ENDBRANCH  12  13
ENDBRANCH   7  12
ENDBRANCH   1   8
BRANCH   5  18
ATOM     18  S   UNL     1       0.698   9.820  20.988  0.00  0.00    +0.000 S 
ATOM     19  O   UNL     1      -0.644   9.313  21.185  0.00  0.00    +0.000 OA
ATOM     20  O   UNL     1       1.561  10.056  22.124  0.00  0.00    +0.000 OA
BRANCH  18  21
ATOM     21  N   UNL     1       0.569  11.270  20.096  0.00  0.00    +0.000 NA
ATOM     22  C   UNL     1       1.018  12.540  20.739  0.00  0.00    +0.000 C 
ATOM     23  C   UNL     1       0.038  13.024  21.821  0.00  0.00    +0.000 C 
ATOM     24  N   UNL     1      -1.346  13.189  21.331  0.00  0.00    +0.000 NA
ATOM     25  C   UNL     1      -2.240  13.421  22.472  0.00  0.00    +0.000 C 
ATOM     26  C   UNL     1      -1.807  12.016  20.557  0.00  0.00    +0.000 C 
ATOM     27  C   UNL     1      -0.798  11.491  19.509  0.00  0.00    +0.000 C 
ENDBRANCH  18  21
ENDBRANCH   5  18
TORSDOF 6
ENDMDL
MODEL 2
REMARK VINA RESULT:      -7.1      1.000      1.342
REMARK  Name = 
REMARK  8 active torsions:
REMARK  status: ('A' for Active; 'I' for Inactive)
REMARK    1  A    between atoms: C_1  and  C_2
REMARK    2  A    between atoms: C_2  and  N_3
REMARK    3  A    between atoms: N_3  and  C_4
REMARK    4  A    between atoms: C_4  and  C_5
REMARK    5  A    between atoms: C_10  and  C_12
REMARK    6  A    between atoms: C_16  and  S_17
REMARK    7  A    between atoms: S_17  and  N_20
REMARK    8  A    between atoms: N_23  and  C_24
REMARK                            x       y       z     vdW  Elec       q    Type
REMARK                         _______ _______ _______ _____ _____    ______ ____
ROOT
ATOM      1  C   UNL     1       2.042   6.550  19.602  0.00  0.00    +0.000 A 
ATOM      2  C   UNL     1       2.179   6.976  18.265  0.00  0.00    +0.000 A 
ATOM      3  C   UNL     1       2.039   8.323  17.913  0.00  0.00    +0.000 A 
ATOM      4  C   UNL     1       1.761   9.271  18.896  0.00  0.00    +0.000 A 
ATOM      5  C   UNL     1       1.630   8.859  20.223  0.00  0.00    +0.000 A 
ATOM      6  C   UNL     1       1.791   7.509  20.587  0.00  0.00    +0.000 A 
ENDROOT
BRANCH   1   8
ATOM      7  N   UNL     1       3.544   4.479  19.558  0.00  0.00    +0.000 N 
ATOM      8  C   UNL     1       2.329   5.110  19.881  0.00  0.00    +0.000 C 
ATOM      9  O   UNL     1       1.425   4.494  20.451  0.00  0.00    +0.000 OA
BRANCH   7  11
ATOM     10  C   UNL     1       3.339   2.059  18.936  0.00  0.00    +0.000 C 
ATOM     11  C   UNL     1       3.675   3.083  20.010  0.00  0.00    +0.000 C 
ENDBRANCH   7  11
BRANCH   7  12
ATOM     12  C   UNL     1       4.796   5.185  19.256  0.00  0.00    +0.000 C 
BRANCH  12  13
ATOM     13  C   UNL     1       5.342   4.905  17.882  0.00  0.00    +0.000 A 
ATOM     14  C   UNL     1       4.722   4.700  16.662  0.00  0.00    +0.000 A 
ATOM     15  C   UNL     1       5.652   4.531  15.591  0.00  0.00    +0.000 A 
ATOM     16  C   UNL     1       6.955   4.584  16.026  0.00  0.00    +0.000 A 
ATOM     17  S   UNL     1       7.056   4.805  17.715  0.00  0.00    +0.000 S 
ENDBRANCH  12  13
ENDBRANCH   7  12
ENDBRANCH   1   8
BRANCH   5  18
ATOM     18  S   UNL     1       1.148  10.057  21.450  0.00  0.00    +0.000 S 
ATOM     19  O   UNL     1       1.549   9.513  22.731  0.00  0.00    +0.000 OA
ATOM     20  O   UNL     1       1.637  11.348  21.022  0.00  0.00    +0.000 OA
BRANCH  18  21
ATOM     21  N   UNL     1      -0.559  10.088  21.421  0.00  0.00    +0.000 NA
ATOM     22  C   UNL     1      -1.235  10.821  20.310  0.00  0.00    +0.000 C 
ATOM     23  C   UNL     1      -1.129  12.347  20.469  0.00  0.00    +0.000 C 
ATOM     24  N   UNL     1      -1.642  12.843  21.762  0.00  0.00    +0.000 NA
ATOM     25  C   UNL     1      -1.288  14.259  21.915  0.00  0.00    +0.000 C 
ATOM     26  C   UNL     1      -1.120  12.063  22.905  0.00  0.00    +0.000 C 
ATOM     27  C   UNL     1      -1.170  10.528  22.723  0.00  0.00    +0.000 C 
ENDBRANCH  18  21
ENDBRANCH   5  18
TORSDOF 6
ENDMDL
MODEL 3
REMARK VINA RESULT:      -7.0      0.706      1.103
REMARK  Name = 
REMARK  8 active torsions:
REMARK  status: ('A' for Active; 'I' for Inactive)
REMARK    1  A    between atoms: C_1  and  C_2
REMARK    2  A    between atoms: C_2  and  N_3
REMARK    3  A    between atoms: N_3  and  C_4
REMARK    4  A    between atoms: C_4  and  C_5
REMARK    5  A    between atoms: C_10  and  C_12
REMARK    6  A    between atoms: C_16  and  S_17
REMARK    7  A    between atoms: S_17  and  N_20
REMARK    8  A    between atoms: N_23  and  C_24
REMARK                            x       y       z     vdW  Elec       q    Type
REMARK                         _______ _______ _______ _____ _____    ______ ____
ROOT
ATOM      1  C   UNL     1       2.191   6.227  19.504  0.00  0.00    +0.000 A 
ATOM      2  C   UNL     1       2.554   6.723  18.236  0.00  0.00    +0.000 A 
ATOM      3  C   UNL     1       2.351   8.064  17.894  0.00  0.00    +0.000 A 
ATOM      4  C   UNL     1       1.782   8.936  18.819  0.00  0.00    +0.000 A 
ATOM      5  C   UNL     1       1.426   8.456  20.081  0.00  0.00    +0.000 A 
ATOM      6  C   UNL     1       1.647   7.112  20.438  0.00  0.00    +0.000 A 
ENDROOT
BRANCH   1   8
ATOM      7  N   UNL     1       3.795   4.233  19.447  0.00  0.00    +0.000 N 
ATOM      8  C   UNL     1       2.561   4.810  19.803  0.00  0.00    +0.000 C 
ATOM      9  O   UNL     1       1.712   4.162  20.421  0.00  0.00    +0.000 OA
BRANCH   7  11
ATOM     10  C   UNL     1       3.647   1.791  18.901  0.00  0.00    +0.000 C 
ATOM     11  C   UNL     1       4.012   2.857  19.924  0.00  0.00    +0.000 C 
ENDBRANCH   7  11
BRANCH   7  12
ATOM     12  C   UNL     1       4.996   4.994  19.082  0.00  0.00    +0.000 C 
BRANCH  12  13
ATOM     13  C   UNL     1       5.493   4.723  17.688  0.00  0.00    +0.000 A 
ATOM     14  C   UNL     1       4.833   4.418  16.511  0.00  0.00    +0.000 A 
ATOM     15  C   UNL     1       5.716   4.306  15.394  0.00  0.00    +0.000 A 
ATOM     16  C   UNL     1       7.029   4.501  15.753  0.00  0.00    +0.000 A 
ATOM     17  S   UNL     1       7.197   4.788  17.427  0.00  0.00    +0.000 S 
ENDBRANCH  12  13
ENDBRANCH   7  12
ENDBRANCH   1   8
BRANCH   5  18
ATOM     18  S   UNL     1       0.583   9.547  21.209  0.00  0.00    +0.000 S 
ATOM     19  O   UNL     1      -0.399   8.738  21.901  0.00  0.00    +0.000 OA
ATOM     20  O   UNL     1       1.587  10.271  21.955  0.00  0.00    +0.000 OA
BRANCH  18  21
ATOM     21  N   UNL     1      -0.269  10.656  20.230  0.00  0.00    +0.000 NA
ATOM     22  C   UNL     1       0.512  11.541  19.316  0.00  0.00    +0.000 C 
ATOM     23  C   UNL     1       1.253  12.654  20.075  0.00  0.00    +0.000 C 
ATOM     24  N   UNL     1       0.367  13.485  20.916  0.00  0.00    +0.000 NA
ATOM     25  C   UNL     1       1.183  14.356  21.770  0.00  0.00    +0.000 C 
ATOM     26  C   UNL     1      -0.541  12.666  21.748  0.00  0.00    +0.000 C 
ATOM     27  C   UNL     1      -1.241  11.508  21.000  0.00  0.00    +0.000 C 
ENDBRANCH  18  21
ENDBRANCH   5  18
TORSDOF 6
ENDMDL
MODEL 4
REMARK VINA RESULT:      -7.0      2.739      8.954
REMARK  Name = 
REMARK  8 active torsions:
REMARK  status: ('A' for Active; 'I' for Inactive)
REMARK    1  A    between atoms: C_1  and  C_2
REMARK    2  A    between atoms: C_2  and  N_3
REMARK    3  A    between atoms: N_3  and  C_4
REMARK    4  A    between atoms: C_4  and  C_5
REMARK    5  A    between atoms: C_10  and  C_12
REMARK    6  A    between atoms: C_16  and  S_17
REMARK    7  A    between atoms: S_17  and  N_20
REMARK    8  A    between atoms: N_23  and  C_24
REMARK                            x       y       z     vdW  Elec       q    Type
REMARK                         _______ _______ _______ _____ _____    ______ ____
ROOT
ATOM      1  C   UNL     1       1.089   9.996  19.427  0.00  0.00    +0.000 A 
ATOM      2  C   UNL     1       0.569   9.704  20.704  0.00  0.00    +0.000 A 
ATOM      3  C   UNL     1       0.772   8.458  21.305  0.00  0.00    +0.000 A 
ATOM      4  C   UNL     1       1.505   7.479  20.638  0.00  0.00    +0.000 A 
ATOM      5  C   UNL     1       2.031   7.761  19.376  0.00  0.00    +0.000 A 
ATOM      6  C   UNL     1       1.848   9.021  18.775  0.00  0.00    +0.000 A 
ENDROOT
BRANCH   1   8
ATOM      7  N   UNL     1      -0.336  11.965  18.625  0.00  0.00    +0.000 N 
ATOM      8  C   UNL     1       0.913  11.396  18.933  0.00  0.00    +0.000 C 
ATOM      9  O   UNL     1       1.953  12.053  18.832  0.00  0.00    +0.000 OA
BRANCH   7  11
ATOM     10  C   UNL     1      -0.589  14.329  19.420  0.00  0.00    +0.000 C 
ATOM     11  C   UNL     1      -0.311  13.390  18.255  0.00  0.00    +0.000 C 
ENDBRANCH   7  11
BRANCH   7  12
ATOM     12  C   UNL     1      -1.628  11.432  19.076  0.00  0.00    +0.000 C 
BRANCH  12  13
ATOM     13  C   UNL     1      -2.654  11.307  17.982  0.00  0.00    +0.000 A 
ATOM     14  C   UNL     1      -2.560  10.898  16.663  0.00  0.00    +0.000 A 
ATOM     15  C   UNL     1      -3.824  10.875  15.999  0.00  0.00    +0.000 A 
ATOM     16  C   UNL     1      -4.845  11.293  16.819  0.00  0.00    +0.000 A 
ATOM     17  S   UNL     1      -4.280  11.738  18.367  0.00  0.00    +0.000 S 
ENDBRANCH  12  13
ENDBRANCH   7  12
ENDBRANCH   1   8
BRANCH   5  18
ATOM     18  S   UNL     1       2.855   6.462  18.479  0.00  0.00    +0.000 S 
ATOM     19  O   UNL     1       1.816   5.575  17.999  0.00  0.00    +0.000 OA
ATOM     20  O   UNL     1       3.771   7.081  17.548  0.00  0.00    +0.000 OA
BRANCH  18  21
ATOM     21  N   UNL     1       3.765   5.602  19.640  0.00  0.00    +0.000 NA
ATOM     22  C   UNL     1       5.031   4.943  19.203  0.00  0.00    +0.000 C 
ATOM     23  C   UNL     1       4.772   3.686  18.356  0.00  0.00    +0.000 C 
ATOM     24  N   UNL     1       3.912   2.690  19.026  0.00  0.00    +0.000 NA
ATOM     25  C   UNL     1       3.534   1.648  18.064  0.00  0.00    +0.000 C 
ATOM     26  C   UNL     1       2.701   3.303  19.612  0.00  0.00    +0.000 C 
ATOM     27  C   UNL     1       2.951   4.601  20.414  0.00  0.00    +0.000 C 
ENDBRANCH  18  21
ENDBRANCH   5  18
TORSDOF 6
ENDMDL
MODEL 5
REMARK VINA RESULT:      -7.0      2.841      8.699
REMARK  Name = 
REMARK  8 active torsions:
REMARK  status: ('A' for Active; 'I' for Inactive)
REMARK    1  A    between atoms: C_1  and  C_2
REMARK    2  A    between atoms: C_2  and  N_3
REMARK    3  A    between atoms: N_3  and  C_4
REMARK    4  A    between atoms: C_4  and  C_5
REMARK    5  A    between atoms: C_10  and  C_12
REMARK    6  A    between atoms: C_16  and  S_17
REMARK    7  A    between atoms: S_17  and  N_20
REMARK    8  A    between atoms: N_23  and  C_24
REMARK                            x       y       z     vdW  Elec       q    Type
REMARK                         _______ _______ _______ _____ _____    ______ ____
ROOT
ATOM      1  C   UNL     1       1.085   9.852  19.773  0.00  0.00    +0.000 A 
ATOM      2  C   UNL     1       0.568   9.663  21.071  0.00  0.00    +0.000 A 
ATOM      3  C   UNL     1       0.724   8.448  21.746  0.00  0.00    +0.000 A 
ATOM      4  C   UNL     1       1.406   7.398  21.134  0.00  0.00    +0.000 A 
ATOM      5  C   UNL     1       1.928   7.579  19.852  0.00  0.00    +0.000 A 
ATOM      6  C   UNL     1       1.792   8.806  19.175  0.00  0.00    +0.000 A 
ENDROOT
BRANCH   1   8
ATOM      7  N   UNL     1      -0.233  11.752  18.675  0.00  0.00    +0.000 N 
ATOM      8  C   UNL     1       0.964  11.225  19.195  0.00  0.00    +0.000 C 
ATOM      9  O   UNL     1       1.996  11.901  19.223  0.00  0.00    +0.000 OA
BRANCH   7  11
ATOM     10  C   UNL     1      -0.662  14.139  19.306  0.00  0.00    +0.000 C 
ATOM     11  C   UNL     1      -0.174  13.160  18.248  0.00  0.00    +0.000 C 
ENDBRANCH   7  11
BRANCH   7  12
ATOM     12  C   UNL     1      -1.570  11.209  18.947  0.00  0.00    +0.000 C 
BRANCH  12  13
ATOM     13  C   UNL     1      -2.336  10.819  17.712  0.00  0.00    +0.000 A 
ATOM     14  C   UNL     1      -2.037   9.964  16.665  0.00  0.00    +0.000 A 
ATOM     15  C   UNL     1      -3.105   9.846  15.724  0.00  0.00    +0.000 A 
ATOM     16  C   UNL     1      -4.180  10.635  16.063  0.00  0.00    +0.000 A 
ATOM     17  S   UNL     1      -3.891  11.532  17.485  0.00  0.00    +0.000 S 
ENDBRANCH  12  13
ENDBRANCH   7  12
ENDBRANCH   1   8
BRANCH   5  18
ATOM     18  S   UNL     1       2.683   6.191  19.029  0.00  0.00    +0.000 S 
ATOM     19  O   UNL     1       3.012   6.639  17.692  0.00  0.00    +0.000 OA
ATOM     20  O   UNL     1       3.716   5.673  19.898  0.00  0.00    +0.000 OA
BRANCH  18  21
ATOM     21  N   UNL     1       1.456   5.013  18.886  0.00  0.00    +0.000 NA
ATOM     22  C   UNL     1       1.322   3.993  19.967  0.00  0.00    +0.000 C 
ATOM     23  C   UNL     1       2.446   2.945  19.922  0.00  0.00    +0.000 C 
ATOM     24  N   UNL     1       2.561   2.259  18.619  0.00  0.00    +0.000 NA
ATOM     25  C   UNL     1       3.791   1.460  18.597  0.00  0.00    +0.000 C 
ATOM     26  C   UNL     1       2.554   3.210  17.486  0.00  0.00    +0.000 C 
ATOM     27  C   UNL     1       1.462   4.303  17.560  0.00  0.00    +0.000 C 
ENDBRANCH  18  21
ENDBRANCH   5  18
TORSDOF 6
ENDMDL
MODEL 6
REMARK VINA RESULT:      -7.0      2.459      3.785
REMARK  Name = 
REMARK  8 active torsions:
REMARK  status: ('A' for Active; 'I' for Inactive)
REMARK    1  A    between atoms: C_1  and  C_2
REMARK    2  A    between atoms: C_2  and  N_3
REMARK    3  A    between atoms: N_3  and  C_4
REMARK    4  A    between atoms: C_4  and  C_5
REMARK    5  A    between atoms: C_10  and  C_12
REMARK    6  A    between atoms: C_16  and  S_17
REMARK    7  A    between atoms: S_17  and  N_20
REMARK    8  A    between atoms: N_23  and  C_24
REMARK                            x       y       z     vdW  Elec       q    Type
REMARK                         _______ _______ _______ _____ _____    ______ ____
ROOT
ATOM      1  C   UNL     1       4.017   6.319  18.527  0.00  0.00    +0.000 A 
ATOM      2  C   UNL     1       3.601   5.696  19.721  0.00  0.00    +0.000 A 
ATOM      3  C   UNL     1       2.498   6.167  20.441  0.00  0.00    +0.000 A 
ATOM      4  C   UNL     1       1.788   7.273  19.977  0.00  0.00    +0.000 A 
ATOM      5  C   UNL     1       2.188   7.892  18.792  0.00  0.00    +0.000 A 
ATOM      6  C   UNL     1       3.285   7.410  18.051  0.00  0.00    +0.000 A 
ENDROOT
BRANCH   1   8
ATOM      7  N   UNL     1       4.960   4.537  16.951  0.00  0.00    +0.000 N 
ATOM      8  C   UNL     1       5.131   5.662  17.779  0.00  0.00    +0.000 C 
ATOM      9  O   UNL     1       6.238   6.192  17.909  0.00  0.00    +0.000 OA
BRANCH   7  11
ATOM     10  C   UNL     1       5.961   4.036  14.709  0.00  0.00    +0.000 C 
ATOM     11  C   UNL     1       6.159   4.101  16.216  0.00  0.00    +0.000 C 
ENDBRANCH   7  11
BRANCH   7  12
ATOM     12  C   UNL     1       3.669   4.083  16.420  0.00  0.00    +0.000 C 
BRANCH  12  13
ATOM     13  C   UNL     1       2.776   3.439  17.446  0.00  0.00    +0.000 A 
ATOM     14  C   UNL     1       1.474   3.698  17.837  0.00  0.00    +0.000 A 
ATOM     15  C   UNL     1       0.997   2.777  18.819  0.00  0.00    +0.000 A 
ATOM     16  C   UNL     1       1.956   1.857  19.172  0.00  0.00    +0.000 A 
ATOM     17  S   UNL     1       3.427   2.120  18.348  0.00  0.00    +0.000 S 
ENDBRANCH  12  13
ENDBRANCH   7  12
ENDBRANCH   1   8
BRANCH   5  18
ATOM     18  S   UNL     1       1.355   9.379  18.276  0.00  0.00    +0.000 S 
ATOM     19  O   UNL     1       2.388  10.367  18.046  0.00  0.00    +0.000 OA
ATOM     20  O   UNL     1       0.437   9.026  17.217  0.00  0.00    +0.000 OA
BRANCH  18  21
ATOM     21  N   UNL     1       0.448   9.894  19.628  0.00  0.00    +0.000 NA
ATOM     22  C   UNL     1      -0.960  10.339  19.410  0.00  0.00    +0.000 C 
ATOM     23  C   UNL     1      -1.038  11.716  18.730  0.00  0.00    +0.000 C 
ATOM     24  N   UNL     1      -0.301  12.773  19.454  0.00  0.00    +0.000 NA
ATOM     25  C   UNL     1      -0.236  13.979  18.620  0.00  0.00    +0.000 C 
ATOM     26  C   UNL     1       1.063  12.343  19.831  0.00  0.00    +0.000 C 
ATOM     27  C   UNL     1       1.151  10.932  20.459  0.00  0.00    +0.000 C 
ENDBRANCH  18  21
ENDBRANCH   5  18
TORSDOF 6
ENDMDL
MODEL 7
REMARK VINA RESULT:      -6.9      2.295      8.693
REMARK  Name = 
REMARK  8 active torsions:
REMARK  status: ('A' for Active; 'I' for Inactive)
REMARK    1  A    between atoms: C_1  and  C_2
REMARK    2  A    between atoms: C_2  and  N_3
REMARK    3  A    between atoms: N_3  and  C_4
REMARK    4  A    between atoms: C_4  and  C_5
REMARK    5  A    between atoms: C_10  and  C_12
REMARK    6  A    between atoms: C_16  and  S_17
REMARK    7  A    between atoms: S_17  and  N_20
REMARK    8  A    between atoms: N_23  and  C_24
REMARK                            x       y       z     vdW  Elec       q    Type
REMARK                         _______ _______ _______ _____ _____    ______ ____
ROOT
ATOM      1  C   UNL     1       0.980   9.492  20.114  0.00  0.00    +0.000 A 
ATOM      2  C   UNL     1       1.335  10.222  18.962  0.00  0.00    +0.000 A 
ATOM      3  C   UNL     1       2.075   9.637  17.929  0.00  0.00    +0.000 A 
ATOM      4  C   UNL     1       2.471   8.305  18.030  0.00  0.00    +0.000 A 
ATOM      5  C   UNL     1       2.117   7.571  19.163  0.00  0.00    +0.000 A 
ATOM      6  C   UNL     1       1.355   8.149  20.197  0.00  0.00    +0.000 A 
ENDROOT
BRANCH   1   8
ATOM      7  N   UNL     1      -0.608  11.370  20.821  0.00  0.00    +0.000 N 
ATOM      8  C   UNL     1       0.089  10.180  21.098  0.00  0.00    +0.000 C 
ATOM      9  O   UNL     1      -0.025   9.616  22.189  0.00  0.00    +0.000 OA
BRANCH   7  11
ATOM     10  C   UNL     1      -1.007  13.055  22.634  0.00  0.00    +0.000 C 
ATOM     11  C   UNL     1      -1.518  11.834  21.883  0.00  0.00    +0.000 C 
ENDBRANCH   7  11
BRANCH   7  12
ATOM     12  C   UNL     1      -0.860  11.895  19.473  0.00  0.00    +0.000 C 
BRANCH  12  13
ATOM     13  C   UNL     1      -1.996  11.218  18.755  0.00  0.00    +0.000 A 
ATOM     14  C   UNL     1      -2.057  10.062  17.996  0.00  0.00    +0.000 A 
ATOM     15  C   UNL     1      -3.381   9.760  17.555  0.00  0.00    +0.000 A 
ATOM     16  C   UNL     1      -4.291  10.707  17.964  0.00  0.00    +0.000 A 
ATOM     17  S   UNL     1      -3.549  11.964  18.847  0.00  0.00    +0.000 S 
ENDBRANCH  12  13
ENDBRANCH   7  12
ENDBRANCH   1   8
BRANCH   5  18
ATOM     18  S   UNL     1       2.738   5.911  19.340  0.00  0.00    +0.000 S 
ATOM     19  O   UNL     1       4.164   6.029  19.556  0.00  0.00    +0.000 OA
ATOM     20  O   UNL     1       1.908   5.232  20.310  0.00  0.00    +0.000 OA
BRANCH  18  21
ATOM     21  N   UNL     1       2.511   5.168  17.820  0.00  0.00    +0.000 NA
ATOM     22  C   UNL     1       1.489   4.086  17.704  0.00  0.00    +0.000 C 
ATOM     23  C   UNL     1       1.948   2.777  18.367  0.00  0.00    +0.000 C 
ATOM     24  N   UNL     1       3.242   2.280  17.856  0.00  0.00    +0.000 NA
ATOM     25  C   UNL     1       3.705   1.172  18.700  0.00  0.00    +0.000 C 
ATOM     26  C   UNL     1       4.268   3.343  17.807  0.00  0.00    +0.000 C 
ATOM     27  C   UNL     1       3.791   4.682  17.196  0.00  0.00    +0.000 C 
ENDBRANCH  18  21
ENDBRANCH   5  18
TORSDOF 6
ENDMDL
MODEL 8
REMARK VINA RESULT:      -6.8      2.323      3.782
REMARK  Name = 
REMARK  8 active torsions:
REMARK  status: ('A' for Active; 'I' for Inactive)
REMARK    1  A    between atoms: C_1  and  C_2
REMARK    2  A    between atoms: C_2  and  N_3
REMARK    3  A    between atoms: N_3  and  C_4
REMARK    4  A    between atoms: C_4  and  C_5
REMARK    5  A    between atoms: C_10  and  C_12
REMARK    6  A    between atoms: C_16  and  S_17
REMARK    7  A    between atoms: S_17  and  N_20
REMARK    8  A    between atoms: N_23  and  C_24
REMARK                            x       y       z     vdW  Elec       q    Type
REMARK                         _______ _______ _______ _____ _____    ______ ____
ROOT
ATOM      1  C   UNL     1       2.655   7.387  18.757  0.00  0.00    +0.000 A 
ATOM      2  C   UNL     1       2.318   6.857  20.019  0.00  0.00    +0.000 A 
ATOM      3  C   UNL     1       1.469   7.545  20.893  0.00  0.00    +0.000 A 
ATOM      4  C   UNL     1       0.938   8.777  20.517  0.00  0.00    +0.000 A 
ATOM      5  C   UNL     1       1.260   9.306  19.267  0.00  0.00    +0.000 A 
ATOM      6  C   UNL     1       2.097   8.609  18.374  0.00  0.00    +0.000 A 
ENDROOT
BRANCH   1   8
ATOM      7  N   UNL     1       3.206   5.150  17.643  0.00  0.00    +0.000 N 
ATOM      8  C   UNL     1       3.471   6.515  17.859  0.00  0.00    +0.000 C 
ATOM      9  O   UNL     1       4.402   7.081  17.279  0.00  0.00    +0.000 OA
BRANCH   7  11
ATOM     10  C   UNL     1       5.464   4.186  17.138  0.00  0.00    +0.000 C 
ATOM     11  C   UNL     1       4.059   4.488  16.640  0.00  0.00    +0.000 C 
ENDBRANCH   7  11
BRANCH   7  12
ATOM     12  C   UNL     1       1.931   4.490  17.951  0.00  0.00    +0.000 C 
BRANCH  12  13
ATOM     13  C   UNL     1       1.898   3.820  19.298  0.00  0.00    +0.000 A 
ATOM     14  C   UNL     1       0.862   3.548  20.174  0.00  0.00    +0.000 A 
ATOM     15  C   UNL     1       1.289   2.823  21.329  0.00  0.00    +0.000 A 
ATOM     16  C   UNL     1       2.643   2.585  21.317  0.00  0.00    +0.000 A 
ATOM     17  S   UNL     1       3.397   3.255  19.940  0.00  0.00    +0.000 S 
ENDBRANCH  12  13
ENDBRANCH   7  12
ENDBRANCH   1   8
BRANCH   5  18
ATOM     18  S   UNL     1       0.682  10.938  18.849  0.00  0.00    +0.000 S 
ATOM     19  O   UNL     1       1.782  11.603  18.183  0.00  0.00    +0.000 OA
ATOM     20  O   UNL     1      -0.594  10.796  18.184  0.00  0.00    +0.000 OA
BRANCH  18  21
ATOM     21  N   UNL     1       0.429  11.734  20.338  0.00  0.00    +0.000 NA
ATOM     22  C   UNL     1      -0.912  12.335  20.602  0.00  0.00    +0.000 C 
ATOM     23  C   UNL     1      -1.149  13.615  19.784  0.00  0.00    +0.000 C 
ATOM     24  N   UNL     1      -0.108  14.644  19.984  0.00  0.00    +0.000 NA
ATOM     25  C   UNL     1      -0.290  15.717  18.999  0.00  0.00    +0.000 C 
ATOM     26  C   UNL     1       1.257  14.084  19.877  0.00  0.00    +0.000 C 
ATOM     27  C   UNL     1       1.481  12.763  20.651  0.00  0.00    +0.000 C 
ENDBRANCH  18  21
ENDBRANCH   5  18
TORSDOF 6
ENDMDL
MODEL 9
REMARK VINA RESULT:      -6.7      2.703      8.724
REMARK  Name = 
REMARK  8 active torsions:
REMARK  status: ('A' for Active; 'I' for Inactive)
REMARK    1  A    between atoms: C_1  and  C_2
REMARK    2  A    between atoms: C_2  and  N_3
REMARK    3  A    between atoms: N_3  and  C_4
REMARK    4  A    between atoms: C_4  and  C_5
REMARK    5  A    between atoms: C_10  and  C_12
REMARK    6  A    between atoms: C_16  and  S_17
REMARK    7  A    between atoms: S_17  and  N_20
REMARK    8  A    between atoms: N_23  and  C_24
REMARK                            x       y       z     vdW  Elec       q    Type
REMARK                         _______ _______ _______ _____ _____    ______ ____
ROOT
ATOM      1  C   UNL     1       0.977   9.528  20.060  0.00  0.00    +0.000 A 
ATOM      2  C   UNL     1       0.658   8.906  21.284  0.00  0.00    +0.000 A 
ATOM      3  C   UNL     1       1.049   7.591  21.555  0.00  0.00    +0.000 A 
ATOM      4  C   UNL     1       1.771   6.873  20.603  0.00  0.00    +0.000 A 
ATOM      5  C   UNL     1       2.098   7.483  19.392  0.00  0.00    +0.000 A 
ATOM      6  C   UNL     1       1.726   8.814  19.121  0.00  0.00    +0.000 A 
ENDROOT
BRANCH   1   8
ATOM      7  N   UNL     1      -0.612  11.424  19.403  0.00  0.00    +0.000 N 
ATOM      8  C   UNL     1       0.614  10.972  19.925  0.00  0.00    +0.000 C 
ATOM      9  O   UNL     1       1.463  11.769  20.332  0.00  0.00    +0.000 OA
BRANCH   7  11
ATOM     10  C   UNL     1      -0.338  13.610  18.207  0.00  0.00    +0.000 C 
ATOM     11  C   UNL     1      -0.824  12.881  19.450  0.00  0.00    +0.000 C 
ENDBRANCH   7  11
BRANCH   7  12
ATOM     12  C   UNL     1      -1.816  10.594  19.267  0.00  0.00    +0.000 C 
BRANCH  12  13
ATOM     13  C   UNL     1      -2.359  10.527  17.865  0.00  0.00    +0.000 A 
ATOM     14  C   UNL     1      -1.909   9.882  16.726  0.00  0.00    +0.000 A 
ATOM     15  C   UNL     1      -2.790  10.042  15.614  0.00  0.00    +0.000 A 
ATOM     16  C   UNL     1      -3.875  10.827  15.925  0.00  0.00    +0.000 A 
ATOM     17  S   UNL     1      -3.816  11.390  17.535  0.00  0.00    +0.000 S 
ENDBRANCH  12  13
ENDBRANCH   7  12
ENDBRANCH   1   8
BRANCH   5  18
ATOM     18  S   UNL     1       2.908   6.516  18.134  0.00  0.00    +0.000 S 
ATOM     19  O   UNL     1       1.908   5.608  17.611  0.00  0.00    +0.000 OA
ATOM     20  O   UNL     1       3.595   7.430  17.250  0.00  0.00    +0.000 OA
BRANCH  18  21
ATOM     21  N   UNL     1       4.074   5.575  18.953  0.00  0.00    +0.000 NA
ATOM     22  C   UNL     1       5.515   5.922  18.777  0.00  0.00    +0.000 C 
ATOM     23  C   UNL     1       6.046   5.521  17.391  0.00  0.00    +0.000 C 
ATOM     24  N   UNL     1       5.848   4.092  17.074  0.00  0.00    +0.000 NA
ATOM     25  C   UNL     1       6.167   3.859  15.660  0.00  0.00    +0.000 C 
ATOM     26  C   UNL     1       4.469   3.643  17.363  0.00  0.00    +0.000 C 
ATOM     27  C   UNL     1       3.910   4.096  18.732  0.00  0.00    +0.000 C 
ENDBRANCH  18  21
ENDBRANCH   5  18
TORSDOF 6
ENDMDL
