MODEL 1
REMARK VINA RESULT:      -6.9      0.000      0.000
REMARK  Name = 
REMARK  1 active torsions:
REMARK  status: ('A' for Active; 'I' for Inactive)
REMARK    1  A    between atoms: O_1  and  C_2
REMARK                            x       y       z     vdW  Elec       q    Type
REMARK                         _______ _______ _______ _____ _____    ______ ____
ROOT
ATOM      1  C   UNL     1       1.533   2.557  18.735  0.00  0.00    +0.000 A 
ATOM      2  C   UNL     1       2.012   2.467  20.041  0.00  0.00    +0.000 A 
ATOM      3  C   UNL     1       3.314   2.879  20.353  0.00  0.00    +0.000 A 
ATOM      4  C   UNL     1       4.082   3.372  19.299  0.00  0.00    +0.000 A 
ATOM      5  O   UNL     1       5.372   3.816  19.394  0.00  0.00    +0.000 OA
ATOM      6  C   UNL     1       5.728   4.197  18.145  0.00  0.00    +0.000 A 
ATOM      7  C   UNL     1       4.698   4.026  17.248  0.00  0.00    +0.000 A 
ATOM      8  C   UNL     1       3.623   3.477  17.986  0.00  0.00    +0.000 A 
ATOM      9  C   UNL     1       2.316   3.057  17.693  0.00  0.00    +0.000 A 
ATOM     10  C   UNL     1       4.834   4.368  15.809  0.00  0.00    +0.000 C 
ATOM     11  C   UNL     1       6.066   5.270  15.577  0.00  0.00    +0.000 C 
ATOM     12  C   UNL     1       7.307   4.775  16.352  0.00  0.00    +0.000 C 
ATOM     13  C   UNL     1       7.075   4.750  17.878  0.00  0.00    +0.000 C 
ENDROOT
BRANCH   1  14
ATOM     14  O   UNL     1       0.267   2.154  18.418  0.00  0.00    +0.000 OA
ATOM     15  H   UNL     1       0.252   1.871  17.490  0.00  0.00    +0.000 HD
ENDBRANCH   1  14
TORSDOF 1
ENDMDL
MODEL 2
REMARK VINA RESULT:      -6.9      1.792      4.862
REMARK  Name = 
REMARK  1 active torsions:
REMARK  status: ('A' for Active; 'I' for Inactive)
REMARK    1  A    between atoms: O_1  and  C_2
REMARK                            x       y       z     vdW  Elec       q    Type
REMARK                         _______ _______ _______ _____ _____    ______ ____
ROOT
ATOM      1  C   UNL     1       6.833   4.833  16.557  0.00  0.00    +0.000 A 
ATOM      2  C   UNL     1       7.424   5.445  17.662  0.00  0.00    +0.000 A 
ATOM      3  C   UNL     1       6.727   5.558  18.871  0.00  0.00    +0.000 A 
ATOM      4  C   UNL     1       5.436   5.032  18.900  0.00  0.00    +0.000 A 
ATOM      5  O   UNL     1       4.593   5.048  19.977  0.00  0.00    +0.000 OA
ATOM      6  C   UNL     1       3.455   4.442  19.569  0.00  0.00    +0.000 A 
ATOM      7  C   UNL     1       3.543   4.020  18.261  0.00  0.00    +0.000 A 
ATOM      8  C   UNL     1       4.827   4.410  17.810  0.00  0.00    +0.000 A 
ATOM      9  C   UNL     1       5.540   4.309  16.605  0.00  0.00    +0.000 A 
ATOM     10  C   UNL     1       2.425   3.326  17.573  0.00  0.00    +0.000 C 
ATOM     11  C   UNL     1       1.389   2.813  18.597  0.00  0.00    +0.000 C 
ATOM     12  C   UNL     1       1.068   3.866  19.681  0.00  0.00    +0.000 C 
ATOM     13  C   UNL     1       2.315   4.269  20.497  0.00  0.00    +0.000 C 
ENDROOT
BRANCH   1  14
ATOM     14  O   UNL     1       7.501   4.721  15.371  0.00  0.00    +0.000 OA
ATOM     15  H   UNL     1       6.855   4.580  14.661  0.00  0.00    +0.000 HD
ENDBRANCH   1  14
TORSDOF 1
ENDMDL
MODEL 3
REMARK VINA RESULT:      -6.8      1.500      4.797
REMARK  Name = 
REMARK  1 active torsions:
REMARK  status: ('A' for Active; 'I' for Inactive)
REMARK    1  A    between atoms: O_1  and  C_2
REMARK                            x       y       z     vdW  Elec       q    Type
REMARK                         _______ _______ _______ _____ _____    ______ ____
ROOT
ATOM      1  C   UNL     1       6.423   4.986  15.662  0.00  0.00    +0.000 A 
ATOM      2  C   UNL     1       7.405   5.000  16.651  0.00  0.00    +0.000 A 
ATOM      3  C   UNL     1       7.097   4.632  17.967  0.00  0.00    +0.000 A 
ATOM      4  C   UNL     1       5.777   4.260  18.219  0.00  0.00    +0.000 A 
ATOM      5  O   UNL     1       5.275   3.877  19.431  0.00  0.00    +0.000 OA
ATOM      6  C   UNL     1       3.965   3.610  19.226  0.00  0.00    +0.000 A 
ATOM      7  C   UNL     1       3.608   3.797  17.909  0.00  0.00    +0.000 A 
ATOM      8  C   UNL     1       4.779   4.233  17.245  0.00  0.00    +0.000 A 
ATOM      9  C   UNL     1       5.106   4.607  15.932  0.00  0.00    +0.000 A 
ATOM     10  C   UNL     1       2.223   3.572  17.422  0.00  0.00    +0.000 C 
ATOM     11  C   UNL     1       1.410   2.755  18.449  0.00  0.00    +0.000 C 
ATOM     12  C   UNL     1       1.627   3.251  19.895  0.00  0.00    +0.000 C 
ATOM     13  C   UNL     1       3.103   3.148  20.337  0.00  0.00    +0.000 C 
ENDROOT
BRANCH   1  14
ATOM     14  O   UNL     1       6.711   5.347  14.376  0.00  0.00    +0.000 OA
ATOM     15  H   UNL     1       6.241   4.751  13.772  0.00  0.00    +0.000 HD
ENDBRANCH   1  14
TORSDOF 1
ENDMDL
MODEL 4
REMARK VINA RESULT:      -6.8      2.010      5.272
REMARK  Name = 
REMARK  1 active torsions:
REMARK  status: ('A' for Active; 'I' for Inactive)
REMARK    1  A    between atoms: O_1  and  C_2
REMARK                            x       y       z     vdW  Elec       q    Type
REMARK                         _______ _______ _______ _____ _____    ______ ____
ROOT
ATOM      1  C   UNL     1       5.754   6.255  16.829  0.00  0.00    +0.000 A 
ATOM      2  C   UNL     1       5.801   5.288  15.825  0.00  0.00    +0.000 A 
ATOM      3  C   UNL     1       4.945   4.181  15.862  0.00  0.00    +0.000 A 
ATOM      4  C   UNL     1       4.064   4.107  16.941  0.00  0.00    +0.000 A 
ATOM      5  O   UNL     1       3.158   3.107  17.162  0.00  0.00    +0.000 OA
ATOM      6  C   UNL     1       2.521   3.429  18.311  0.00  0.00    +0.000 A 
ATOM      7  C   UNL     1       2.979   4.618  18.832  0.00  0.00    +0.000 A 
ATOM      8  C   UNL     1       3.995   5.064  17.953  0.00  0.00    +0.000 A 
ATOM      9  C   UNL     1       4.863   6.166  17.900  0.00  0.00    +0.000 A 
ATOM     10  C   UNL     1       2.442   5.193  20.091  0.00  0.00    +0.000 C 
ATOM     11  C   UNL     1       1.104   4.522  20.469  0.00  0.00    +0.000 C 
ATOM     12  C   UNL     1       1.152   2.987  20.304  0.00  0.00    +0.000 C 
ATOM     13  C   UNL     1       1.449   2.562  18.850  0.00  0.00    +0.000 C 
ENDROOT
BRANCH   1  14
ATOM     14  O   UNL     1       6.587   7.337  16.806  0.00  0.00    +0.000 OA
ATOM     15  H   UNL     1       6.654   7.661  15.894  0.00  0.00    +0.000 HD
ENDBRANCH   1  14
TORSDOF 1
ENDMDL
MODEL 5
REMARK VINA RESULT:      -6.8      1.139      1.139
REMARK  Name = 
REMARK  1 active torsions:
REMARK  status: ('A' for Active; 'I' for Inactive)
REMARK    1  A    between atoms: O_1  and  C_2
REMARK                            x       y       z     vdW  Elec       q    Type
REMARK                         _______ _______ _______ _____ _____    ______ ____
ROOT
ATOM      1  C   UNL     1       1.235   3.033  18.794  0.00  0.00    +0.000 A 
ATOM      2  C   UNL     1       1.300   3.671  20.033  0.00  0.00    +0.000 A 
ATOM      3  C   UNL     1       2.360   4.536  20.334  0.00  0.00    +0.000 A 
ATOM      4  C   UNL     1       3.323   4.713  19.342  0.00  0.00    +0.000 A 
ATOM      5  O   UNL     1       4.433   5.506  19.443  0.00  0.00    +0.000 OA
ATOM      6  C   UNL     1       5.087   5.383  18.265  0.00  0.00    +0.000 A 
ATOM      7  C   UNL     1       4.423   4.544  17.399  0.00  0.00    +0.000 A 
ATOM      8  C   UNL     1       3.277   4.091  18.095  0.00  0.00    +0.000 A 
ATOM      9  C   UNL     1       2.208   3.226  17.811  0.00  0.00    +0.000 A 
ATOM     10  C   UNL     1       4.935   4.240  16.038  0.00  0.00    +0.000 C 
ATOM     11  C   UNL     1       6.016   5.261  15.622  0.00  0.00    +0.000 C 
ATOM     12  C   UNL     1       7.024   5.541  16.759  0.00  0.00    +0.000 C 
ATOM     13  C   UNL     1       6.343   6.125  18.016  0.00  0.00    +0.000 C 
ENDROOT
BRANCH   1  14
ATOM     14  O   UNL     1       0.209   2.185  18.490  0.00  0.00    +0.000 OA
ATOM     15  H   UNL     1      -0.072   1.732  19.301  0.00  0.00    +0.000 HD
ENDBRANCH   1  14
TORSDOF 1
ENDMDL
MODEL 6
REMARK VINA RESULT:      -6.7      2.144      5.095
REMARK  Name = 
REMARK  1 active torsions:
REMARK  status: ('A' for Active; 'I' for Inactive)
REMARK    1  A    between atoms: O_1  and  C_2
REMARK                            x       y       z     vdW  Elec       q    Type
REMARK                         _______ _______ _______ _____ _____    ______ ____
ROOT
ATOM      1  C   UNL     1       5.581   5.499  15.792  0.00  0.00    +0.000 A 
ATOM      2  C   UNL     1       5.360   6.772  16.318  0.00  0.00    +0.000 A 
ATOM      3  C   UNL     1       4.396   6.974  17.314  0.00  0.00    +0.000 A 
ATOM      4  C   UNL     1       3.689   5.849  17.737  0.00  0.00    +0.000 A 
ATOM      5  O   UNL     1       2.708   5.837  18.689  0.00  0.00    +0.000 OA
ATOM      6  C   UNL     1       2.295   4.552  18.782  0.00  0.00    +0.000 A 
ATOM      7  C   UNL     1       2.993   3.729  17.927  0.00  0.00    +0.000 A 
ATOM      8  C   UNL     1       3.897   4.566  17.231  0.00  0.00    +0.000 A 
ATOM      9  C   UNL     1       4.865   4.384  16.231  0.00  0.00    +0.000 A 
ATOM     10  C   UNL     1       2.729   2.271  17.836  0.00  0.00    +0.000 C 
ATOM     11  C   UNL     1       1.912   1.788  19.054  0.00  0.00    +0.000 C 
ATOM     12  C   UNL     1       0.747   2.743  19.393  0.00  0.00    +0.000 C 
ATOM     13  C   UNL     1       1.235   4.165  19.741  0.00  0.00    +0.000 C 
ENDROOT
BRANCH   1  14
ATOM     14  O   UNL     1       6.515   5.291  14.817  0.00  0.00    +0.000 OA
ATOM     15  H   UNL     1       7.303   5.819  15.021  0.00  0.00    +0.000 HD
ENDBRANCH   1  14
TORSDOF 1
ENDMDL
MODEL 7
REMARK VINA RESULT:      -6.7      1.764      4.841
REMARK  Name = 
REMARK  1 active torsions:
REMARK  status: ('A' for Active; 'I' for Inactive)
REMARK    1  A    between atoms: O_1  and  C_2
REMARK                            x       y       z     vdW  Elec       q    Type
REMARK                         _______ _______ _______ _____ _____    ______ ____
ROOT
ATOM      1  C   UNL     1       5.393   5.989  16.421  0.00  0.00    +0.000 A 
ATOM      2  C   UNL     1       6.588   5.480  16.931  0.00  0.00    +0.000 A 
ATOM      3  C   UNL     1       6.581   4.595  18.016  0.00  0.00    +0.000 A 
ATOM      4  C   UNL     1       5.333   4.264  18.544  0.00  0.00    +0.000 A 
ATOM      5  O   UNL     1       5.114   3.428  19.603  0.00  0.00    +0.000 OA
ATOM      6  C   UNL     1       3.773   3.393  19.779  0.00  0.00    +0.000 A 
ATOM      7  C   UNL     1       3.117   4.172  18.853  0.00  0.00    +0.000 A 
ATOM      8  C   UNL     1       4.126   4.755  18.049  0.00  0.00    +0.000 A 
ATOM      9  C   UNL     1       4.153   5.643  16.962  0.00  0.00    +0.000 A 
ATOM     10  C   UNL     1       1.638   4.305  18.831  0.00  0.00    +0.000 C 
ATOM     11  C   UNL     1       0.978   3.190  19.671  0.00  0.00    +0.000 C 
ATOM     12  C   UNL     1       1.694   2.975  21.022  0.00  0.00    +0.000 C 
ATOM     13  C   UNL     1       3.171   2.562  20.846  0.00  0.00    +0.000 C 
ENDROOT
BRANCH   1  14
ATOM     14  O   UNL     1       5.388   6.855  15.366  0.00  0.00    +0.000 OA
ATOM     15  H   UNL     1       4.754   6.537  14.704  0.00  0.00    +0.000 HD
ENDBRANCH   1  14
TORSDOF 1
ENDMDL
MODEL 8
REMARK VINA RESULT:      -6.7      2.113      5.011
REMARK  Name = 
REMARK  1 active torsions:
REMARK  status: ('A' for Active; 'I' for Inactive)
REMARK    1  A    between atoms: O_1  and  C_2
REMARK                            x       y       z     vdW  Elec       q    Type
REMARK                         _______ _______ _______ _____ _____    ______ ____
ROOT
ATOM      1  C   UNL     1       5.432   4.503  15.685  0.00  0.00    +0.000 A 
ATOM      2  C   UNL     1       5.458   5.893  15.788  0.00  0.00    +0.000 A 
ATOM      3  C   UNL     1       4.720   6.548  16.783  0.00  0.00    +0.000 A 
ATOM      4  C   UNL     1       3.975   5.740  17.642  0.00  0.00    +0.000 A 
ATOM      5  O   UNL     1       3.187   6.184  18.667  0.00  0.00    +0.000 OA
ATOM      6  C   UNL     1       2.652   5.077  19.232  0.00  0.00    +0.000 A 
ATOM      7  C   UNL     1       3.084   3.928  18.609  0.00  0.00    +0.000 A 
ATOM      8  C   UNL     1       3.938   4.349  17.562  0.00  0.00    +0.000 A 
ATOM      9  C   UNL     1       4.683   3.710  16.557  0.00  0.00    +0.000 A 
ATOM     10  C   UNL     1       2.641   2.577  19.037  0.00  0.00    +0.000 C 
ATOM     11  C   UNL     1       2.007   2.632  20.444  0.00  0.00    +0.000 C 
ATOM     12  C   UNL     1       1.041   3.826  20.603  0.00  0.00    +0.000 C 
ATOM     13  C   UNL     1       1.745   5.184  20.397  0.00  0.00    +0.000 C 
ENDROOT
BRANCH   1  14
ATOM     14  O   UNL     1       6.143   3.854  14.717  0.00  0.00    +0.000 OA
ATOM     15  H   UNL     1       5.730   2.992  14.549  0.00  0.00    +0.000 HD
ENDBRANCH   1  14
TORSDOF 1
ENDMDL
MODEL 9
REMARK VINA RESULT:      -6.6      1.686      5.279
REMARK  Name = 
REMARK  1 active torsions:
REMARK  status: ('A' for Active; 'I' for Inactive)
REMARK    1  A    between atoms: O_1  and  C_2
REMARK                            x       y       z     vdW  Elec       q    Type
REMARK                         _______ _______ _______ _____ _____    ______ ____
ROOT
ATOM      1  C   UNL     1       7.049   5.476  18.636  0.00  0.00    +0.000 A 
ATOM      2  C   UNL     1       7.143   4.962  17.343  0.00  0.00    +0.000 A 
ATOM      3  C   UNL     1       6.061   4.285  16.765  0.00  0.00    +0.000 A 
ATOM      4  C   UNL     1       4.913   4.160  17.546  0.00  0.00    +0.000 A 
ATOM      5  O   UNL     1       3.759   3.532  17.169  0.00  0.00    +0.000 OA
ATOM      6  C   UNL     1       2.914   3.641  18.220  0.00  0.00    +0.000 A 
ATOM      7  C   UNL     1       3.485   4.336  19.262  0.00  0.00    +0.000 A 
ATOM      8  C   UNL     1       4.794   4.670  18.838  0.00  0.00    +0.000 A 
ATOM      9  C   UNL     1       5.889   5.343  19.402  0.00  0.00    +0.000 A 
ATOM     10  C   UNL     1       2.765   4.593  20.535  0.00  0.00    +0.000 C 
ATOM     11  C   UNL     1       1.250   4.349  20.363  0.00  0.00    +0.000 C 
ATOM     12  C   UNL     1       0.952   3.052  19.579  0.00  0.00    +0.000 C 
ATOM     13  C   UNL     1       1.547   3.077  18.155  0.00  0.00    +0.000 C 
ENDROOT
BRANCH   1  14
ATOM     14  O   UNL     1       8.098   6.133  19.212  0.00  0.00    +0.000 OA
ATOM     15  H   UNL     1       7.930   7.088  19.168  0.00  0.00    +0.000 HD
ENDBRANCH   1  14
TORSDOF 1
ENDMDL
