MODEL 1
REMARK VINA RESULT:      -6.5      0.000      0.000
REMARK  Name = 
REMARK  5 active torsions:
REMARK  status: ('A' for Active; 'I' for Inactive)
REMARK    1  A    between atoms: C_1  and  N_2
REMARK    2  A    between atoms: N_2  and  C_3
REMARK    3  A    between atoms: N_2  and  C_17
REMARK    4  A    between atoms: C_3  and  C_4
REMARK    5  A    between atoms: C_4  and  N_5
REMARK                            x       y       z     vdW  Elec       q    Type
REMARK                         _______ _______ _______ _____ _____    ______ ____
ROOT
ATOM      1  N   UNL     1       2.344   5.462  19.417  0.00  0.00    +0.000 NA
ATOM      2  C   UNL     1       1.582   6.052  20.541  0.00  0.00    +0.000 C 
ATOM      3  C   UNL     1       1.927   7.522  20.879  0.00  0.00    +0.000 C 
ATOM      4  N   UNL     1       1.819   8.369  19.684  0.00  0.00    +0.000 N 
ATOM      5  C   UNL     1       0.946   9.457  19.597  0.00  0.00    +0.000 A 
ATOM      6  N   UNL     1       0.402   9.779  18.455  0.00  0.00    +0.000 NA
ATOM      7  S   UNL     1      -0.704  11.012  18.510  0.00  0.00    +0.000 S 
ATOM      8  S   UNL     1      -0.082  11.752  20.276  0.00  0.00    +0.000 S 
ATOM      9  C   UNL     1       0.642  10.305  20.864  0.00  0.00    +0.000 A 
ATOM     10  O   UNL     1       0.980  10.075  22.005  0.00  0.00    +0.000 OA
ATOM     11  C   UNL     1       2.519   7.846  18.498  0.00  0.00    +0.000 C 
ATOM     12  C   UNL     1       2.179   6.359  18.246  0.00  0.00    +0.000 C 
ENDROOT
BRANCH   1  13
ATOM     13  C   UNL     1       3.778   5.258  19.741  0.00  0.00    +0.000 C 
BRANCH  13  14
ATOM     14  C   UNL     1       4.404   3.996  19.097  0.00  0.00    +0.000 C 
BRANCH  14  16
ATOM     15  C   UNL     1       4.730   3.846  16.614  0.00  0.00    +0.000 C 
ATOM     16  N   UNL     1       5.216   4.311  17.906  0.00  0.00    +0.000 N 
BRANCH  16  17
ATOM     17  C   UNL     1       6.119   5.370  17.973  0.00  0.00    +0.000 A 
ATOM     18  C   UNL     1       7.189   5.392  18.880  0.00  0.00    +0.000 A 
ATOM     19  C   UNL     1       8.099   6.457  18.918  0.00  0.00    +0.000 A 
ATOM     20  C   UNL     1       7.945   7.538  18.056  0.00  0.00    +0.000 A 
ATOM     21  C   UNL     1       6.886   7.554  17.162  0.00  0.00    +0.000 A 
ATOM     22  C   UNL     1       5.988   6.479  17.120  0.00  0.00    +0.000 A 
ENDBRANCH  16  17
ENDBRANCH  14  16
ENDBRANCH  13  14
ENDBRANCH   1  13
TORSDOF 4
ENDMDL
MODEL 2
REMARK VINA RESULT:      -6.4      0.209      1.042
REMARK  Name = 
REMARK  5 active torsions:
REMARK  status: ('A' for Active; 'I' for Inactive)
REMARK    1  A    between atoms: C_1  and  N_2
REMARK    2  A    between atoms: N_2  and  C_3
REMARK    3  A    between atoms: N_2  and  C_17
REMARK    4  A    between atoms: C_3  and  C_4
REMARK    5  A    between atoms: C_4  and  N_5
REMARK                            x       y       z     vdW  Elec       q    Type
REMARK                         _______ _______ _______ _____ _____    ______ ____
ROOT
ATOM      1  N   UNL     1       2.306   5.667  19.411  0.00  0.00    +0.000 NA
ATOM      2  C   UNL     1       1.538   6.240  20.539  0.00  0.00    +0.000 C 
ATOM      3  C   UNL     1       1.842   7.721  20.868  0.00  0.00    +0.000 C 
ATOM      4  N   UNL     1       1.696   8.558  19.669  0.00  0.00    +0.000 N 
ATOM      5  C   UNL     1       0.791   9.619  19.586  0.00  0.00    +0.000 A 
ATOM      6  N   UNL     1       0.225   9.919  18.448  0.00  0.00    +0.000 NA
ATOM      7  S   UNL     1      -0.916  11.119  18.508  0.00  0.00    +0.000 S 
ATOM      8  S   UNL     1      -0.300  11.886  20.265  0.00  0.00    +0.000 S 
ATOM      9  C   UNL     1       0.473  10.464  20.852  0.00  0.00    +0.000 A 
ATOM     10  O   UNL     1       0.829  10.250  21.991  0.00  0.00    +0.000 OA
ATOM     11  C   UNL     1       2.400   8.050  18.479  0.00  0.00    +0.000 C 
ATOM     12  C   UNL     1       2.102   6.553  18.237  0.00  0.00    +0.000 C 
ENDROOT
BRANCH   1  13
ATOM     13  C   UNL     1       3.748   5.507  19.721  0.00  0.00    +0.000 C 
BRANCH  13  14
ATOM     14  C   UNL     1       4.383   4.213  19.154  0.00  0.00    +0.000 C 
BRANCH  14  16
ATOM     15  C   UNL     1       4.753   3.985  16.683  0.00  0.00    +0.000 C 
ATOM     16  N   UNL     1       5.230   4.467  17.973  0.00  0.00    +0.000 N 
BRANCH  16  17
ATOM     17  C   UNL     1       6.168   5.495  18.030  0.00  0.00    +0.000 A 
ATOM     18  C   UNL     1       6.087   6.636  17.217  0.00  0.00    +0.000 A 
ATOM     19  C   UNL     1       7.028   7.670  17.304  0.00  0.00    +0.000 A 
ATOM     20  C   UNL     1       8.089   7.575  18.199  0.00  0.00    +0.000 A 
ATOM     21  C   UNL     1       8.207   6.450  19.001  0.00  0.00    +0.000 A 
ATOM     22  C   UNL     1       7.254   5.428  18.919  0.00  0.00    +0.000 A 
ENDBRANCH  16  17
ENDBRANCH  14  16
ENDBRANCH  13  14
ENDBRANCH   1  13
TORSDOF 4
ENDMDL
MODEL 3
REMARK VINA RESULT:      -6.3      1.313      1.654
REMARK  Name = 
REMARK  5 active torsions:
REMARK  status: ('A' for Active; 'I' for Inactive)
REMARK    1  A    between atoms: C_1  and  N_2
REMARK    2  A    between atoms: N_2  and  C_3
REMARK    3  A    between atoms: N_2  and  C_17
REMARK    4  A    between atoms: C_3  and  C_4
REMARK    5  A    between atoms: C_4  and  N_5
REMARK                            x       y       z     vdW  Elec       q    Type
REMARK                         _______ _______ _______ _____ _____    ______ ____
ROOT
ATOM      1  N   UNL     1       2.347   5.609  19.294  0.00  0.00    +0.000 NA
ATOM      2  C   UNL     1       1.616   6.170  20.452  0.00  0.00    +0.000 C 
ATOM      3  C   UNL     1       1.923   7.652  20.778  0.00  0.00    +0.000 C 
ATOM      4  N   UNL     1       1.729   8.494  19.590  0.00  0.00    +0.000 N 
ATOM      5  C   UNL     1       0.814   9.550  19.545  0.00  0.00    +0.000 A 
ATOM      6  N   UNL     1       0.206   9.852  18.430  0.00  0.00    +0.000 NA
ATOM      7  S   UNL     1      -0.940  11.044  18.537  0.00  0.00    +0.000 S 
ATOM      8  S   UNL     1      -0.266  11.805  20.275  0.00  0.00    +0.000 S 
ATOM      9  C   UNL     1       0.536  10.386  20.826  0.00  0.00    +0.000 A 
ATOM     10  O   UNL     1       0.934  10.168  21.951  0.00  0.00    +0.000 OA
ATOM     11  C   UNL     1       2.393   7.998  18.373  0.00  0.00    +0.000 C 
ATOM     12  C   UNL     1       2.096   6.500  18.133  0.00  0.00    +0.000 C 
ENDROOT
BRANCH   1  13
ATOM     13  C   UNL     1       3.801   5.457  19.552  0.00  0.00    +0.000 C 
BRANCH  13  14
ATOM     14  C   UNL     1       4.298   3.990  19.564  0.00  0.00    +0.000 C 
BRANCH  14  16
ATOM     15  C   UNL     1       3.200   2.605  17.783  0.00  0.00    +0.000 C 
ATOM     16  N   UNL     1       4.345   3.396  18.214  0.00  0.00    +0.000 N 
BRANCH  16  17
ATOM     17  C   UNL     1       5.206   3.949  17.269  0.00  0.00    +0.000 A 
ATOM     18  C   UNL     1       6.518   4.337  17.582  0.00  0.00    +0.000 A 
ATOM     19  C   UNL     1       7.378   4.872  16.613  0.00  0.00    +0.000 A 
ATOM     20  C   UNL     1       6.933   5.050  15.307  0.00  0.00    +0.000 A 
ATOM     21  C   UNL     1       5.635   4.696  14.973  0.00  0.00    +0.000 A 
ATOM     22  C   UNL     1       4.786   4.148  15.944  0.00  0.00    +0.000 A 
ENDBRANCH  16  17
ENDBRANCH  14  16
ENDBRANCH  13  14
ENDBRANCH   1  13
TORSDOF 4
ENDMDL
MODEL 4
REMARK VINA RESULT:      -6.2      1.303      1.876
REMARK  Name = 
REMARK  5 active torsions:
REMARK  status: ('A' for Active; 'I' for Inactive)
REMARK    1  A    between atoms: C_1  and  N_2
REMARK    2  A    between atoms: N_2  and  C_3
REMARK    3  A    between atoms: N_2  and  C_17
REMARK    4  A    between atoms: C_3  and  C_4
REMARK    5  A    between atoms: C_4  and  N_5
REMARK                            x       y       z     vdW  Elec       q    Type
REMARK                         _______ _______ _______ _____ _____    ______ ____
ROOT
ATOM      1  N   UNL     1       2.356   5.692  19.252  0.00  0.00    +0.000 NA
ATOM      2  C   UNL     1       1.600   6.226  20.407  0.00  0.00    +0.000 C 
ATOM      3  C   UNL     1       1.898   7.699  20.774  0.00  0.00    +0.000 C 
ATOM      4  N   UNL     1       1.729   8.569  19.602  0.00  0.00    +0.000 N 
ATOM      5  C   UNL     1       0.814   9.625  19.563  0.00  0.00    +0.000 A 
ATOM      6  N   UNL     1       0.230   9.953  18.442  0.00  0.00    +0.000 NA
ATOM      7  S   UNL     1      -0.920  11.142  18.553  0.00  0.00    +0.000 S 
ATOM      8  S   UNL     1      -0.284  11.863  20.322  0.00  0.00    +0.000 S 
ATOM      9  C   UNL     1       0.508  10.431  20.857  0.00  0.00    +0.000 A 
ATOM     10  O   UNL     1       0.882  10.187  21.984  0.00  0.00    +0.000 OA
ATOM     11  C   UNL     1       2.419   8.102  18.388  0.00  0.00    +0.000 C 
ATOM     12  C   UNL     1       2.129   6.610  18.107  0.00  0.00    +0.000 C 
ENDROOT
BRANCH   1  13
ATOM     13  C   UNL     1       3.805   5.535  19.537  0.00  0.00    +0.000 C 
BRANCH  13  14
ATOM     14  C   UNL     1       4.282   4.064  19.625  0.00  0.00    +0.000 C 
BRANCH  14  16
ATOM     15  C   UNL     1       3.270   2.539  17.908  0.00  0.00    +0.000 C 
ATOM     16  N   UNL     1       4.365   3.415  18.302  0.00  0.00    +0.000 N 
BRANCH  16  17
ATOM     17  C   UNL     1       5.193   3.976  17.333  0.00  0.00    +0.000 A 
ATOM     18  C   UNL     1       4.757   4.227  16.023  0.00  0.00    +0.000 A 
ATOM     19  C   UNL     1       5.599   4.812  15.066  0.00  0.00    +0.000 A 
ATOM     20  C   UNL     1       6.909   5.141  15.398  0.00  0.00    +0.000 A 
ATOM     21  C   UNL     1       7.375   4.886  16.678  0.00  0.00    +0.000 A 
ATOM     22  C   UNL     1       6.523   4.315  17.633  0.00  0.00    +0.000 A 
ENDBRANCH  16  17
ENDBRANCH  14  16
ENDBRANCH  13  14
ENDBRANCH   1  13
TORSDOF 4
ENDMDL
MODEL 5
REMARK VINA RESULT:      -6.2      1.351      2.215
REMARK  Name = 
REMARK  5 active torsions:
REMARK  status: ('A' for Active; 'I' for Inactive)
REMARK    1  A    between atoms: C_1  and  N_2
REMARK    2  A    between atoms: N_2  and  C_3
REMARK    3  A    between atoms: N_2  and  C_17
REMARK    4  A    between atoms: C_3  and  C_4
REMARK    5  A    between atoms: C_4  and  N_5
REMARK                            x       y       z     vdW  Elec       q    Type
REMARK                         _______ _______ _______ _____ _____    ______ ____
ROOT
ATOM      1  N   UNL     1       2.222   4.638  19.291  0.00  0.00    +0.000 NA
ATOM      2  C   UNL     1       1.331   5.161  20.351  0.00  0.00    +0.000 C 
ATOM      3  C   UNL     1       1.772   6.497  20.993  0.00  0.00    +0.000 C 
ATOM      4  N   UNL     1       1.998   7.518  19.961  0.00  0.00    +0.000 N 
ATOM      5  C   UNL     1       1.291   8.724  19.915  0.00  0.00    +0.000 A 
ATOM      6  N   UNL     1       1.020   9.287  18.769  0.00  0.00    +0.000 NA
ATOM      7  S   UNL     1       0.076  10.648  18.845  0.00  0.00    +0.000 S 
ATOM      8  S   UNL     1       0.424  11.018  20.793  0.00  0.00    +0.000 S 
ATOM      9  C   UNL     1       0.847   9.410  21.237  0.00  0.00    +0.000 A 
ATOM     10  O   UNL     1       0.927   8.966  22.363  0.00  0.00    +0.000 OA
ATOM     11  C   UNL     1       2.849   7.080  18.842  0.00  0.00    +0.000 C 
ATOM     12  C   UNL     1       2.394   5.714  18.282  0.00  0.00    +0.000 C 
ENDROOT
BRANCH   1  13
ATOM     13  C   UNL     1       3.533   4.180  19.817  0.00  0.00    +0.000 C 
BRANCH  13  14
ATOM     14  C   UNL     1       4.493   3.621  18.738  0.00  0.00    +0.000 C 
BRANCH  14  16
ATOM     15  C   UNL     1       6.372   5.178  19.325  0.00  0.00    +0.000 C 
ATOM     16  N   UNL     1       5.498   4.612  18.306  0.00  0.00    +0.000 N 
BRANCH  16  17
ATOM     17  C   UNL     1       5.880   4.636  16.967  0.00  0.00    +0.000 A 
ATOM     18  C   UNL     1       5.076   4.111  15.944  0.00  0.00    +0.000 A 
ATOM     19  C   UNL     1       5.468   4.164  14.599  0.00  0.00    +0.000 A 
ATOM     20  C   UNL     1       6.691   4.729  14.250  0.00  0.00    +0.000 A 
ATOM     21  C   UNL     1       7.516   5.238  15.241  0.00  0.00    +0.000 A 
ATOM     22  C   UNL     1       7.111   5.195  16.582  0.00  0.00    +0.000 A 
ENDBRANCH  16  17
ENDBRANCH  14  16
ENDBRANCH  13  14
ENDBRANCH   1  13
TORSDOF 4
ENDMDL
MODEL 6
REMARK VINA RESULT:      -6.1      1.196      2.169
REMARK  Name = 
REMARK  5 active torsions:
REMARK  status: ('A' for Active; 'I' for Inactive)
REMARK    1  A    between atoms: C_1  and  N_2
REMARK    2  A    between atoms: N_2  and  C_3
REMARK    3  A    between atoms: N_2  and  C_17
REMARK    4  A    between atoms: C_3  and  C_4
REMARK    5  A    between atoms: C_4  and  N_5
REMARK                            x       y       z     vdW  Elec       q    Type
REMARK                         _______ _______ _______ _____ _____    ______ ____
ROOT
ATOM      1  N   UNL     1       2.409   5.623  19.369  0.00  0.00    +0.000 NA
ATOM      2  C   UNL     1       1.615   6.172  20.490  0.00  0.00    +0.000 C 
ATOM      3  C   UNL     1       1.882   7.658  20.829  0.00  0.00    +0.000 C 
ATOM      4  N   UNL     1       1.732   8.498  19.633  0.00  0.00    +0.000 N 
ATOM      5  C   UNL     1       0.803   9.539  19.545  0.00  0.00    +0.000 A 
ATOM      6  N   UNL     1       0.244   9.831  18.401  0.00  0.00    +0.000 NA
ATOM      7  S   UNL     1      -0.925  11.005  18.453  0.00  0.00    +0.000 S 
ATOM      8  S   UNL     1      -0.347  11.777  20.221  0.00  0.00    +0.000 S 
ATOM      9  C   UNL     1       0.451  10.370  20.810  0.00  0.00    +0.000 A 
ATOM     10  O   UNL     1       0.799  10.158  21.952  0.00  0.00    +0.000 OA
ATOM     11  C   UNL     1       2.460   8.012  18.449  0.00  0.00    +0.000 C 
ATOM     12  C   UNL     1       2.199   6.510  18.197  0.00  0.00    +0.000 C 
ENDROOT
BRANCH   1  13
ATOM     13  C   UNL     1       3.852   5.495  19.695  0.00  0.00    +0.000 C 
BRANCH  13  14
ATOM     14  C   UNL     1       4.620   4.487  18.804  0.00  0.00    +0.000 C 
BRANCH  14  16
ATOM     15  C   UNL     1       6.905   5.510  18.976  0.00  0.00    +0.000 C 
ATOM     16  N   UNL     1       5.788   5.096  18.138  0.00  0.00    +0.000 N 
BRANCH  16  17
ATOM     17  C   UNL     1       5.987   4.851  16.781  0.00  0.00    +0.000 A 
ATOM     18  C   UNL     1       7.149   5.253  16.106  0.00  0.00    +0.000 A 
ATOM     19  C   UNL     1       7.341   4.980  14.744  0.00  0.00    +0.000 A 
ATOM     20  C   UNL     1       6.358   4.312  14.021  0.00  0.00    +0.000 A 
ATOM     21  C   UNL     1       5.190   3.920  14.657  0.00  0.00    +0.000 A 
ATOM     22  C   UNL     1       5.012   4.184  16.021  0.00  0.00    +0.000 A 
ENDBRANCH  16  17
ENDBRANCH  14  16
ENDBRANCH  13  14
ENDBRANCH   1  13
TORSDOF 4
ENDMDL
MODEL 7
REMARK VINA RESULT:      -6.0      4.528      6.479
REMARK  Name = 
REMARK  5 active torsions:
REMARK  status: ('A' for Active; 'I' for Inactive)
REMARK    1  A    between atoms: C_1  and  N_2
REMARK    2  A    between atoms: N_2  and  C_3
REMARK    3  A    between atoms: N_2  and  C_17
REMARK    4  A    between atoms: C_3  and  C_4
REMARK    5  A    between atoms: C_4  and  N_5
REMARK                            x       y       z     vdW  Elec       q    Type
REMARK                         _______ _______ _______ _____ _____    ______ ____
ROOT
ATOM      1  N   UNL     1       5.294   5.666  15.740  0.00  0.00    +0.000 NA
ATOM      2  C   UNL     1       4.596   4.376  15.941  0.00  0.00    +0.000 C 
ATOM      3  C   UNL     1       4.803   3.717  17.325  0.00  0.00    +0.000 C 
ATOM      4  N   UNL     1       4.466   4.657  18.403  0.00  0.00    +0.000 N 
ATOM      5  C   UNL     1       3.468   4.406  19.349  0.00  0.00    +0.000 A 
ATOM      6  N   UNL     1       2.767   5.388  19.847  0.00  0.00    +0.000 NA
ATOM      7  S   UNL     1       1.538   4.947  20.868  0.00  0.00    +0.000 S 
ATOM      8  S   UNL     1       2.259   3.108  21.257  0.00  0.00    +0.000 S 
ATOM      9  C   UNL     1       3.207   2.951  19.829  0.00  0.00    +0.000 A 
ATOM     10  O   UNL     1       3.693   1.930  19.389  0.00  0.00    +0.000 OA
ATOM     11  C   UNL     1       5.087   5.986  18.272  0.00  0.00    +0.000 C 
ATOM     12  C   UNL     1       4.898   6.566  16.852  0.00  0.00    +0.000 C 
ENDROOT
BRANCH   1  13
ATOM     13  C   UNL     1       6.769   5.516  15.668  0.00  0.00    +0.000 C 
BRANCH  13  14
ATOM     14  C   UNL     1       7.249   4.351  14.767  0.00  0.00    +0.000 C 
BRANCH  14  16
ATOM     15  C   UNL     1       8.045   5.562  12.718  0.00  0.00    +0.000 C 
ATOM     16  N   UNL     1       7.092   4.646  13.329  0.00  0.00    +0.000 N 
BRANCH  16  17
ATOM     17  C   UNL     1       6.380   3.749  12.537  0.00  0.00    +0.000 A 
ATOM     18  C   UNL     1       6.977   2.622  11.950  0.00  0.00    +0.000 A 
ATOM     19  C   UNL     1       6.240   1.719  11.172  0.00  0.00    +0.000 A 
ATOM     20  C   UNL     1       4.884   1.936  10.948  0.00  0.00    +0.000 A 
ATOM     21  C   UNL     1       4.270   3.051  11.497  0.00  0.00    +0.000 A 
ATOM     22  C   UNL     1       5.011   3.942  12.286  0.00  0.00    +0.000 A 
ENDBRANCH  16  17
ENDBRANCH  14  16
ENDBRANCH  13  14
ENDBRANCH   1  13
TORSDOF 4
ENDMDL
MODEL 8
REMARK VINA RESULT:      -6.0      2.790      3.959
REMARK  Name = 
REMARK  5 active torsions:
REMARK  status: ('A' for Active; 'I' for Inactive)
REMARK    1  A    between atoms: C_1  and  N_2
REMARK    2  A    between atoms: N_2  and  C_3
REMARK    3  A    between atoms: N_2  and  C_17
REMARK    4  A    between atoms: C_3  and  C_4
REMARK    5  A    between atoms: C_4  and  N_5
REMARK                            x       y       z     vdW  Elec       q    Type
REMARK                         _______ _______ _______ _____ _____    ______ ____
ROOT
ATOM      1  N   UNL     1       4.877   5.035  18.771  0.00  0.00    +0.000 NA
ATOM      2  C   UNL     1       4.939   6.456  18.361  0.00  0.00    +0.000 C 
ATOM      3  C   UNL     1       3.607   7.063  17.862  0.00  0.00    +0.000 C 
ATOM      4  N   UNL     1       2.541   6.860  18.852  0.00  0.00    +0.000 N 
ATOM      5  C   UNL     1       1.845   7.915  19.450  0.00  0.00    +0.000 A 
ATOM      6  N   UNL     1       1.414   7.811  20.678  0.00  0.00    +0.000 NA
ATOM      7  S   UNL     1       0.710   9.173  21.309  0.00  0.00    +0.000 S 
ATOM      8  S   UNL     1       0.349  10.046  19.531  0.00  0.00    +0.000 S 
ATOM      9  C   UNL     1       1.561   9.211  18.639  0.00  0.00    +0.000 A 
ATOM     10  O   UNL     1       1.982   9.501  17.540  0.00  0.00    +0.000 OA
ATOM     11  C   UNL     1       2.422   5.479  19.349  0.00  0.00    +0.000 C 
ATOM     12  C   UNL     1       3.792   4.908  19.778  0.00  0.00    +0.000 C 
ENDROOT
BRANCH   1  13
ATOM     13  C   UNL     1       4.658   4.116  17.626  0.00  0.00    +0.000 C 
BRANCH  13  14
ATOM     14  C   UNL     1       4.841   4.774  16.236  0.00  0.00    +0.000 C 
BRANCH  14  16
ATOM     15  C   UNL     1       7.275   4.419  16.732  0.00  0.00    +0.000 C 
ATOM     16  N   UNL     1       6.233   4.702  15.753  0.00  0.00    +0.000 N 
BRANCH  16  17
ATOM     17  C   UNL     1       6.461   4.455  14.401  0.00  0.00    +0.000 A 
ATOM     18  C   UNL     1       5.694   3.541  13.662  0.00  0.00    +0.000 A 
ATOM     19  C   UNL     1       5.924   3.321  12.298  0.00  0.00    +0.000 A 
ATOM     20  C   UNL     1       6.946   4.001  11.643  0.00  0.00    +0.000 A 
ATOM     21  C   UNL     1       7.734   4.895  12.352  0.00  0.00    +0.000 A 
ATOM     22  C   UNL     1       7.488   5.121  13.712  0.00  0.00    +0.000 A 
ENDBRANCH  16  17
ENDBRANCH  14  16
ENDBRANCH  13  14
ENDBRANCH   1  13
TORSDOF 4
ENDMDL
MODEL 9
REMARK VINA RESULT:      -6.0      4.798      6.756
REMARK  Name = 
REMARK  5 active torsions:
REMARK  status: ('A' for Active; 'I' for Inactive)
REMARK    1  A    between atoms: C_1  and  N_2
REMARK    2  A    between atoms: N_2  and  C_3
REMARK    3  A    between atoms: N_2  and  C_17
REMARK    4  A    between atoms: C_3  and  C_4
REMARK    5  A    between atoms: C_4  and  N_5
REMARK                            x       y       z     vdW  Elec       q    Type
REMARK                         _______ _______ _______ _____ _____    ______ ____
ROOT
ATOM      1  N   UNL     1       7.357   6.973  17.056  0.00  0.00    +0.000 NA
ATOM      2  C   UNL     1       7.514   5.562  17.475  0.00  0.00    +0.000 C 
ATOM      3  C   UNL     1       6.621   5.116  18.657  0.00  0.00    +0.000 C 
ATOM      4  N   UNL     1       5.209   5.418  18.383  0.00  0.00    +0.000 N 
ATOM      5  C   UNL     1       4.216   4.435  18.336  0.00  0.00    +0.000 A 
ATOM      6  N   UNL     1       3.198   4.563  17.529  0.00  0.00    +0.000 NA
ATOM      7  S   UNL     1       2.154   3.276  17.481  0.00  0.00    +0.000 S 
ATOM      8  S   UNL     1       2.744   2.482  19.235  0.00  0.00    +0.000 S 
ATOM      9  C   UNL     1       4.311   3.195  19.268  0.00  0.00    +0.000 A 
ATOM     10  O   UNL     1       5.235   2.881  19.987  0.00  0.00    +0.000 OA
ATOM     11  C   UNL     1       4.955   6.794  17.925  0.00  0.00    +0.000 C 
ATOM     12  C   UNL     1       5.915   7.201  16.784  0.00  0.00    +0.000 C 
ENDROOT
BRANCH   1  13
ATOM     13  C   UNL     1       7.872   7.933  18.065  0.00  0.00    +0.000 C 
BRANCH  13  14
ATOM     14  C   UNL     1       8.151   9.353  17.512  0.00  0.00    +0.000 C 
BRANCH  14  16
ATOM     15  C   UNL     1       9.100   9.668  19.812  0.00  0.00    +0.000 C 
ATOM     16  N   UNL     1       8.771  10.240  18.514  0.00  0.00    +0.000 N 
BRANCH  16  17
ATOM     17  C   UNL     1       9.415  11.395  18.077  0.00  0.00    +0.000 A 
ATOM     18  C   UNL     1      10.785  11.427  17.777  0.00  0.00    +0.000 A 
ATOM     19  C   UNL     1      11.411  12.595  17.319  0.00  0.00    +0.000 A 
ATOM     20  C   UNL     1      10.678  13.767  17.169  0.00  0.00    +0.000 A 
ATOM     21  C   UNL     1       9.326  13.772  17.477  0.00  0.00    +0.000 A 
ATOM     22  C   UNL     1       8.704  12.597  17.921  0.00  0.00    +0.000 A 
ENDBRANCH  16  17
ENDBRANCH  14  16
ENDBRANCH  13  14
ENDBRANCH   1  13
TORSDOF 4
ENDMDL
