MODEL 1
REMARK VINA RESULT:      -6.8      0.000      0.000
REMARK  Name = 
REMARK  6 active torsions:
REMARK  status: ('A' for Active; 'I' for Inactive)
REMARK    1  A    between atoms: N_1  and  C_2
REMARK    2  A    between atoms: C_7  and  N_8
REMARK    3  A    between atoms: N_8  and  C_9
REMARK    4  A    between atoms: C_9  and  C_10
REMARK    5  A    between atoms: C_10  and  C_11
REMARK    6  A    between atoms: C_11  and  O_12
REMARK                            x       y       z     vdW  Elec       q    Type
REMARK                         _______ _______ _______ _____ _____    ______ ____
ROOT
ATOM      1  N   UNL     1       5.119   3.772  17.337  0.00  0.00    +0.000 N 
ATOM      2  H   UNL     1       5.329   3.544  16.372  0.00  0.00    +0.000 HD
ENDROOT
BRANCH   1   8
ATOM      3  C   UNL     1       6.392   5.803  16.837  0.00  0.00    +0.000 A 
ATOM      4  C   UNL     1       7.351   6.736  17.246  0.00  0.00    +0.000 A 
ATOM      5  C   UNL     1       7.881   6.678  18.528  0.00  0.00    +0.000 A 
ATOM      6  C   UNL     1       7.459   5.655  19.355  0.00  0.00    +0.000 A 
ATOM      7  N   UNL     1       6.566   4.712  18.993  0.00  0.00    +0.000 NA
ATOM      8  C   UNL     1       6.044   4.770  17.746  0.00  0.00    +0.000 A 
BRANCH   3   9
ATOM      9  N   UNL     1       5.993   5.804  15.488  0.00  0.00    +0.000 N 
ATOM     10  H   UNL     1       6.668   6.198  14.843  0.00  0.00    +0.000 HD
ATOM     11  H   UNL     1       5.040   6.121  15.340  0.00  0.00    +0.000 HD
ENDBRANCH   3   9
ENDBRANCH   1   8
BRANCH   1  12
ATOM     12  C   UNL     1       3.716   4.175  17.522  0.00  0.00    +0.000 C 
BRANCH  12  13
ATOM     13  C   UNL     1       3.048   3.444  18.713  0.00  0.00    +0.000 C 
ATOM     14  C   UNL     1       3.058   4.342  19.972  0.00  0.00    +0.000 C 
ATOM     15  C   UNL     1       1.891   3.872  20.840  0.00  0.00    +0.000 C 
ATOM     16  C   UNL     1       0.910   3.189  19.892  0.00  0.00    +0.000 C 
ATOM     17  C   UNL     1       1.532   3.273  18.501  0.00  0.00    +0.000 C 
BRANCH  13  18
ATOM     18  C   UNL     1       3.786   2.104  18.949  0.00  0.00    +0.000 C 
BRANCH  18  19
ATOM     19  O   UNL     1       4.914   2.210  19.808  0.00  0.00    +0.000 OA
ATOM     20  H   UNL     1       5.560   1.544  19.518  0.00  0.00    +0.000 HD
ENDBRANCH  18  19
ENDBRANCH  13  18
ENDBRANCH  12  13
ENDBRANCH   1  12
TORSDOF 6
ENDMDL
MODEL 2
REMARK VINA RESULT:      -6.7      1.124      1.991
REMARK  Name = 
REMARK  6 active torsions:
REMARK  status: ('A' for Active; 'I' for Inactive)
REMARK    1  A    between atoms: N_1  and  C_2
REMARK    2  A    between atoms: C_7  and  N_8
REMARK    3  A    between atoms: N_8  and  C_9
REMARK    4  A    between atoms: C_9  and  C_10
REMARK    5  A    between atoms: C_10  and  C_11
REMARK    6  A    between atoms: C_11  and  O_12
REMARK                            x       y       z     vdW  Elec       q    Type
REMARK                         _______ _______ _______ _____ _____    ______ ____
ROOT
ATOM      1  N   UNL     1       5.846   4.101  19.125  0.00  0.00    +0.000 N 
ATOM      2  H   UNL     1       6.570   3.391  19.093  0.00  0.00    +0.000 HD
ENDROOT
BRANCH   1   8
ATOM      3  C   UNL     1       7.614   5.795  19.071  0.00  0.00    +0.000 A 
ATOM      4  C   UNL     1       8.094   6.997  18.538  0.00  0.00    +0.000 A 
ATOM      5  C   UNL     1       7.418   7.617  17.496  0.00  0.00    +0.000 A 
ATOM      6  C   UNL     1       6.253   7.031  17.041  0.00  0.00    +0.000 A 
ATOM      7  N   UNL     1       5.732   5.896  17.548  0.00  0.00    +0.000 NA
ATOM      8  C   UNL     1       6.391   5.286  18.561  0.00  0.00    +0.000 A 
BRANCH   3   9
ATOM      9  N   UNL     1       8.239   5.279  20.221  0.00  0.00    +0.000 N 
ATOM     10  H   UNL     1       7.739   4.525  20.677  0.00  0.00    +0.000 HD
ATOM     11  H   UNL     1       8.589   5.991  20.854  0.00  0.00    +0.000 HD
ENDBRANCH   3   9
ENDBRANCH   1   8
BRANCH   1  12
ATOM     12  C   UNL     1       4.607   3.664  18.462  0.00  0.00    +0.000 C 
BRANCH  12  13
ATOM     13  C   UNL     1       3.471   3.378  19.476  0.00  0.00    +0.000 C 
ATOM     14  C   UNL     1       3.017   4.688  20.161  0.00  0.00    +0.000 C 
ATOM     15  C   UNL     1       1.572   4.458  20.605  0.00  0.00    +0.000 C 
ATOM     16  C   UNL     1       1.027   3.353  19.707  0.00  0.00    +0.000 C 
ATOM     17  C   UNL     1       2.166   2.963  18.769  0.00  0.00    +0.000 C 
BRANCH  13  18
ATOM     18  C   UNL     1       3.971   2.330  20.499  0.00  0.00    +0.000 C 
BRANCH  18  19
ATOM     19  O   UNL     1       5.083   1.569  20.049  0.00  0.00    +0.000 OA
ATOM     20  H   UNL     1       5.374   1.016  20.795  0.00  0.00    +0.000 HD
ENDBRANCH  18  19
ENDBRANCH  13  18
ENDBRANCH  12  13
ENDBRANCH   1  12
TORSDOF 6
ENDMDL
MODEL 3
REMARK VINA RESULT:      -6.5      1.149      1.249
REMARK  Name = 
REMARK  6 active torsions:
REMARK  status: ('A' for Active; 'I' for Inactive)
REMARK    1  A    between atoms: N_1  and  C_2
REMARK    2  A    between atoms: C_7  and  N_8
REMARK    3  A    between atoms: N_8  and  C_9
REMARK    4  A    between atoms: C_9  and  C_10
REMARK    5  A    between atoms: C_10  and  C_11
REMARK    6  A    between atoms: C_11  and  O_12
REMARK                            x       y       z     vdW  Elec       q    Type
REMARK                         _______ _______ _______ _____ _____    ______ ____
ROOT
ATOM      1  N   UNL     1       4.930   3.741  18.168  0.00  0.00    +0.000 N 
ATOM      2  H   UNL     1       4.111   4.099  17.689  0.00  0.00    +0.000 HD
ENDROOT
BRANCH   1   8
ATOM      3  C   UNL     1       5.863   5.783  17.188  0.00  0.00    +0.000 A 
ATOM      4  C   UNL     1       6.860   6.765  17.210  0.00  0.00    +0.000 A 
ATOM      5  C   UNL     1       7.793   6.789  18.238  0.00  0.00    +0.000 A 
ATOM      6  C   UNL     1       7.723   5.799  19.198  0.00  0.00    +0.000 A 
ATOM      7  N   UNL     1       6.805   4.810  19.197  0.00  0.00    +0.000 NA
ATOM      8  C   UNL     1       5.891   4.788  18.200  0.00  0.00    +0.000 A 
BRANCH   3   9
ATOM      9  N   UNL     1       5.032   5.701  16.055  0.00  0.00    +0.000 N 
ATOM     10  H   UNL     1       5.440   6.062  15.201  0.00  0.00    +0.000 HD
ATOM     11  H   UNL     1       4.078   6.002  16.222  0.00  0.00    +0.000 HD
ENDBRANCH   3   9
ENDBRANCH   1   8
BRANCH   1  12
ATOM     12  C   UNL     1       4.608   3.213  19.503  0.00  0.00    +0.000 C 
BRANCH  12  13
ATOM     13  C   UNL     1       3.102   2.885  19.656  0.00  0.00    +0.000 C 
ATOM     14  C   UNL     1       2.765   2.571  21.132  0.00  0.00    +0.000 C 
ATOM     15  C   UNL     1       1.281   2.893  21.308  0.00  0.00    +0.000 C 
ATOM     16  C   UNL     1       0.935   3.896  20.212  0.00  0.00    +0.000 C 
ATOM     17  C   UNL     1       2.221   4.128  19.424  0.00  0.00    +0.000 C 
BRANCH  13  18
ATOM     18  C   UNL     1       2.753   1.706  18.717  0.00  0.00    +0.000 C 
BRANCH  18  19
ATOM     19  O   UNL     1       3.859   0.868  18.406  0.00  0.00    +0.000 OA
ATOM     20  H   UNL     1       3.612   0.343  17.626  0.00  0.00    +0.000 HD
ENDBRANCH  18  19
ENDBRANCH  13  18
ENDBRANCH  12  13
ENDBRANCH   1  12
TORSDOF 6
ENDMDL
MODEL 4
REMARK VINA RESULT:      -6.5      2.098      5.309
REMARK  Name = 
REMARK  6 active torsions:
REMARK  status: ('A' for Active; 'I' for Inactive)
REMARK    1  A    between atoms: N_1  and  C_2
REMARK    2  A    between atoms: C_7  and  N_8
REMARK    3  A    between atoms: N_8  and  C_9
REMARK    4  A    between atoms: C_9  and  C_10
REMARK    5  A    between atoms: C_10  and  C_11
REMARK    6  A    between atoms: C_11  and  O_12
REMARK                            x       y       z     vdW  Elec       q    Type
REMARK                         _______ _______ _______ _____ _____    ______ ____
ROOT
ATOM      1  N   UNL     1       4.345   5.440  19.273  0.00  0.00    +0.000 N 
ATOM      2  H   UNL     1       4.406   6.265  19.858  0.00  0.00    +0.000 HD
ENDROOT
BRANCH   1   8
ATOM      3  C   UNL     1       3.585   3.261  20.095  0.00  0.00    +0.000 A 
ATOM      4  C   UNL     1       2.530   2.467  20.556  0.00  0.00    +0.000 A 
ATOM      5  C   UNL     1       1.280   3.027  20.783  0.00  0.00    +0.000 A 
ATOM      6  C   UNL     1       1.113   4.369  20.501  0.00  0.00    +0.000 A 
ATOM      7  N   UNL     1       2.089   5.166  20.019  0.00  0.00    +0.000 NA
ATOM      8  C   UNL     1       3.309   4.623  19.803  0.00  0.00    +0.000 A 
BRANCH   3   9
ATOM      9  N   UNL     1       4.789   2.629  19.735  0.00  0.00    +0.000 N 
ATOM     10  H   UNL     1       5.507   2.640  20.450  0.00  0.00    +0.000 HD
ATOM     11  H   UNL     1       5.120   2.870  18.807  0.00  0.00    +0.000 HD
ENDBRANCH   3   9
ENDBRANCH   1   8
BRANCH   1  12
ATOM     12  C   UNL     1       4.144   5.776  17.854  0.00  0.00    +0.000 C 
BRANCH  12  13
ATOM     13  C   UNL     1       5.323   5.302  16.968  0.00  0.00    +0.000 C 
ATOM     14  C   UNL     1       5.063   3.870  16.445  0.00  0.00    +0.000 C 
ATOM     15  C   UNL     1       5.866   3.737  15.151  0.00  0.00    +0.000 C 
ATOM     16  C   UNL     1       6.069   5.157  14.634  0.00  0.00    +0.000 C 
ATOM     17  C   UNL     1       5.387   6.080  15.640  0.00  0.00    +0.000 C 
BRANCH  13  18
ATOM     18  C   UNL     1       6.630   5.392  17.791  0.00  0.00    +0.000 C 
BRANCH  18  19
ATOM     19  O   UNL     1       6.983   4.181  18.446  0.00  0.00    +0.000 OA
ATOM     20  H   UNL     1       7.595   3.704  17.859  0.00  0.00    +0.000 HD
ENDBRANCH  18  19
ENDBRANCH  13  18
ENDBRANCH  12  13
ENDBRANCH   1  12
TORSDOF 6
ENDMDL
MODEL 5
REMARK VINA RESULT:      -6.4      2.076      5.286
REMARK  Name = 
REMARK  6 active torsions:
REMARK  status: ('A' for Active; 'I' for Inactive)
REMARK    1  A    between atoms: N_1  and  C_2
REMARK    2  A    between atoms: C_7  and  N_8
REMARK    3  A    between atoms: N_8  and  C_9
REMARK    4  A    between atoms: C_9  and  C_10
REMARK    5  A    between atoms: C_10  and  C_11
REMARK    6  A    between atoms: C_11  and  O_12
REMARK                            x       y       z     vdW  Elec       q    Type
REMARK                         _______ _______ _______ _____ _____    ______ ____
ROOT
ATOM      1  N   UNL     1       4.693   3.298  18.956  0.00  0.00    +0.000 N 
ATOM      2  H   UNL     1       5.109   2.529  19.469  0.00  0.00    +0.000 HD
ENDROOT
BRANCH   1   8
ATOM      3  C   UNL     1       2.357   2.562  18.917  0.00  0.00    +0.000 A 
ATOM      4  C   UNL     1       1.039   2.765  19.342  0.00  0.00    +0.000 A 
ATOM      5  C   UNL     1       0.751   3.750  20.277  0.00  0.00    +0.000 A 
ATOM      6  C   UNL     1       1.792   4.534  20.732  0.00  0.00    +0.000 A 
ATOM      7  N   UNL     1       3.071   4.402  20.324  0.00  0.00    +0.000 NA
ATOM      8  C   UNL     1       3.356   3.438  19.417  0.00  0.00    +0.000 A 
BRANCH   3   9
ATOM      9  N   UNL     1       2.586   1.660  17.863  0.00  0.00    +0.000 N 
ATOM     10  H   UNL     1       2.024   0.818  17.891  0.00  0.00    +0.000 HD
ATOM     11  H   UNL     1       3.569   1.500  17.664  0.00  0.00    +0.000 HD
ENDBRANCH   3   9
ENDBRANCH   1   8
BRANCH   1  12
ATOM     12  C   UNL     1       5.477   4.538  19.074  0.00  0.00    +0.000 C 
BRANCH  12  13
ATOM     13  C   UNL     1       5.941   5.070  17.696  0.00  0.00    +0.000 C 
ATOM     14  C   UNL     1       5.490   4.114  16.568  0.00  0.00    +0.000 C 
ATOM     15  C   UNL     1       5.398   4.963  15.300  0.00  0.00    +0.000 C 
ATOM     16  C   UNL     1       5.199   6.400  15.771  0.00  0.00    +0.000 C 
ATOM     17  C   UNL     1       5.188   6.353  17.296  0.00  0.00    +0.000 C 
BRANCH  13  18
ATOM     18  C   UNL     1       7.478   5.249  17.725  0.00  0.00    +0.000 C 
BRANCH  18  19
ATOM     19  O   UNL     1       8.202   4.091  17.331  0.00  0.00    +0.000 OA
ATOM     20  H   UNL     1       8.993   4.041  17.893  0.00  0.00    +0.000 HD
ENDBRANCH  18  19
ENDBRANCH  13  18
ENDBRANCH  12  13
ENDBRANCH   1  12
TORSDOF 6
ENDMDL
MODEL 6
REMARK VINA RESULT:      -6.4      2.105      5.255
REMARK  Name = 
REMARK  6 active torsions:
REMARK  status: ('A' for Active; 'I' for Inactive)
REMARK    1  A    between atoms: N_1  and  C_2
REMARK    2  A    between atoms: C_7  and  N_8
REMARK    3  A    between atoms: N_8  and  C_9
REMARK    4  A    between atoms: C_9  and  C_10
REMARK    5  A    between atoms: C_10  and  C_11
REMARK    6  A    between atoms: C_11  and  O_12
REMARK                            x       y       z     vdW  Elec       q    Type
REMARK                         _______ _______ _______ _____ _____    ______ ____
ROOT
ATOM      1  N   UNL     1       4.314   3.058  18.388  0.00  0.00    +0.000 N 
ATOM      2  H   UNL     1       4.687   2.116  18.363  0.00  0.00    +0.000 HD
ENDROOT
BRANCH   1   8
ATOM      3  C   UNL     1       1.983   3.596  18.914  0.00  0.00    +0.000 A 
ATOM      4  C   UNL     1       0.959   3.642  19.866  0.00  0.00    +0.000 A 
ATOM      5  C   UNL     1       1.159   3.109  21.133  0.00  0.00    +0.000 A 
ATOM      6  C   UNL     1       2.400   2.578  21.422  0.00  0.00    +0.000 A 
ATOM      7  N   UNL     1       3.429   2.547  20.551  0.00  0.00    +0.000 NA
ATOM      8  C   UNL     1       3.235   3.060  19.314  0.00  0.00    +0.000 A 
BRANCH   3   9
ATOM      9  N   UNL     1       1.794   4.278  17.698  0.00  0.00    +0.000 N 
ATOM     10  H   UNL     1       0.879   4.697  17.581  0.00  0.00    +0.000 HD
ATOM     11  H   UNL     1       2.128   3.770  16.885  0.00  0.00    +0.000 HD
ENDBRANCH   3   9
ENDBRANCH   1   8
BRANCH   1  12
ATOM     12  C   UNL     1       5.345   4.059  18.703  0.00  0.00    +0.000 C 
BRANCH  12  13
ATOM     13  C   UNL     1       5.845   4.802  17.440  0.00  0.00    +0.000 C 
ATOM     14  C   UNL     1       5.542   3.972  16.170  0.00  0.00    +0.000 C 
ATOM     15  C   UNL     1       5.455   4.972  15.018  0.00  0.00    +0.000 C 
ATOM     16  C   UNL     1       5.111   6.316  15.652  0.00  0.00    +0.000 C 
ATOM     17  C   UNL     1       5.013   6.067  17.154  0.00  0.00    +0.000 C 
BRANCH  13  18
ATOM     18  C   UNL     1       7.357   5.090  17.598  0.00  0.00    +0.000 C 
BRANCH  18  19
ATOM     19  O   UNL     1       8.190   3.972  17.318  0.00  0.00    +0.000 OA
ATOM     20  H   UNL     1       8.866   4.269  16.686  0.00  0.00    +0.000 HD
ENDBRANCH  18  19
ENDBRANCH  13  18
ENDBRANCH  12  13
ENDBRANCH   1  12
TORSDOF 6
ENDMDL
MODEL 7
REMARK VINA RESULT:      -6.4      2.036      5.476
REMARK  Name = 
REMARK  6 active torsions:
REMARK  status: ('A' for Active; 'I' for Inactive)
REMARK    1  A    between atoms: N_1  and  C_2
REMARK    2  A    between atoms: C_7  and  N_8
REMARK    3  A    between atoms: N_8  and  C_9
REMARK    4  A    between atoms: C_9  and  C_10
REMARK    5  A    between atoms: C_10  and  C_11
REMARK    6  A    between atoms: C_11  and  O_12
REMARK                            x       y       z     vdW  Elec       q    Type
REMARK                         _______ _______ _______ _____ _____    ______ ____
ROOT
ATOM      1  N   UNL     1       3.526   3.479  17.762  0.00  0.00    +0.000 N 
ATOM      2  H   UNL     1       4.271   2.792  17.759  0.00  0.00    +0.000 HD
ENDROOT
BRANCH   1   8
ATOM      3  C   UNL     1       3.515   2.760  20.103  0.00  0.00    +0.000 A 
ATOM      4  C   UNL     1       2.799   2.600  21.294  0.00  0.00    +0.000 A 
ATOM      5  C   UNL     1       1.502   3.085  21.401  0.00  0.00    +0.000 A 
ATOM      6  C   UNL     1       0.943   3.684  20.289  0.00  0.00    +0.000 A 
ATOM      7  N   UNL     1       1.580   3.827  19.108  0.00  0.00    +0.000 NA
ATOM      8  C   UNL     1       2.846   3.360  19.004  0.00  0.00    +0.000 A 
BRANCH   3   9
ATOM      9  N   UNL     1       4.765   2.125  19.985  0.00  0.00    +0.000 N 
ATOM     10  H   UNL     1       5.015   1.528  20.765  0.00  0.00    +0.000 HD
ATOM     11  H   UNL     1       5.510   2.738  19.672  0.00  0.00    +0.000 HD
ENDBRANCH   3   9
ENDBRANCH   1   8
BRANCH   1  12
ATOM     12  C   UNL     1       4.021   4.840  17.504  0.00  0.00    +0.000 C 
BRANCH  12  13
ATOM     13  C   UNL     1       5.337   4.839  16.687  0.00  0.00    +0.000 C 
ATOM     14  C   UNL     1       5.440   3.554  15.832  0.00  0.00    +0.000 C 
ATOM     15  C   UNL     1       6.345   3.900  14.650  0.00  0.00    +0.000 C 
ATOM     16  C   UNL     1       6.266   5.414  14.488  0.00  0.00    +0.000 C 
ATOM     17  C   UNL     1       5.324   5.912  15.581  0.00  0.00    +0.000 C 
BRANCH  13  18
ATOM     18  C   UNL     1       6.528   4.984  17.664  0.00  0.00    +0.000 C 
BRANCH  18  19
ATOM     19  O   UNL     1       6.525   4.036  18.723  0.00  0.00    +0.000 OA
ATOM     20  H   UNL     1       6.436   3.155  18.321  0.00  0.00    +0.000 HD
ENDBRANCH  18  19
ENDBRANCH  13  18
ENDBRANCH  12  13
ENDBRANCH   1  12
TORSDOF 6
ENDMDL
MODEL 8
REMARK VINA RESULT:      -6.3      1.275      1.690
REMARK  Name = 
REMARK  6 active torsions:
REMARK  status: ('A' for Active; 'I' for Inactive)
REMARK    1  A    between atoms: N_1  and  C_2
REMARK    2  A    between atoms: C_7  and  N_8
REMARK    3  A    between atoms: N_8  and  C_9
REMARK    4  A    between atoms: C_9  and  C_10
REMARK    5  A    between atoms: C_10  and  C_11
REMARK    6  A    between atoms: C_11  and  O_12
REMARK                            x       y       z     vdW  Elec       q    Type
REMARK                         _______ _______ _______ _____ _____    ______ ____
ROOT
ATOM      1  N   UNL     1       5.151   3.788  17.736  0.00  0.00    +0.000 N 
ATOM      2  H   UNL     1       4.486   4.114  17.043  0.00  0.00    +0.000 HD
ENDROOT
BRANCH   1   8
ATOM      3  C   UNL     1       6.097   5.947  17.071  0.00  0.00    +0.000 A 
ATOM      4  C   UNL     1       7.059   6.940  17.286  0.00  0.00    +0.000 A 
ATOM      5  C   UNL     1       7.907   6.867  18.384  0.00  0.00    +0.000 A 
ATOM      6  C   UNL     1       7.790   5.772  19.218  0.00  0.00    +0.000 A 
ATOM      7  N   UNL     1       6.905   4.772  19.030  0.00  0.00    +0.000 NA
ATOM      8  C   UNL     1       6.074   4.844  17.965  0.00  0.00    +0.000 A 
BRANCH   3   9
ATOM      9  N   UNL     1       5.363   5.978  15.872  0.00  0.00    +0.000 N 
ATOM     10  H   UNL     1       4.993   6.888  15.621  0.00  0.00    +0.000 HD
ATOM     11  H   UNL     1       4.699   5.217  15.776  0.00  0.00    +0.000 HD
ENDBRANCH   3   9
ENDBRANCH   1   8
BRANCH   1  12
ATOM     12  C   UNL     1       4.491   3.324  18.966  0.00  0.00    +0.000 C 
BRANCH  12  13
ATOM     13  C   UNL     1       3.053   3.882  19.106  0.00  0.00    +0.000 C 
ATOM     14  C   UNL     1       2.148   2.867  19.843  0.00  0.00    +0.000 C 
ATOM     15  C   UNL     1       1.028   3.684  20.487  0.00  0.00    +0.000 C 
ATOM     16  C   UNL     1       1.576   5.098  20.645  0.00  0.00    +0.000 C 
ATOM     17  C   UNL     1       2.995   5.072  20.083  0.00  0.00    +0.000 C 
BRANCH  13  18
ATOM     18  C   UNL     1       2.514   4.224  17.696  0.00  0.00    +0.000 C 
BRANCH  18  19
ATOM     19  O   UNL     1       2.256   3.085  16.885  0.00  0.00    +0.000 OA
ATOM     20  H   UNL     1       2.067   2.342  17.483  0.00  0.00    +0.000 HD
ENDBRANCH  18  19
ENDBRANCH  13  18
ENDBRANCH  12  13
ENDBRANCH   1  12
TORSDOF 6
ENDMDL
MODEL 9
REMARK VINA RESULT:      -6.3      2.318      5.432
REMARK  Name = 
REMARK  6 active torsions:
REMARK  status: ('A' for Active; 'I' for Inactive)
REMARK    1  A    between atoms: N_1  and  C_2
REMARK    2  A    between atoms: C_7  and  N_8
REMARK    3  A    between atoms: N_8  and  C_9
REMARK    4  A    between atoms: C_9  and  C_10
REMARK    5  A    between atoms: C_10  and  C_11
REMARK    6  A    between atoms: C_11  and  O_12
REMARK                            x       y       z     vdW  Elec       q    Type
REMARK                         _______ _______ _______ _____ _____    ______ ____
ROOT
ATOM      1  N   UNL     1       5.242   3.576  18.988  0.00  0.00    +0.000 N 
ATOM      2  H   UNL     1       5.813   3.077  19.662  0.00  0.00    +0.000 HD
ENDROOT
BRANCH   1   8
ATOM      3  C   UNL     1       3.185   2.256  19.147  0.00  0.00    +0.000 A 
ATOM      4  C   UNL     1       1.838   2.195  19.520  0.00  0.00    +0.000 A 
ATOM      5  C   UNL     1       1.249   3.258  20.190  0.00  0.00    +0.000 A 
ATOM      6  C   UNL     1       2.022   4.376  20.434  0.00  0.00    +0.000 A 
ATOM      7  N   UNL     1       3.312   4.497  20.060  0.00  0.00    +0.000 NA
ATOM      8  C   UNL     1       3.890   3.459  19.412  0.00  0.00    +0.000 A 
BRANCH   3   9
ATOM      9  N   UNL     1       3.702   1.226  18.340  0.00  0.00    +0.000 N 
ATOM     10  H   UNL     1       3.101   0.940  17.577  0.00  0.00    +0.000 HD
ATOM     11  H   UNL     1       4.107   0.457  18.864  0.00  0.00    +0.000 HD
ENDBRANCH   3   9
ENDBRANCH   1   8
BRANCH   1  12
ATOM     12  C   UNL     1       5.674   4.972  18.817  0.00  0.00    +0.000 C 
BRANCH  12  13
ATOM     13  C   UNL     1       5.920   5.331  17.330  0.00  0.00    +0.000 C 
ATOM     14  C   UNL     1       7.181   4.607  16.802  0.00  0.00    +0.000 C 
ATOM     15  C   UNL     1       6.996   4.478  15.290  0.00  0.00    +0.000 C 
ATOM     16  C   UNL     1       5.493   4.549  15.042  0.00  0.00    +0.000 C 
ATOM     17  C   UNL     1       4.842   4.724  16.411  0.00  0.00    +0.000 C 
BRANCH  13  18
ATOM     18  C   UNL     1       6.036   6.868  17.202  0.00  0.00    +0.000 C 
BRANCH  18  19
ATOM     19  O   UNL     1       7.366   7.333  17.016  0.00  0.00    +0.000 OA
ATOM     20  H   UNL     1       7.728   6.868  16.243  0.00  0.00    +0.000 HD
ENDBRANCH  18  19
ENDBRANCH  13  18
ENDBRANCH  12  13
ENDBRANCH   1  12
TORSDOF 6
ENDMDL
