MODEL 1
REMARK VINA RESULT:      -7.4      0.000      0.000
REMARK  Name = 
REMARK  4 active torsions:
REMARK  status: ('A' for Active; 'I' for Inactive)
REMARK    1  A    between atoms: C_2  and  C_4
REMARK    2  A    between atoms: C_11  and  O_12
REMARK    3  A    between atoms: O_12  and  C_13
REMARK    4  A    between atoms: C_18  and  C_19
REMARK                            x       y       z     vdW  Elec       q    Type
REMARK                         _______ _______ _______ _____ _____    ______ ____
ROOT
ATOM      1  C   UNL     1       7.378   5.058  13.637  0.00  0.00    +0.000 A 
ATOM      2  N   UNL     1       6.657   3.991  13.370  0.00  0.00    +0.000 NA
ATOM      3  N   UNL     1       6.075   3.609  14.566  0.00  0.00    +0.000 NA
ATOM      4  C   UNL     1       6.453   4.485  15.477  0.00  0.00    +0.000 A 
ATOM      5  N   UNL     1       6.183   4.548  16.807  0.00  0.00    +0.000 N 
ATOM      6  C   UNL     1       6.051   5.874  17.413  0.00  0.00    +0.000 C 
ATOM      7  C   UNL     1       6.304   5.767  18.915  0.00  0.00    +0.000 C 
ATOM      8  C   UNL     1       5.339   4.779  19.573  0.00  0.00    +0.000 C 
ATOM      9  C   UNL     1       5.409   3.428  18.848  0.00  0.00    +0.000 C 
ATOM     10  C   UNL     1       5.245   3.548  17.332  0.00  0.00    +0.000 C 
ATOM     11  O   UNL     1       7.295   5.440  14.953  0.00  0.00    +0.000 OA
ENDROOT
BRANCH   1  13
ATOM     12  N   UNL     1       9.418   6.209  13.186  0.00  0.00    +0.000 N 
ATOM     13  C   UNL     1       8.193   5.803  12.706  0.00  0.00    +0.000 C 
ATOM     14  O   UNL     1       7.888   6.085  11.550  0.00  0.00    +0.000 OA
ATOM     15  H   UNL     1      10.042   6.701  12.560  0.00  0.00    +0.000 HD
ATOM     16  H   UNL     1       9.736   5.946  14.110  0.00  0.00    +0.000 HD
ENDBRANCH   1  13
BRANCH   8  17
ATOM     17  O   UNL     1       3.990   5.289  19.543  0.00  0.00    +0.000 OA
BRANCH  17  18
ATOM     18  C   UNL     1       2.947   4.523  20.004  0.00  0.00    +0.000 A 
ATOM     19  C   UNL     1       2.869   4.010  21.304  0.00  0.00    +0.000 A 
ATOM     20  C   UNL     1       1.801   3.200  21.711  0.00  0.00    +0.000 A 
ATOM     21  C   UNL     1       0.765   2.917  20.837  0.00  0.00    +0.000 A 
ATOM     22  C   UNL     1       0.820   3.415  19.541  0.00  0.00    +0.000 A 
ATOM     23  C   UNL     1       1.924   4.183  19.094  0.00  0.00    +0.000 A 
BRANCH  23  24
ATOM     24  C   UNL     1       1.942   4.526  17.624  0.00  0.00    +0.000 C 
ATOM     25  F   UNL     1       2.798   5.511  17.243  0.00  0.00    +0.000 F 
ATOM     26  F   UNL     1       2.281   3.439  16.866  0.00  0.00    +0.000 F 
ATOM     27  F   UNL     1       0.713   4.904  17.165  0.00  0.00    +0.000 F 
ENDBRANCH  23  24
ENDBRANCH  17  18
ENDBRANCH   8  17
TORSDOF 4
ENDMDL
MODEL 2
REMARK VINA RESULT:      -7.4      6.146      7.557
REMARK  Name = 
REMARK  4 active torsions:
REMARK  status: ('A' for Active; 'I' for Inactive)
REMARK    1  A    between atoms: C_2  and  C_4
REMARK    2  A    between atoms: C_11  and  O_12
REMARK    3  A    between atoms: O_12  and  C_13
REMARK    4  A    between atoms: C_18  and  C_19
REMARK                            x       y       z     vdW  Elec       q    Type
REMARK                         _______ _______ _______ _____ _____    ______ ____
ROOT
ATOM      1  C   UNL     1       3.652   4.857  18.979  0.00  0.00    +0.000 A 
ATOM      2  N   UNL     1       3.018   4.545  20.088  0.00  0.00    +0.000 NA
ATOM      3  N   UNL     1       2.299   5.670  20.451  0.00  0.00    +0.000 NA
ATOM      4  C   UNL     1       2.516   6.584  19.525  0.00  0.00    +0.000 A 
ATOM      5  N   UNL     1       2.070   7.863  19.425  0.00  0.00    +0.000 N 
ATOM      6  C   UNL     1       1.803   8.388  18.085  0.00  0.00    +0.000 C 
ATOM      7  C   UNL     1       1.859   9.914  18.123  0.00  0.00    +0.000 C 
ATOM      8  C   UNL     1       0.857  10.483  19.129  0.00  0.00    +0.000 C 
ATOM      9  C   UNL     1       1.079   9.832  20.503  0.00  0.00    +0.000 C 
ATOM     10  C   UNL     1       1.113   8.304  20.447  0.00  0.00    +0.000 C 
ATOM     11  O   UNL     1       3.380   6.134  18.552  0.00  0.00    +0.000 OA
ENDROOT
BRANCH   1  13
ATOM     12  N   UNL     1       5.452   3.292  18.986  0.00  0.00    +0.000 N 
ATOM     13  C   UNL     1       4.552   4.010  18.232  0.00  0.00    +0.000 C 
ATOM     14  O   UNL     1       4.567   3.878  17.010  0.00  0.00    +0.000 OA
ATOM     15  H   UNL     1       6.078   2.654  18.513  0.00  0.00    +0.000 HD
ATOM     16  H   UNL     1       5.434   3.321  19.998  0.00  0.00    +0.000 HD
ENDBRANCH   1  13
BRANCH   8  17
ATOM     17  O   UNL     1      -0.495  10.254  18.684  0.00  0.00    +0.000 OA
BRANCH  17  18
ATOM     18  C   UNL     1      -1.510  11.085  19.093  0.00  0.00    +0.000 A 
ATOM     19  C   UNL     1      -1.412  11.964  20.179  0.00  0.00    +0.000 A 
ATOM     20  C   UNL     1      -2.491  12.762  20.578  0.00  0.00    +0.000 A 
ATOM     21  C   UNL     1      -3.685  12.727  19.875  0.00  0.00    +0.000 A 
ATOM     22  C   UNL     1      -3.807  11.862  18.794  0.00  0.00    +0.000 A 
ATOM     23  C   UNL     1      -2.746  11.004  18.416  0.00  0.00    +0.000 A 
BRANCH  23  24
ATOM     24  C   UNL     1      -3.058  10.000  17.332  0.00  0.00    +0.000 C 
ATOM     25  F   UNL     1      -2.015   9.602  16.557  0.00  0.00    +0.000 F 
ATOM     26  F   UNL     1      -3.578   8.849  17.858  0.00  0.00    +0.000 F 
ATOM     27  F   UNL     1      -4.012  10.453  16.467  0.00  0.00    +0.000 F 
ENDBRANCH  23  24
ENDBRANCH  17  18
ENDBRANCH   8  17
TORSDOF 4
ENDMDL
MODEL 3
REMARK VINA RESULT:      -7.3      5.173      7.779
REMARK  Name = 
REMARK  4 active torsions:
REMARK  status: ('A' for Active; 'I' for Inactive)
REMARK    1  A    between atoms: C_2  and  C_4
REMARK    2  A    between atoms: C_11  and  O_12
REMARK    3  A    between atoms: O_12  and  C_13
REMARK    4  A    between atoms: C_18  and  C_19
REMARK                            x       y       z     vdW  Elec       q    Type
REMARK                         _______ _______ _______ _____ _____    ______ ____
ROOT
ATOM      1  C   UNL     1      -0.258  10.165  21.513  0.00  0.00    +0.000 A 
ATOM      2  N   UNL     1      -0.564  10.819  20.414  0.00  0.00    +0.000 NA
ATOM      3  N   UNL     1       0.201  10.260  19.405  0.00  0.00    +0.000 NA
ATOM      4  C   UNL     1       0.900   9.282  19.947  0.00  0.00    +0.000 A 
ATOM      5  N   UNL     1       1.817   8.442  19.400  0.00  0.00    +0.000 N 
ATOM      6  C   UNL     1       1.881   7.074  19.914  0.00  0.00    +0.000 C 
ATOM      7  C   UNL     1       3.257   6.485  19.608  0.00  0.00    +0.000 C 
ATOM      8  C   UNL     1       3.550   6.507  18.107  0.00  0.00    +0.000 C 
ATOM      9  C   UNL     1       3.363   7.932  17.564  0.00  0.00    +0.000 C 
ATOM     10  C   UNL     1       2.019   8.552  17.950  0.00  0.00    +0.000 C 
ATOM     11  O   UNL     1       0.660   9.166  21.298  0.00  0.00    +0.000 OA
ENDROOT
BRANCH   1  13
ATOM     12  N   UNL     1      -0.331   9.554  23.818  0.00  0.00    +0.000 N 
ATOM     13  C   UNL     1      -0.784  10.406  22.835  0.00  0.00    +0.000 C 
ATOM     14  O   UNL     1      -1.574  11.295  23.143  0.00  0.00    +0.000 OA
ATOM     15  H   UNL     1      -0.640   9.707  24.769  0.00  0.00    +0.000 HD
ATOM     16  H   UNL     1       0.367   8.848  23.622  0.00  0.00    +0.000 HD
ENDBRANCH   1  13
BRANCH   8  17
ATOM     17  O   UNL     1       2.682   5.592  17.406  0.00  0.00    +0.000 OA
BRANCH  17  18
ATOM     18  C   UNL     1       2.649   4.263  17.754  0.00  0.00    +0.000 A 
ATOM     19  C   UNL     1       1.634   3.681  18.524  0.00  0.00    +0.000 A 
ATOM     20  C   UNL     1       1.668   2.329  18.882  0.00  0.00    +0.000 A 
ATOM     21  C   UNL     1       2.700   1.515  18.445  0.00  0.00    +0.000 A 
ATOM     22  C   UNL     1       3.719   2.069  17.680  0.00  0.00    +0.000 A 
ATOM     23  C   UNL     1       3.732   3.449  17.361  0.00  0.00    +0.000 A 
BRANCH  23  24
ATOM     24  C   UNL     1       4.971   3.958  16.665  0.00  0.00    +0.000 C 
ATOM     25  F   UNL     1       4.789   4.948  15.752  0.00  0.00    +0.000 F 
ATOM     26  F   UNL     1       5.875   4.456  17.565  0.00  0.00    +0.000 F 
ATOM     27  F   UNL     1       5.641   2.966  16.008  0.00  0.00    +0.000 F 
ENDBRANCH  23  24
ENDBRANCH  17  18
ENDBRANCH   8  17
TORSDOF 4
ENDMDL
MODEL 4
REMARK VINA RESULT:      -7.2      4.092      5.201
REMARK  Name = 
REMARK  4 active torsions:
REMARK  status: ('A' for Active; 'I' for Inactive)
REMARK    1  A    between atoms: C_2  and  C_4
REMARK    2  A    between atoms: C_11  and  O_12
REMARK    3  A    between atoms: O_12  and  C_13
REMARK    4  A    between atoms: C_18  and  C_19
REMARK                            x       y       z     vdW  Elec       q    Type
REMARK                         _______ _______ _______ _____ _____    ______ ____
ROOT
ATOM      1  C   UNL     1       9.504  10.554  18.831  0.00  0.00    +0.000 A 
ATOM      2  N   UNL     1       8.653  11.083  17.979  0.00  0.00    +0.000 NA
ATOM      3  N   UNL     1       7.870  10.040  17.517  0.00  0.00    +0.000 NA
ATOM      4  C   UNL     1       8.272   8.949  18.140  0.00  0.00    +0.000 A 
ATOM      5  N   UNL     1       7.852   7.662  18.028  0.00  0.00    +0.000 N 
ATOM      6  C   UNL     1       7.869   6.832  19.234  0.00  0.00    +0.000 C 
ATOM      7  C   UNL     1       7.910   5.360  18.831  0.00  0.00    +0.000 C 
ATOM      8  C   UNL     1       6.718   4.992  17.945  0.00  0.00    +0.000 C 
ATOM      9  C   UNL     1       6.651   5.949  16.746  0.00  0.00    +0.000 C 
ATOM     10  C   UNL     1       6.701   7.424  17.148  0.00  0.00    +0.000 C 
ATOM     11  O   UNL     1       9.321   9.202  18.995  0.00  0.00    +0.000 OA
ENDROOT
BRANCH   1  13
ATOM     12  N   UNL     1      11.679  11.532  18.834  0.00  0.00    +0.000 N 
ATOM     13  C   UNL     1      10.542  11.247  19.556  0.00  0.00    +0.000 C 
ATOM     14  O   UNL     1      10.485  11.601  20.731  0.00  0.00    +0.000 OA
ATOM     15  H   UNL     1      12.421  12.051  19.285  0.00  0.00    +0.000 HD
ATOM     16  H   UNL     1      11.746  11.315  17.847  0.00  0.00    +0.000 HD
ENDBRANCH   1  13
BRANCH   8  17
ATOM     17  O   UNL     1       5.488   5.051  18.697  0.00  0.00    +0.000 OA
BRANCH  17  18
ATOM     18  C   UNL     1       4.439   4.224  18.378  0.00  0.00    +0.000 A 
ATOM     19  C   UNL     1       4.558   2.838  18.214  0.00  0.00    +0.000 A 
ATOM     20  C   UNL     1       3.463   2.045  17.851  0.00  0.00    +0.000 A 
ATOM     21  C   UNL     1       2.212   2.614  17.682  0.00  0.00    +0.000 A 
ATOM     22  C   UNL     1       2.069   3.987  17.838  0.00  0.00    +0.000 A 
ATOM     23  C   UNL     1       3.179   4.812  18.144  0.00  0.00    +0.000 A 
BRANCH  23  24
ATOM     24  C   UNL     1       2.924   6.300  18.128  0.00  0.00    +0.000 C 
ATOM     25  F   UNL     1       3.660   7.031  17.250  0.00  0.00    +0.000 F 
ATOM     26  F   UNL     1       1.619   6.576  17.823  0.00  0.00    +0.000 F 
ATOM     27  F   UNL     1       3.127   6.874  19.351  0.00  0.00    +0.000 F 
ENDBRANCH  23  24
ENDBRANCH  17  18
ENDBRANCH   8  17
TORSDOF 4
ENDMDL
MODEL 5
REMARK VINA RESULT:      -7.1      6.075      8.378
REMARK  Name = 
REMARK  4 active torsions:
REMARK  status: ('A' for Active; 'I' for Inactive)
REMARK    1  A    between atoms: C_2  and  C_4
REMARK    2  A    between atoms: C_11  and  O_12
REMARK    3  A    between atoms: O_12  and  C_13
REMARK    4  A    between atoms: C_18  and  C_19
REMARK                            x       y       z     vdW  Elec       q    Type
REMARK                         _______ _______ _______ _____ _____    ______ ____
ROOT
ATOM      1  C   UNL     1      -1.277  11.620  20.688  0.00  0.00    +0.000 A 
ATOM      2  N   UNL     1      -1.420  11.887  19.408  0.00  0.00    +0.000 NA
ATOM      3  N   UNL     1      -0.570  11.024  18.737  0.00  0.00    +0.000 NA
ATOM      4  C   UNL     1       0.011  10.268  19.648  0.00  0.00    +0.000 A 
ATOM      5  N   UNL     1       0.943   9.288  19.519  0.00  0.00    +0.000 N 
ATOM      6  C   UNL     1       0.879   8.159  20.448  0.00  0.00    +0.000 C 
ATOM      7  C   UNL     1       2.250   7.491  20.523  0.00  0.00    +0.000 C 
ATOM      8  C   UNL     1       2.717   7.023  19.144  0.00  0.00    +0.000 C 
ATOM      9  C   UNL     1       2.667   8.197  18.155  0.00  0.00    +0.000 C 
ATOM     10  C   UNL     1       1.319   8.921  18.148  0.00  0.00    +0.000 C 
ATOM     11  O   UNL     1      -0.390  10.598  20.923  0.00  0.00    +0.000 OA
ENDROOT
BRANCH   1  13
ATOM     12  N   UNL     1      -1.153  12.547  22.883  0.00  0.00    +0.000 N 
ATOM     13  C   UNL     1      -1.942  12.282  21.786  0.00  0.00    +0.000 C 
ATOM     14  O   UNL     1      -3.121  12.625  21.810  0.00  0.00    +0.000 OA
ATOM     15  H   UNL     1      -1.562  13.044  23.663  0.00  0.00    +0.000 HD
ATOM     16  H   UNL     1      -0.162  12.339  22.882  0.00  0.00    +0.000 HD
ENDBRANCH   1  13
BRANCH   8  17
ATOM     17  O   UNL     1       1.893   5.938  18.669  0.00  0.00    +0.000 OA
BRANCH  17  18
ATOM     18  C   UNL     1       2.437   4.694  18.460  0.00  0.00    +0.000 A 
ATOM     19  C   UNL     1       3.102   4.318  17.286  0.00  0.00    +0.000 A 
ATOM     20  C   UNL     1       3.603   3.023  17.108  0.00  0.00    +0.000 A 
ATOM     21  C   UNL     1       3.486   2.083  18.119  0.00  0.00    +0.000 A 
ATOM     22  C   UNL     1       2.830   2.431  19.292  0.00  0.00    +0.000 A 
ATOM     23  C   UNL     1       2.262   3.718  19.463  0.00  0.00    +0.000 A 
BRANCH  23  24
ATOM     24  C   UNL     1       1.438   3.919  20.712  0.00  0.00    +0.000 C 
ATOM     25  F   UNL     1       0.360   4.740  20.601  0.00  0.00    +0.000 F 
ATOM     26  F   UNL     1       0.942   2.730  21.175  0.00  0.00    +0.000 F 
ATOM     27  F   UNL     1       2.178   4.416  21.746  0.00  0.00    +0.000 F 
ENDBRANCH  23  24
ENDBRANCH  17  18
ENDBRANCH   8  17
TORSDOF 4
ENDMDL
MODEL 6
REMARK VINA RESULT:      -7.1      4.298      7.319
REMARK  Name = 
REMARK  4 active torsions:
REMARK  status: ('A' for Active; 'I' for Inactive)
REMARK    1  A    between atoms: C_2  and  C_4
REMARK    2  A    between atoms: C_11  and  O_12
REMARK    3  A    between atoms: O_12  and  C_13
REMARK    4  A    between atoms: C_18  and  C_19
REMARK                            x       y       z     vdW  Elec       q    Type
REMARK                         _______ _______ _______ _____ _____    ______ ____
ROOT
ATOM      1  C   UNL     1       0.966   9.336  20.012  0.00  0.00    +0.000 A 
ATOM      2  N   UNL     1       1.286   9.086  21.263  0.00  0.00    +0.000 NA
ATOM      3  N   UNL     1       1.834   7.815  21.275  0.00  0.00    +0.000 NA
ATOM      4  C   UNL     1       1.841   7.385  20.028  0.00  0.00    +0.000 A 
ATOM      5  N   UNL     1       2.246   6.199  19.504  0.00  0.00    +0.000 N 
ATOM      6  C   UNL     1       2.846   6.213  18.169  0.00  0.00    +0.000 C 
ATOM      7  C   UNL     1       2.722   4.823  17.547  0.00  0.00    +0.000 C 
ATOM      8  C   UNL     1       3.389   3.761  18.422  0.00  0.00    +0.000 C 
ATOM      9  C   UNL     1       2.828   3.840  19.850  0.00  0.00    +0.000 C 
ATOM     10  C   UNL     1       2.871   5.252  20.436  0.00  0.00    +0.000 C 
ATOM     11  O   UNL     1       1.293   8.307  19.164  0.00  0.00    +0.000 OA
ENDROOT
BRANCH   1  13
ATOM     12  N   UNL     1       0.148  10.571  18.143  0.00  0.00    +0.000 N 
ATOM     13  C   UNL     1       0.338  10.533  19.506  0.00  0.00    +0.000 C 
ATOM     14  O   UNL     1      -0.038  11.488  20.181  0.00  0.00    +0.000 OA
ATOM     15  H   UNL     1      -0.323  11.372  17.743  0.00  0.00    +0.000 HD
ATOM     16  H   UNL     1       0.385   9.782  17.555  0.00  0.00    +0.000 HD
ENDBRANCH   1  13
BRANCH   8  17
ATOM     17  O   UNL     1       4.819   3.941  18.441  0.00  0.00    +0.000 OA
BRANCH  17  18
ATOM     18  C   UNL     1       5.497   4.236  17.282  0.00  0.00    +0.000 A 
ATOM     19  C   UNL     1       5.208   3.660  16.039  0.00  0.00    +0.000 A 
ATOM     20  C   UNL     1       5.955   3.967  14.896  0.00  0.00    +0.000 A 
ATOM     21  C   UNL     1       6.988   4.889  14.961  0.00  0.00    +0.000 A 
ATOM     22  C   UNL     1       7.294   5.473  16.184  0.00  0.00    +0.000 A 
ATOM     23  C   UNL     1       6.588   5.127  17.362  0.00  0.00    +0.000 A 
BRANCH  23  24
ATOM     24  C   UNL     1       7.121   5.708  18.650  0.00  0.00    +0.000 C 
ATOM     25  F   UNL     1       6.253   5.762  19.694  0.00  0.00    +0.000 F 
ATOM     26  F   UNL     1       8.194   4.994  19.108  0.00  0.00    +0.000 F 
ATOM     27  F   UNL     1       7.588   6.981  18.489  0.00  0.00    +0.000 F 
ENDBRANCH  23  24
ENDBRANCH  17  18
ENDBRANCH   8  17
TORSDOF 4
ENDMDL
MODEL 7
REMARK VINA RESULT:      -7.1      6.013      8.177
REMARK  Name = 
REMARK  4 active torsions:
REMARK  status: ('A' for Active; 'I' for Inactive)
REMARK    1  A    between atoms: C_2  and  C_4
REMARK    2  A    between atoms: C_11  and  O_12
REMARK    3  A    between atoms: O_12  and  C_13
REMARK    4  A    between atoms: C_18  and  C_19
REMARK                            x       y       z     vdW  Elec       q    Type
REMARK                         _______ _______ _______ _____ _____    ______ ____
ROOT
ATOM      1  C   UNL     1      -1.096  11.813  19.952  0.00  0.00    +0.000 A 
ATOM      2  N   UNL     1      -1.119  11.963  18.645  0.00  0.00    +0.000 NA
ATOM      3  N   UNL     1      -0.268  11.001  18.131  0.00  0.00    +0.000 NA
ATOM      4  C   UNL     1       0.195  10.307  19.153  0.00  0.00    +0.000 A 
ATOM      5  N   UNL     1       1.079   9.276  19.193  0.00  0.00    +0.000 N 
ATOM      6  C   UNL     1       0.876   8.245  20.212  0.00  0.00    +0.000 C 
ATOM      7  C   UNL     1       2.198   7.521  20.465  0.00  0.00    +0.000 C 
ATOM      8  C   UNL     1       2.748   6.903  19.179  0.00  0.00    +0.000 C 
ATOM      9  C   UNL     1       2.843   7.979  18.087  0.00  0.00    +0.000 C 
ATOM     10  C   UNL     1       1.543   8.762  17.898  0.00  0.00    +0.000 C 
ATOM     11  O   UNL     1      -0.289  10.776  20.353  0.00  0.00    +0.000 OA
ENDROOT
BRANCH   1  13
ATOM     12  N   UNL     1      -2.752  13.467  20.408  0.00  0.00    +0.000 N 
ATOM     13  C   UNL     1      -1.809  12.607  20.924  0.00  0.00    +0.000 C 
ATOM     14  O   UNL     1      -1.650  12.566  22.142  0.00  0.00    +0.000 OA
ATOM     15  H   UNL     1      -3.306  14.018  21.052  0.00  0.00    +0.000 HD
ATOM     16  H   UNL     1      -2.960  13.489  19.418  0.00  0.00    +0.000 HD
ENDBRANCH   1  13
BRANCH   8  17
ATOM     17  O   UNL     1       1.906   5.819  18.735  0.00  0.00    +0.000 OA
BRANCH  17  18
ATOM     18  C   UNL     1       2.435   4.567  18.532  0.00  0.00    +0.000 A 
ATOM     19  C   UNL     1       3.095   4.178  17.359  0.00  0.00    +0.000 A 
ATOM     20  C   UNL     1       3.581   2.876  17.188  0.00  0.00    +0.000 A 
ATOM     21  C   UNL     1       3.454   1.943  18.204  0.00  0.00    +0.000 A 
ATOM     22  C   UNL     1       2.803   2.305  19.376  0.00  0.00    +0.000 A 
ATOM     23  C   UNL     1       2.250   3.598  19.541  0.00  0.00    +0.000 A 
BRANCH  23  24
ATOM     24  C   UNL     1       1.429   3.815  20.789  0.00  0.00    +0.000 C 
ATOM     25  F   UNL     1       0.989   2.698  21.426  0.00  0.00    +0.000 F 
ATOM     26  F   UNL     1       2.136   4.513  21.731  0.00  0.00    +0.000 F 
ATOM     27  F   UNL     1       0.317   4.571  20.553  0.00  0.00    +0.000 F 
ENDBRANCH  23  24
ENDBRANCH  17  18
ENDBRANCH   8  17
TORSDOF 4
ENDMDL
MODEL 8
REMARK VINA RESULT:      -7.1      6.183      7.261
REMARK  Name = 
REMARK  4 active torsions:
REMARK  status: ('A' for Active; 'I' for Inactive)
REMARK    1  A    between atoms: C_2  and  C_4
REMARK    2  A    between atoms: C_11  and  O_12
REMARK    3  A    between atoms: O_12  and  C_13
REMARK    4  A    between atoms: C_18  and  C_19
REMARK                            x       y       z     vdW  Elec       q    Type
REMARK                         _______ _______ _______ _____ _____    ______ ____
ROOT
ATOM      1  C   UNL     1       4.109   5.590  17.636  0.00  0.00    +0.000 A 
ATOM      2  N   UNL     1       3.605   4.926  18.654  0.00  0.00    +0.000 NA
ATOM      3  N   UNL     1       2.795   5.818  19.334  0.00  0.00    +0.000 NA
ATOM      4  C   UNL     1       2.832   6.957  18.671  0.00  0.00    +0.000 A 
ATOM      5  N   UNL     1       2.237   8.151  18.931  0.00  0.00    +0.000 N 
ATOM      6  C   UNL     1       1.806   8.961  17.791  0.00  0.00    +0.000 C 
ATOM      7  C   UNL     1       1.692  10.421  18.225  0.00  0.00    +0.000 C 
ATOM      8  C   UNL     1       0.716  10.579  19.393  0.00  0.00    +0.000 C 
ATOM      9  C   UNL     1       1.120   9.635  20.535  0.00  0.00    +0.000 C 
ATOM     10  C   UNL     1       1.322   8.189  20.078  0.00  0.00    +0.000 C 
ATOM     11  O   UNL     1       3.660   6.887  17.573  0.00  0.00    +0.000 OA
ENDROOT
BRANCH   1  13
ATOM     12  N   UNL     1       5.693   3.926  16.996  0.00  0.00    +0.000 N 
ATOM     13  C   UNL     1       5.035   5.085  16.651  0.00  0.00    +0.000 C 
ATOM     14  O   UNL     1       5.266   5.592  15.555  0.00  0.00    +0.000 OA
ATOM     15  H   UNL     1       6.324   3.511  16.323  0.00  0.00    +0.000 HD
ATOM     16  H   UNL     1       5.488   3.441  17.860  0.00  0.00    +0.000 HD
ENDBRANCH   1  13
BRANCH   8  17
ATOM     17  O   UNL     1      -0.633  10.297  18.970  0.00  0.00    +0.000 OA
BRANCH  17  18
ATOM     18  C   UNL     1      -1.661  11.138  19.320  0.00  0.00    +0.000 A 
ATOM     19  C   UNL     1      -1.637  11.978  20.441  0.00  0.00    +0.000 A 
ATOM     20  C   UNL     1      -2.729  12.789  20.775  0.00  0.00    +0.000 A 
ATOM     21  C   UNL     1      -3.857  12.808  19.971  0.00  0.00    +0.000 A 
ATOM     22  C   UNL     1      -3.905  11.984  18.854  0.00  0.00    +0.000 A 
ATOM     23  C   UNL     1      -2.835  11.112  18.537  0.00  0.00    +0.000 A 
BRANCH  23  24
ATOM     24  C   UNL     1      -3.075  10.154  17.396  0.00  0.00    +0.000 C 
ATOM     25  F   UNL     1      -2.012   9.895  16.589  0.00  0.00    +0.000 F 
ATOM     26  F   UNL     1      -3.488   8.932  17.853  0.00  0.00    +0.000 F 
ATOM     27  F   UNL     1      -4.075  10.576  16.568  0.00  0.00    +0.000 F 
ENDBRANCH  23  24
ENDBRANCH  17  18
ENDBRANCH   8  17
TORSDOF 4
ENDMDL
MODEL 9
REMARK VINA RESULT:      -7.1      4.860      7.830
REMARK  Name = 
REMARK  4 active torsions:
REMARK  status: ('A' for Active; 'I' for Inactive)
REMARK    1  A    between atoms: C_2  and  C_4
REMARK    2  A    between atoms: C_11  and  O_12
REMARK    3  A    between atoms: O_12  and  C_13
REMARK    4  A    between atoms: C_18  and  C_19
REMARK                            x       y       z     vdW  Elec       q    Type
REMARK                         _______ _______ _______ _____ _____    ______ ____
ROOT
ATOM      1  C   UNL     1       0.663  10.187  20.845  0.00  0.00    +0.000 A 
ATOM      2  N   UNL     1       0.967   9.757  22.050  0.00  0.00    +0.000 NA
ATOM      3  N   UNL     1       1.493   8.488  21.887  0.00  0.00    +0.000 NA
ATOM      4  C   UNL     1       1.504   8.238  20.592  0.00  0.00    +0.000 A 
ATOM      5  N   UNL     1       1.895   7.130  19.909  0.00  0.00    +0.000 N 
ATOM      6  C   UNL     1       2.509   7.322  18.594  0.00  0.00    +0.000 C 
ATOM      7  C   UNL     1       2.367   6.036  17.781  0.00  0.00    +0.000 C 
ATOM      8  C   UNL     1       3.006   4.848  18.503  0.00  0.00    +0.000 C 
ATOM      9  C   UNL     1       2.432   4.736  19.923  0.00  0.00    +0.000 C 
ATOM     10  C   UNL     1       2.494   6.051  20.703  0.00  0.00    +0.000 C 
ATOM     11  O   UNL     1       0.982   9.282  19.862  0.00  0.00    +0.000 OA
ENDROOT
BRANCH   1  13
ATOM     12  N   UNL     1       0.645  12.127  19.457  0.00  0.00    +0.000 N 
ATOM     13  C   UNL     1       0.061  11.456  20.508  0.00  0.00    +0.000 C 
ATOM     14  O   UNL     1      -0.910  11.961  21.065  0.00  0.00    +0.000 OA
ATOM     15  H   UNL     1       0.235  13.002  19.157  0.00  0.00    +0.000 HD
ATOM     16  H   UNL     1       1.407  11.720  18.929  0.00  0.00    +0.000 HD
ENDBRANCH   1  13
BRANCH   8  17
ATOM     17  O   UNL     1       4.440   4.998  18.558  0.00  0.00    +0.000 OA
BRANCH  17  18
ATOM     18  C   UNL     1       5.202   4.800  17.432  0.00  0.00    +0.000 A 
ATOM     19  C   UNL     1       4.726   4.197  16.261  0.00  0.00    +0.000 A 
ATOM     20  C   UNL     1       5.557   3.984  15.155  0.00  0.00    +0.000 A 
ATOM     21  C   UNL     1       6.877   4.405  15.179  0.00  0.00    +0.000 A 
ATOM     22  C   UNL     1       7.372   5.005  16.330  0.00  0.00    +0.000 A 
ATOM     23  C   UNL     1       6.562   5.172  17.480  0.00  0.00    +0.000 A 
BRANCH  23  24
ATOM     24  C   UNL     1       7.261   5.688  18.715  0.00  0.00    +0.000 C 
ATOM     25  F   UNL     1       8.407   5.050  19.073  0.00  0.00    +0.000 F 
ATOM     26  F   UNL     1       7.608   7.004  18.574  0.00  0.00    +0.000 F 
ATOM     27  F   UNL     1       6.457   5.653  19.818  0.00  0.00    +0.000 F 
ENDBRANCH  23  24
ENDBRANCH  17  18
ENDBRANCH   8  17
TORSDOF 4
ENDMDL
