MODEL 1
REMARK VINA RESULT:      -7.2      0.000      0.000
REMARK  Name = 
REMARK  7 active torsions:
REMARK  status: ('A' for Active; 'I' for Inactive)
REMARK    1  A    between atoms: C_1  and  C_2
REMARK    2  A    between atoms: C_2  and  C_4
REMARK    3  A    between atoms: C_8  and  C_9
REMARK    4  A    between atoms: C_9  and  N_10
REMARK    5  A    between atoms: C_14  and  O_15
REMARK    6  A    between atoms: C_14  and  C_16
REMARK    7  A    between atoms: C_16  and  O_17
REMARK                            x       y       z     vdW  Elec       q    Type
REMARK                         _______ _______ _______ _____ _____    ______ ____
ROOT
ATOM      1  N   UNL     1       2.984   5.695  18.447  0.00  0.00    +0.000 NA
ATOM      2  C   UNL     1       2.491   4.624  17.578  0.00  0.00    +0.000 C 
ATOM      3  C   UNL     1       1.611   3.523  18.172  0.00  0.00    +0.000 C 
ATOM      4  C   UNL     1       2.376   2.674  19.180  0.00  0.00    +0.000 C 
ATOM      5  C   UNL     1       2.267   3.207  20.612  0.00  0.00    +0.000 C 
ATOM      6  C   UNL     1       2.355   4.739  20.707  0.00  0.00    +0.000 C 
ATOM      7  C   UNL     1       3.430   5.364  19.803  0.00  0.00    +0.000 C 
ENDROOT
BRANCH   5   8
ATOM      8  O   UNL     1       3.375   2.676  21.376  0.00  0.00    +0.000 OA
ATOM      9  H   UNL     1       3.086   2.594  22.302  0.00  0.00    +0.000 HD
ENDBRANCH   5   8
BRANCH   1  10
ATOM     10  C   UNL     1       3.953   6.569  17.736  0.00  0.00    +0.000 C 
BRANCH  10  15
ATOM     11  C   UNL     1       6.699   5.052  15.515  0.00  0.00    +0.000 A 
ATOM     12  C   UNL     1       7.597   4.577  16.475  0.00  0.00    +0.000 A 
ATOM     13  C   UNL     1       7.339   4.778  17.831  0.00  0.00    +0.000 A 
ATOM     14  C   UNL     1       6.175   5.435  18.241  0.00  0.00    +0.000 A 
ATOM     15  C   UNL     1       5.257   5.916  17.299  0.00  0.00    +0.000 A 
ATOM     16  C   UNL     1       5.550   5.744  15.932  0.00  0.00    +0.000 A 
BRANCH  11  18
ATOM     17  C   UNL     1       6.056   3.766  13.365  0.00  0.00    +0.000 C 
ATOM     18  C   UNL     1       6.898   4.811  14.054  0.00  0.00    +0.000 C 
ATOM     19  O   UNL     1       7.724   5.472  13.429  0.00  0.00    +0.000 OA
ENDBRANCH  11  18
ENDBRANCH  10  15
ENDBRANCH   1  10
BRANCH   5  20
ATOM     20  C   UNL     1       0.979   2.680  21.280  0.00  0.00    +0.000 C 
BRANCH  20  21
ATOM     21  O   UNL     1       1.259   2.104  22.558  0.00  0.00    +0.000 OA
ATOM     22  H   UNL     1       2.148   1.703  22.476  0.00  0.00    +0.000 HD
ENDBRANCH  20  21
ENDBRANCH   5  20
TORSDOF 6
ENDMDL
MODEL 2
REMARK VINA RESULT:      -7.1      1.084      1.611
REMARK  Name = 
REMARK  7 active torsions:
REMARK  status: ('A' for Active; 'I' for Inactive)
REMARK    1  A    between atoms: C_1  and  C_2
REMARK    2  A    between atoms: C_2  and  C_4
REMARK    3  A    between atoms: C_8  and  C_9
REMARK    4  A    between atoms: C_9  and  N_10
REMARK    5  A    between atoms: C_14  and  O_15
REMARK    6  A    between atoms: C_14  and  C_16
REMARK    7  A    between atoms: C_16  and  O_17
REMARK                            x       y       z     vdW  Elec       q    Type
REMARK                         _______ _______ _______ _____ _____    ______ ____
ROOT
ATOM      1  N   UNL     1       3.447   5.534  18.809  0.00  0.00    +0.000 NA
ATOM      2  C   UNL     1       2.581   6.402  19.611  0.00  0.00    +0.000 C 
ATOM      3  C   UNL     1       1.821   5.811  20.799  0.00  0.00    +0.000 C 
ATOM      4  C   UNL     1       0.781   4.792  20.351  0.00  0.00    +0.000 C 
ATOM      5  C   UNL     1       1.331   3.364  20.295  0.00  0.00    +0.000 C 
ATOM      6  C   UNL     1       2.758   3.275  19.726  0.00  0.00    +0.000 C 
ATOM      7  C   UNL     1       3.002   4.172  18.502  0.00  0.00    +0.000 C 
ENDROOT
BRANCH   5   8
ATOM      8  O   UNL     1       0.483   2.587  19.419  0.00  0.00    +0.000 OA
ATOM      9  H   UNL     1      -0.119   3.203  18.963  0.00  0.00    +0.000 HD
ENDBRANCH   5   8
BRANCH   1  10
ATOM     10  C   UNL     1       3.963   6.239  17.608  0.00  0.00    +0.000 C 
BRANCH  10  15
ATOM     11  C   UNL     1       6.644   4.992  15.152  0.00  0.00    +0.000 A 
ATOM     12  C   UNL     1       7.695   4.692  16.023  0.00  0.00    +0.000 A 
ATOM     13  C   UNL     1       7.555   4.926  17.391  0.00  0.00    +0.000 A 
ATOM     14  C   UNL     1       6.361   5.441  17.903  0.00  0.00    +0.000 A 
ATOM     15  C   UNL     1       5.291   5.746  17.052  0.00  0.00    +0.000 A 
ATOM     16  C   UNL     1       5.460   5.544  15.668  0.00  0.00    +0.000 A 
BRANCH  11  18
ATOM     17  C   UNL     1       5.709   3.768  13.075  0.00  0.00    +0.000 C 
ATOM     18  C   UNL     1       6.720   4.705  13.688  0.00  0.00    +0.000 C 
ATOM     19  O   UNL     1       7.583   5.244  13.000  0.00  0.00    +0.000 OA
ENDBRANCH  11  18
ENDBRANCH  10  15
ENDBRANCH   1  10
BRANCH   5  20
ATOM     20  C   UNL     1       1.246   2.705  21.689  0.00  0.00    +0.000 C 
BRANCH  20  21
ATOM     21  O   UNL     1       2.547   2.490  22.239  0.00  0.00    +0.000 OA
ATOM     22  H   UNL     1       3.082   3.260  21.957  0.00  0.00    +0.000 HD
ENDBRANCH  20  21
ENDBRANCH   5  20
TORSDOF 6
ENDMDL
MODEL 3
REMARK VINA RESULT:      -7.0      3.809      6.688
REMARK  Name = 
REMARK  7 active torsions:
REMARK  status: ('A' for Active; 'I' for Inactive)
REMARK    1  A    between atoms: C_1  and  C_2
REMARK    2  A    between atoms: C_2  and  C_4
REMARK    3  A    between atoms: C_8  and  C_9
REMARK    4  A    between atoms: C_9  and  N_10
REMARK    5  A    between atoms: C_14  and  O_15
REMARK    6  A    between atoms: C_14  and  C_16
REMARK    7  A    between atoms: C_16  and  O_17
REMARK                            x       y       z     vdW  Elec       q    Type
REMARK                         _______ _______ _______ _____ _____    ______ ____
ROOT
ATOM      1  N   UNL     1       2.897   6.375  18.372  0.00  0.00    +0.000 NA
ATOM      2  C   UNL     1       1.692   5.630  17.997  0.00  0.00    +0.000 C 
ATOM      3  C   UNL     1       1.636   4.122  18.241  0.00  0.00    +0.000 C 
ATOM      4  C   UNL     1       2.649   3.376  17.381  0.00  0.00    +0.000 C 
ATOM      5  C   UNL     1       4.004   3.200  18.074  0.00  0.00    +0.000 C 
ATOM      6  C   UNL     1       4.461   4.442  18.858  0.00  0.00    +0.000 C 
ATOM      7  C   UNL     1       4.210   5.772  18.129  0.00  0.00    +0.000 C 
ENDROOT
BRANCH   5   8
ATOM      8  O   UNL     1       5.003   2.957  17.056  0.00  0.00    +0.000 OA
ATOM      9  H   UNL     1       5.339   3.821  16.757  0.00  0.00    +0.000 HD
ENDBRANCH   5   8
BRANCH   1  10
ATOM     10  C   UNL     1       2.832   7.784  17.907  0.00  0.00    +0.000 C 
BRANCH  10  15
ATOM     11  C   UNL     1       0.774   9.520  20.651  0.00  0.00    +0.000 A 
ATOM     12  C   UNL     1      -0.174  10.208  19.888  0.00  0.00    +0.000 A 
ATOM     13  C   UNL     1      -0.128  10.145  18.495  0.00  0.00    +0.000 A 
ATOM     14  C   UNL     1       0.850   9.379  17.853  0.00  0.00    +0.000 A 
ATOM     15  C   UNL     1       1.808   8.677  18.595  0.00  0.00    +0.000 A 
ATOM     16  C   UNL     1       1.776   8.783  19.999  0.00  0.00    +0.000 A 
BRANCH  11  18
ATOM     17  C   UNL     1      -0.601   9.631  22.838  0.00  0.00    +0.000 C 
ATOM     18  C   UNL     1       0.733   9.507  22.143  0.00  0.00    +0.000 C 
ATOM     19  O   UNL     1       1.772   9.378  22.786  0.00  0.00    +0.000 OA
ENDBRANCH  11  18
ENDBRANCH  10  15
ENDBRANCH   1  10
BRANCH   5  20
ATOM     20  C   UNL     1       3.982   1.948  18.977  0.00  0.00    +0.000 C 
BRANCH  20  21
ATOM     21  O   UNL     1       4.994   2.020  19.984  0.00  0.00    +0.000 OA
ATOM     22  H   UNL     1       5.415   1.135  19.997  0.00  0.00    +0.000 HD
ENDBRANCH  20  21
ENDBRANCH   5  20
TORSDOF 6
ENDMDL
MODEL 4
REMARK VINA RESULT:      -6.8      2.184      3.424
REMARK  Name = 
REMARK  7 active torsions:
REMARK  status: ('A' for Active; 'I' for Inactive)
REMARK    1  A    between atoms: C_1  and  C_2
REMARK    2  A    between atoms: C_2  and  C_4
REMARK    3  A    between atoms: C_8  and  C_9
REMARK    4  A    between atoms: C_9  and  N_10
REMARK    5  A    between atoms: C_14  and  O_15
REMARK    6  A    between atoms: C_14  and  C_16
REMARK    7  A    between atoms: C_16  and  O_17
REMARK                            x       y       z     vdW  Elec       q    Type
REMARK                         _______ _______ _______ _____ _____    ______ ____
ROOT
ATOM      1  N   UNL     1       5.174   4.352  16.686  0.00  0.00    +0.000 NA
ATOM      2  C   UNL     1       4.900   2.984  17.132  0.00  0.00    +0.000 C 
ATOM      3  C   UNL     1       3.589   2.682  17.859  0.00  0.00    +0.000 C 
ATOM      4  C   UNL     1       3.520   3.386  19.209  0.00  0.00    +0.000 C 
ATOM      5  C   UNL     1       2.878   4.775  19.124  0.00  0.00    +0.000 C 
ATOM      6  C   UNL     1       3.307   5.577  17.884  0.00  0.00    +0.000 C 
ATOM      7  C   UNL     1       4.806   5.473  17.557  0.00  0.00    +0.000 C 
ENDROOT
BRANCH   5   8
ATOM      8  O   UNL     1       3.297   5.537  20.280  0.00  0.00    +0.000 OA
ATOM      9  H   UNL     1       3.654   4.911  20.936  0.00  0.00    +0.000 HD
ENDBRANCH   5   8
BRANCH   1  10
ATOM     10  C   UNL     1       6.555   4.485  16.156  0.00  0.00    +0.000 C 
BRANCH  10  15
ATOM     11  C   UNL     1       6.076   3.616  12.442  0.00  0.00    +0.000 A 
ATOM     12  C   UNL     1       7.055   4.414  11.845  0.00  0.00    +0.000 A 
ATOM     13  C   UNL     1       7.841   5.257  12.631  0.00  0.00    +0.000 A 
ATOM     14  C   UNL     1       7.671   5.296  14.018  0.00  0.00    +0.000 A 
ATOM     15  C   UNL     1       6.700   4.503  14.640  0.00  0.00    +0.000 A 
ATOM     16  C   UNL     1       5.884   3.687  13.832  0.00  0.00    +0.000 A 
BRANCH  11  18
ATOM     17  C   UNL     1       3.917   3.110  11.112  0.00  0.00    +0.000 C 
ATOM     18  C   UNL     1       5.248   2.653  11.655  0.00  0.00    +0.000 C 
ATOM     19  O   UNL     1       5.662   1.516  11.443  0.00  0.00    +0.000 OA
ENDBRANCH  11  18
ENDBRANCH  10  15
ENDBRANCH   1  10
BRANCH   5  20
ATOM     20  C   UNL     1       1.341   4.657  19.207  0.00  0.00    +0.000 C 
BRANCH  20  21
ATOM     21  O   UNL     1       0.951   3.630  20.121  0.00  0.00    +0.000 OA
ATOM     22  H   UNL     1       0.009   3.803  20.324  0.00  0.00    +0.000 HD
ENDBRANCH  20  21
ENDBRANCH   5  20
TORSDOF 6
ENDMDL
MODEL 5
REMARK VINA RESULT:      -6.8      1.756      2.981
REMARK  Name = 
REMARK  7 active torsions:
REMARK  status: ('A' for Active; 'I' for Inactive)
REMARK    1  A    between atoms: C_1  and  C_2
REMARK    2  A    between atoms: C_2  and  C_4
REMARK    3  A    between atoms: C_8  and  C_9
REMARK    4  A    between atoms: C_9  and  N_10
REMARK    5  A    between atoms: C_14  and  O_15
REMARK    6  A    between atoms: C_14  and  C_16
REMARK    7  A    between atoms: C_16  and  O_17
REMARK                            x       y       z     vdW  Elec       q    Type
REMARK                         _______ _______ _______ _____ _____    ______ ____
ROOT
ATOM      1  N   UNL     1       3.351   3.667  17.712  0.00  0.00    +0.000 NA
ATOM      2  C   UNL     1       3.100   4.972  18.328  0.00  0.00    +0.000 C 
ATOM      3  C   UNL     1       2.594   5.036  19.769  0.00  0.00    +0.000 C 
ATOM      4  C   UNL     1       1.197   4.443  19.902  0.00  0.00    +0.000 C 
ATOM      5  C   UNL     1       1.214   2.945  20.223  0.00  0.00    +0.000 C 
ATOM      6  C   UNL     1       2.289   2.161  19.451  0.00  0.00    +0.000 C 
ATOM      7  C   UNL     1       2.420   2.566  17.973  0.00  0.00    +0.000 C 
ENDROOT
BRANCH   5   8
ATOM      8  O   UNL     1      -0.065   2.387  19.842  0.00  0.00    +0.000 OA
ATOM      9  H   UNL     1       0.104   1.627  19.257  0.00  0.00    +0.000 HD
ENDBRANCH   5   8
BRANCH   1  10
ATOM     10  C   UNL     1       3.671   3.800  16.267  0.00  0.00    +0.000 C 
BRANCH  10  15
ATOM     11  C   UNL     1       6.929   5.826  16.505  0.00  0.00    +0.000 A 
ATOM     12  C   UNL     1       7.502   5.570  15.255  0.00  0.00    +0.000 A 
ATOM     13  C   UNL     1       6.861   4.720  14.355  0.00  0.00    +0.000 A 
ATOM     14  C   UNL     1       5.635   4.133  14.684  0.00  0.00    +0.000 A 
ATOM     15  C   UNL     1       5.038   4.376  15.928  0.00  0.00    +0.000 A 
ATOM     16  C   UNL     1       5.716   5.204  16.844  0.00  0.00    +0.000 A 
BRANCH  11  18
ATOM     17  C   UNL     1       7.894   6.275  18.861  0.00  0.00    +0.000 C 
ATOM     18  C   UNL     1       7.544   6.774  17.481  0.00  0.00    +0.000 C 
ATOM     19  O   UNL     1       7.774   7.934  17.150  0.00  0.00    +0.000 OA
ENDBRANCH  11  18
ENDBRANCH  10  15
ENDBRANCH   1  10
BRANCH   5  20
ATOM     20  C   UNL     1       1.354   2.729  21.745  0.00  0.00    +0.000 C 
BRANCH  20  21
ATOM     21  O   UNL     1       2.706   2.433  22.103  0.00  0.00    +0.000 OA
ATOM     22  H   UNL     1       2.719   2.409  23.082  0.00  0.00    +0.000 HD
ENDBRANCH  20  21
ENDBRANCH   5  20
TORSDOF 6
ENDMDL
MODEL 6
REMARK VINA RESULT:      -6.7      4.331      5.553
REMARK  Name = 
REMARK  7 active torsions:
REMARK  status: ('A' for Active; 'I' for Inactive)
REMARK    1  A    between atoms: C_1  and  C_2
REMARK    2  A    between atoms: C_2  and  C_4
REMARK    3  A    between atoms: C_8  and  C_9
REMARK    4  A    between atoms: C_9  and  N_10
REMARK    5  A    between atoms: C_14  and  O_15
REMARK    6  A    between atoms: C_14  and  C_16
REMARK    7  A    between atoms: C_16  and  O_17
REMARK                            x       y       z     vdW  Elec       q    Type
REMARK                         _______ _______ _______ _____ _____    ______ ____
ROOT
ATOM      1  N   UNL     1       2.308   7.455  19.651  0.00  0.00    +0.000 NA
ATOM      2  C   UNL     1       2.344   7.820  18.232  0.00  0.00    +0.000 C 
ATOM      3  C   UNL     1       2.058   9.265  17.823  0.00  0.00    +0.000 C 
ATOM      4  C   UNL     1       0.619   9.662  18.129  0.00  0.00    +0.000 C 
ATOM      5  C   UNL     1       0.454  10.273  19.524  0.00  0.00    +0.000 C 
ATOM      6  C   UNL     1       1.281   9.563  20.610  0.00  0.00    +0.000 C 
ATOM      7  C   UNL     1       1.266   8.029  20.507  0.00  0.00    +0.000 C 
ENDROOT
BRANCH   5   8
ATOM      8  O   UNL     1      -0.935  10.150  19.909  0.00  0.00    +0.000 OA
ATOM      9  H   UNL     1      -1.420   9.766  19.156  0.00  0.00    +0.000 HD
ENDBRANCH   5   8
BRANCH   1  10
ATOM     10  C   UNL     1       2.441   5.988  19.838  0.00  0.00    +0.000 C 
BRANCH  10  15
ATOM     11  C   UNL     1       5.654   4.915  18.019  0.00  0.00    +0.000 A 
ATOM     12  C   UNL     1       5.141   4.058  17.041  0.00  0.00    +0.000 A 
ATOM     13  C   UNL     1       3.773   3.796  16.991  0.00  0.00    +0.000 A 
ATOM     14  C   UNL     1       2.901   4.402  17.901  0.00  0.00    +0.000 A 
ATOM     15  C   UNL     1       3.389   5.268  18.888  0.00  0.00    +0.000 A 
ATOM     16  C   UNL     1       4.778   5.491  18.954  0.00  0.00    +0.000 A 
BRANCH  11  18
ATOM     17  C   UNL     1       7.502   6.722  17.925  0.00  0.00    +0.000 C 
ATOM     18  C   UNL     1       7.102   5.275  18.079  0.00  0.00    +0.000 C 
ATOM     19  O   UNL     1       7.945   4.402  18.270  0.00  0.00    +0.000 OA
ENDBRANCH  11  18
ENDBRANCH  10  15
ENDBRANCH   1  10
BRANCH   5  20
ATOM     20  C   UNL     1       0.768  11.784  19.484  0.00  0.00    +0.000 C 
BRANCH  20  21
ATOM     21  O   UNL     1       0.358  12.364  18.243  0.00  0.00    +0.000 OA
ATOM     22  H   UNL     1      -0.564  12.063  18.105  0.00  0.00    +0.000 HD
ENDBRANCH  20  21
ENDBRANCH   5  20
TORSDOF 6
ENDMDL
MODEL 7
REMARK VINA RESULT:      -6.7      3.989      5.231
REMARK  Name = 
REMARK  7 active torsions:
REMARK  status: ('A' for Active; 'I' for Inactive)
REMARK    1  A    between atoms: C_1  and  C_2
REMARK    2  A    between atoms: C_2  and  C_4
REMARK    3  A    between atoms: C_8  and  C_9
REMARK    4  A    between atoms: C_9  and  N_10
REMARK    5  A    between atoms: C_14  and  O_15
REMARK    6  A    between atoms: C_14  and  C_16
REMARK    7  A    between atoms: C_16  and  O_17
REMARK                            x       y       z     vdW  Elec       q    Type
REMARK                         _______ _______ _______ _____ _____    ______ ____
ROOT
ATOM      1  N   UNL     1       2.073   8.572  18.755  0.00  0.00    +0.000 NA
ATOM      2  C   UNL     1       1.256   9.695  18.287  0.00  0.00    +0.000 C 
ATOM      3  C   UNL     1       0.575  10.604  19.310  0.00  0.00    +0.000 C 
ATOM      4  C   UNL     1      -0.489   9.858  20.106  0.00  0.00    +0.000 C 
ATOM      5  C   UNL     1       0.062   9.223  21.387  0.00  0.00    +0.000 C 
ATOM      6  C   UNL     1       1.449   8.584  21.211  0.00  0.00    +0.000 C 
ATOM      7  C   UNL     1       1.613   7.788  19.905  0.00  0.00    +0.000 C 
ENDROOT
BRANCH   5   8
ATOM      8  O   UNL     1      -0.838   8.165  21.789  0.00  0.00    +0.000 OA
ATOM      9  H   UNL     1      -1.750   8.491  21.677  0.00  0.00    +0.000 HD
ENDBRANCH   5   8
BRANCH   1  10
ATOM     10  C   UNL     1       2.509   7.709  17.627  0.00  0.00    +0.000 C 
BRANCH  10  15
ATOM     11  C   UNL     1       5.150   5.084  18.580  0.00  0.00    +0.000 A 
ATOM     12  C   UNL     1       4.392   3.910  18.553  0.00  0.00    +0.000 A 
ATOM     13  C   UNL     1       3.028   3.967  18.267  0.00  0.00    +0.000 A 
ATOM     14  C   UNL     1       2.414   5.191  17.985  0.00  0.00    +0.000 A 
ATOM     15  C   UNL     1       3.153   6.381  18.002  0.00  0.00    +0.000 A 
ATOM     16  C   UNL     1       4.520   6.315  18.334  0.00  0.00    +0.000 A 
BRANCH  11  18
ATOM     17  C   UNL     1       7.547   4.707  17.686  0.00  0.00    +0.000 C 
ATOM     18  C   UNL     1       6.624   5.071  18.822  0.00  0.00    +0.000 C 
ATOM     19  O   UNL     1       7.068   5.371  19.927  0.00  0.00    +0.000 OA
ENDBRANCH  11  18
ENDBRANCH  10  15
ENDBRANCH   1  10
BRANCH   5  20
ATOM     20  C   UNL     1       0.067  10.257  22.533  0.00  0.00    +0.000 C 
BRANCH  20  21
ATOM     21  O   UNL     1       0.370   9.638  23.785  0.00  0.00    +0.000 OA
ATOM     22  H   UNL     1       0.546  10.374  24.407  0.00  0.00    +0.000 HD
ENDBRANCH  20  21
ENDBRANCH   5  20
TORSDOF 6
ENDMDL
MODEL 8
REMARK VINA RESULT:      -6.7      4.636      6.590
REMARK  Name = 
REMARK  7 active torsions:
REMARK  status: ('A' for Active; 'I' for Inactive)
REMARK    1  A    between atoms: C_1  and  C_2
REMARK    2  A    between atoms: C_2  and  C_4
REMARK    3  A    between atoms: C_8  and  C_9
REMARK    4  A    between atoms: C_9  and  N_10
REMARK    5  A    between atoms: C_14  and  O_15
REMARK    6  A    between atoms: C_14  and  C_16
REMARK    7  A    between atoms: C_16  and  O_17
REMARK                            x       y       z     vdW  Elec       q    Type
REMARK                         _______ _______ _______ _____ _____    ______ ____
ROOT
ATOM      1  N   UNL     1       2.014   7.978  18.621  0.00  0.00    +0.000 NA
ATOM      2  C   UNL     1       1.898   8.130  20.074  0.00  0.00    +0.000 C 
ATOM      3  C   UNL     1       0.745   8.951  20.651  0.00  0.00    +0.000 C 
ATOM      4  C   UNL     1       0.856  10.423  20.270  0.00  0.00    +0.000 C 
ATOM      5  C   UNL     1       0.129  10.757  18.964  0.00  0.00    +0.000 C 
ATOM      6  C   UNL     1       0.301   9.687  17.872  0.00  0.00    +0.000 C 
ATOM      7  C   UNL     1       1.729   9.129  17.760  0.00  0.00    +0.000 C 
ENDROOT
BRANCH   5   8
ATOM      8  O   UNL     1       0.687  11.984  18.439  0.00  0.00    +0.000 OA
ATOM      9  H   UNL     1       0.952  11.820  17.516  0.00  0.00    +0.000 HD
ENDBRANCH   5   8
BRANCH   1  10
ATOM     10  C   UNL     1       3.280   7.297  18.246  0.00  0.00    +0.000 C 
BRANCH  10  15
ATOM     11  C   UNL     1       2.128   3.631  18.355  0.00  0.00    +0.000 A 
ATOM     12  C   UNL     1       3.083   3.019  17.537  0.00  0.00    +0.000 A 
ATOM     13  C   UNL     1       4.070   3.789  16.922  0.00  0.00    +0.000 A 
ATOM     14  C   UNL     1       4.127   5.170  17.134  0.00  0.00    +0.000 A 
ATOM     15  C   UNL     1       3.185   5.806  17.952  0.00  0.00    +0.000 A 
ATOM     16  C   UNL     1       2.168   5.024  18.533  0.00  0.00    +0.000 A 
BRANCH  11  18
ATOM     17  C   UNL     1       1.038   2.920  20.590  0.00  0.00    +0.000 C 
ATOM     18  C   UNL     1       1.087   2.846  19.083  0.00  0.00    +0.000 C 
ATOM     19  O   UNL     1       0.277   2.168  18.456  0.00  0.00    +0.000 OA
ENDBRANCH  11  18
ENDBRANCH  10  15
ENDBRANCH   1  10
BRANCH   5  20
ATOM     20  C   UNL     1      -1.364  11.034  19.242  0.00  0.00    +0.000 C 
BRANCH  20  21
ATOM     21  O   UNL     1      -1.526  11.927  20.347  0.00  0.00    +0.000 OA
ATOM     22  H   UNL     1      -1.902  12.748  19.969  0.00  0.00    +0.000 HD
ENDBRANCH  20  21
ENDBRANCH   5  20
TORSDOF 6
ENDMDL
MODEL 9
REMARK VINA RESULT:      -6.6      3.971      5.846
REMARK  Name = 
REMARK  7 active torsions:
REMARK  status: ('A' for Active; 'I' for Inactive)
REMARK    1  A    between atoms: C_1  and  C_2
REMARK    2  A    between atoms: C_2  and  C_4
REMARK    3  A    between atoms: C_8  and  C_9
REMARK    4  A    between atoms: C_9  and  N_10
REMARK    5  A    between atoms: C_14  and  O_15
REMARK    6  A    between atoms: C_14  and  C_16
REMARK    7  A    between atoms: C_16  and  O_17
REMARK                            x       y       z     vdW  Elec       q    Type
REMARK                         _______ _______ _______ _____ _____    ______ ____
ROOT
ATOM      1  N   UNL     1       2.125   8.650  18.817  0.00  0.00    +0.000 NA
ATOM      2  C   UNL     1       1.256   9.716  18.312  0.00  0.00    +0.000 C 
ATOM      3  C   UNL     1       0.497  10.597  19.304  0.00  0.00    +0.000 C 
ATOM      4  C   UNL     1      -0.541   9.800  20.084  0.00  0.00    +0.000 C 
ATOM      5  C   UNL     1       0.013   9.217  21.388  0.00  0.00    +0.000 C 
ATOM      6  C   UNL     1       1.440   8.659  21.256  0.00  0.00    +0.000 C 
ATOM      7  C   UNL     1       1.683   7.857  19.967  0.00  0.00    +0.000 C 
ENDROOT
BRANCH   5   8
ATOM      8  O   UNL     1      -0.834   8.113  21.784  0.00  0.00    +0.000 OA
ATOM      9  H   UNL     1      -0.839   8.076  22.758  0.00  0.00    +0.000 HD
ENDBRANCH   5   8
BRANCH   1  10
ATOM     10  C   UNL     1       2.640   7.800  17.714  0.00  0.00    +0.000 C 
BRANCH  10  15
ATOM     11  C   UNL     1       2.561   4.110  18.790  0.00  0.00    +0.000 A 
ATOM     12  C   UNL     1       3.924   3.843  18.952  0.00  0.00    +0.000 A 
ATOM     13  C   UNL     1       4.866   4.834  18.679  0.00  0.00    +0.000 A 
ATOM     14  C   UNL     1       4.457   6.105  18.263  0.00  0.00    +0.000 A 
ATOM     15  C   UNL     1       3.098   6.399  18.097  0.00  0.00    +0.000 A 
ATOM     16  C   UNL     1       2.159   5.377  18.336  0.00  0.00    +0.000 A 
BRANCH  11  18
ATOM     17  C   UNL     1       1.113   2.915  20.569  0.00  0.00    +0.000 C 
ATOM     18  C   UNL     1       1.510   3.104  19.125  0.00  0.00    +0.000 C 
ATOM     19  O   UNL     1       0.970   2.457  18.231  0.00  0.00    +0.000 OA
ENDBRANCH  11  18
ENDBRANCH  10  15
ENDBRANCH   1  10
BRANCH   5  20
ATOM     20  C   UNL     1      -0.073  10.265  22.518  0.00  0.00    +0.000 C 
BRANCH  20  21
ATOM     21  O   UNL     1       0.353   9.714  23.767  0.00  0.00    +0.000 OA
ATOM     22  H   UNL     1      -0.451   9.329  24.172  0.00  0.00    +0.000 HD
ENDBRANCH  20  21
ENDBRANCH   5  20
TORSDOF 6
ENDMDL
