MODEL 1
REMARK VINA RESULT:      -7.2      0.000      0.000
REMARK  Name = 
REMARK  14 active torsions:
REMARK  status: ('A' for Active; 'I' for Inactive)
REMARK    1  A    between atoms: C_1  and  C_2
REMARK    2  A    between atoms: C_2  and  O_3
REMARK    3  A    between atoms: O_3  and  C_4
REMARK    4  A    between atoms: C_4  and  C_6
REMARK    5  A    between atoms: C_6  and  C_7
REMARK    6  A    between atoms: C_6  and  N_12
REMARK    7  A    between atoms: C_7  and  C_8
REMARK    8  A    between atoms: C_8  and  C_9
REMARK    9  A    between atoms: C_9  and  C_10
REMARK   10  A    between atoms: C_10  and  N_11
REMARK   11  A    between atoms: N_12  and  C_13
REMARK   12  A    between atoms: N_22  and  C_23
REMARK   13  A    between atoms: C_23  and  C_24
REMARK   14  A    between atoms: C_24  and  O_26
REMARK                            x       y       z     vdW  Elec       q    Type
REMARK                         _______ _______ _______ _____ _____    ______ ____
ROOT
ATOM      1  C   UNL     1       3.954   4.037  16.493  0.00  0.00    +0.000 C 
ATOM      2  C   UNL     1       3.185   2.735  16.781  0.00  0.00    +0.000 C 
ATOM      3  C   UNL     1       3.526   2.012  18.089  0.00  0.00    +0.000 C 
ATOM      4  C   UNL     1       2.920   2.696  19.294  0.00  0.00    +0.000 A 
ATOM      5  C   UNL     1       1.952   2.039  20.069  0.00  0.00    +0.000 A 
ATOM      6  C   UNL     1       1.361   2.680  21.160  0.00  0.00    +0.000 A 
ATOM      7  C   UNL     1       1.738   3.974  21.500  0.00  0.00    +0.000 A 
ATOM      8  C   UNL     1       2.730   4.624  20.767  0.00  0.00    +0.000 A 
ATOM      9  C   UNL     1       3.320   3.989  19.666  0.00  0.00    +0.000 A 
ATOM     10  N   UNL     1       4.301   4.633  18.859  0.00  0.00    +0.000 N 
ATOM     11  C   UNL     1       3.790   5.077  17.630  0.00  0.00    +0.000 C 
ATOM     12  O   UNL     1       3.461   6.243  17.419  0.00  0.00    +0.000 OA
ENDROOT
BRANCH   1  13
ATOM     13  N   UNL     1       5.411   3.908  16.312  0.00  0.00    +0.000 NA
ATOM     14  H   UNL     1       5.882   4.318  17.130  0.00  0.00    +0.000 HD
BRANCH  13  15
ATOM     15  C   UNL     1       6.030   4.486  15.111  0.00  0.00    +0.000 C 
BRANCH  15  16
ATOM     16  C   UNL     1       6.018   6.017  15.342  0.00  0.00    +0.000 C 
ATOM     17  O   UNL     1       5.221   6.781  14.817  0.00  0.00    +0.000 OA
BRANCH  16  18
ATOM     18  O   UNL     1       7.017   6.369  16.196  0.00  0.00    +0.000 OA
BRANCH  18  20
ATOM     19  C   UNL     1       8.011   7.962  17.719  0.00  0.00    +0.000 C 
ATOM     20  C   UNL     1       6.751   7.532  16.992  0.00  0.00    +0.000 C 
ENDBRANCH  18  20
ENDBRANCH  16  18
ENDBRANCH  15  16
BRANCH  15  21
ATOM     21  C   UNL     1       5.316   4.181  13.773  0.00  0.00    +0.000 C 
BRANCH  21  22
ATOM     22  C   UNL     1       6.297   3.555  12.762  0.00  0.00    +0.000 C 
BRANCH  22  23
ATOM     23  C   UNL     1       5.672   2.561  11.779  0.00  0.00    +0.000 C 
BRANCH  23  24
ATOM     24  C   UNL     1       6.776   1.669  11.193  0.00  0.00    +0.000 C 
BRANCH  24  25
ATOM     25  N   UNL     1       6.381   0.266  11.169  0.00  0.00    +0.000 NA
ATOM     26  H   UNL     1       6.933  -0.262  11.842  0.00  0.00    +0.000 HD
ATOM     27  H   UNL     1       6.599  -0.127  10.254  0.00  0.00    +0.000 HD
ENDBRANCH  24  25
ENDBRANCH  23  24
ENDBRANCH  22  23
ENDBRANCH  21  22
ENDBRANCH  15  21
ENDBRANCH  13  15
ENDBRANCH   1  13
BRANCH  10  28
ATOM     28  C   UNL     1       5.258   5.534  19.505  0.00  0.00    +0.000 C 
BRANCH  28  29
ATOM     29  C   UNL     1       6.695   5.033  19.372  0.00  0.00    +0.000 C 
ATOM     30  O   UNL     1       7.052   4.195  18.559  0.00  0.00    +0.000 OA
BRANCH  29  31
ATOM     31  O   UNL     1       7.535   5.497  20.335  0.00  0.00    +0.000 OA
ATOM     32  H   UNL     1       8.412   5.699  19.946  0.00  0.00    +0.000 HD
ENDBRANCH  29  31
ENDBRANCH  28  29
ENDBRANCH  10  28
TORSDOF 13
ENDMDL
MODEL 2
REMARK VINA RESULT:      -6.8      1.472      2.486
REMARK  Name = 
REMARK  14 active torsions:
REMARK  status: ('A' for Active; 'I' for Inactive)
REMARK    1  A    between atoms: C_1  and  C_2
REMARK    2  A    between atoms: C_2  and  O_3
REMARK    3  A    between atoms: O_3  and  C_4
REMARK    4  A    between atoms: C_4  and  C_6
REMARK    5  A    between atoms: C_6  and  C_7
REMARK    6  A    between atoms: C_6  and  N_12
REMARK    7  A    between atoms: C_7  and  C_8
REMARK    8  A    between atoms: C_8  and  C_9
REMARK    9  A    between atoms: C_9  and  C_10
REMARK   10  A    between atoms: C_10  and  N_11
REMARK   11  A    between atoms: N_12  and  C_13
REMARK   12  A    between atoms: N_22  and  C_23
REMARK   13  A    between atoms: C_23  and  C_24
REMARK   14  A    between atoms: C_24  and  O_26
REMARK                            x       y       z     vdW  Elec       q    Type
REMARK                         _______ _______ _______ _____ _____    ______ ____
ROOT
ATOM      1  C   UNL     1       4.290   3.165  17.025  0.00  0.00    +0.000 C 
ATOM      2  C   UNL     1       4.803   2.397  18.257  0.00  0.00    +0.000 C 
ATOM      3  C   UNL     1       4.741   3.134  19.599  0.00  0.00    +0.000 C 
ATOM      4  C   UNL     1       3.335   3.191  20.155  0.00  0.00    +0.000 A 
ATOM      5  C   UNL     1       3.024   2.543  21.361  0.00  0.00    +0.000 A 
ATOM      6  C   UNL     1       1.720   2.560  21.860  0.00  0.00    +0.000 A 
ATOM      7  C   UNL     1       0.717   3.234  21.173  0.00  0.00    +0.000 A 
ATOM      8  C   UNL     1       1.019   3.920  19.998  0.00  0.00    +0.000 A 
ATOM      9  C   UNL     1       2.324   3.900  19.488  0.00  0.00    +0.000 A 
ATOM     10  N   UNL     1       2.668   4.544  18.266  0.00  0.00    +0.000 N 
ATOM     11  C   UNL     1       2.827   3.645  17.201  0.00  0.00    +0.000 C 
ATOM     12  O   UNL     1       1.956   3.438  16.357  0.00  0.00    +0.000 OA
ENDROOT
BRANCH   1  13
ATOM     13  N   UNL     1       5.039   4.379  16.655  0.00  0.00    +0.000 NA
ATOM     14  H   UNL     1       4.466   4.935  16.007  0.00  0.00    +0.000 HD
BRANCH  13  15
ATOM     15  C   UNL     1       6.372   4.233  16.052  0.00  0.00    +0.000 C 
BRANCH  15  16
ATOM     16  C   UNL     1       7.336   4.982  17.005  0.00  0.00    +0.000 C 
ATOM     17  O   UNL     1       7.822   4.487  18.012  0.00  0.00    +0.000 OA
BRANCH  16  18
ATOM     18  O   UNL     1       7.542   6.250  16.559  0.00  0.00    +0.000 OA
BRANCH  18  20
ATOM     19  C   UNL     1       8.057   8.266  17.792  0.00  0.00    +0.000 C 
ATOM     20  C   UNL     1       6.978   7.281  17.382  0.00  0.00    +0.000 C 
ENDBRANCH  18  20
ENDBRANCH  16  18
ENDBRANCH  15  16
BRANCH  15  21
ATOM     21  C   UNL     1       6.533   4.812  14.627  0.00  0.00    +0.000 C 
BRANCH  21  22
ATOM     22  C   UNL     1       5.712   3.995  13.610  0.00  0.00    +0.000 C 
BRANCH  22  23
ATOM     23  C   UNL     1       6.470   3.579  12.346  0.00  0.00    +0.000 C 
BRANCH  23  24
ATOM     24  C   UNL     1       5.817   2.320  11.757  0.00  0.00    +0.000 C 
BRANCH  24  25
ATOM     25  N   UNL     1       6.808   1.404  11.206  0.00  0.00    +0.000 NA
ATOM     26  H   UNL     1       7.736   1.656  11.537  0.00  0.00    +0.000 HD
ATOM     27  H   UNL     1       6.831   1.507  10.192  0.00  0.00    +0.000 HD
ENDBRANCH  24  25
ENDBRANCH  23  24
ENDBRANCH  22  23
ENDBRANCH  21  22
ENDBRANCH  15  21
ENDBRANCH  13  15
ENDBRANCH   1  13
BRANCH  10  28
ATOM     28  C   UNL     1       2.006   5.807  17.929  0.00  0.00    +0.000 C 
BRANCH  28  29
ATOM     29  C   UNL     1       2.703   7.006  18.569  0.00  0.00    +0.000 C 
ATOM     30  O   UNL     1       2.429   7.442  19.676  0.00  0.00    +0.000 OA
BRANCH  29  31
ATOM     31  O   UNL     1       3.572   7.647  17.744  0.00  0.00    +0.000 OA
ATOM     32  H   UNL     1       3.081   8.103  17.028  0.00  0.00    +0.000 HD
ENDBRANCH  29  31
ENDBRANCH  28  29
ENDBRANCH  10  28
TORSDOF 13
ENDMDL
MODEL 3
REMARK VINA RESULT:      -6.7      1.573      2.203
REMARK  Name = 
REMARK  14 active torsions:
REMARK  status: ('A' for Active; 'I' for Inactive)
REMARK    1  A    between atoms: C_1  and  C_2
REMARK    2  A    between atoms: C_2  and  O_3
REMARK    3  A    between atoms: O_3  and  C_4
REMARK    4  A    between atoms: C_4  and  C_6
REMARK    5  A    between atoms: C_6  and  C_7
REMARK    6  A    between atoms: C_6  and  N_12
REMARK    7  A    between atoms: C_7  and  C_8
REMARK    8  A    between atoms: C_8  and  C_9
REMARK    9  A    between atoms: C_9  and  C_10
REMARK   10  A    between atoms: C_10  and  N_11
REMARK   11  A    between atoms: N_12  and  C_13
REMARK   12  A    between atoms: N_22  and  C_23
REMARK   13  A    between atoms: C_23  and  C_24
REMARK   14  A    between atoms: C_24  and  O_26
REMARK                            x       y       z     vdW  Elec       q    Type
REMARK                         _______ _______ _______ _____ _____    ______ ____
ROOT
ATOM      1  C   UNL     1       4.074   3.839  16.385  0.00  0.00    +0.000 C 
ATOM      2  C   UNL     1       3.254   2.615  16.830  0.00  0.00    +0.000 C 
ATOM      3  C   UNL     1       3.546   2.066  18.230  0.00  0.00    +0.000 C 
ATOM      4  C   UNL     1       2.945   2.929  19.319  0.00  0.00    +0.000 A 
ATOM      5  C   UNL     1       1.942   2.417  20.155  0.00  0.00    +0.000 A 
ATOM      6  C   UNL     1       1.357   3.220  21.136  0.00  0.00    +0.000 A 
ATOM      7  C   UNL     1       1.775   4.535  21.305  0.00  0.00    +0.000 A 
ATOM      8  C   UNL     1       2.802   5.045  20.512  0.00  0.00    +0.000 A 
ATOM      9  C   UNL     1       3.387   4.246  19.520  0.00  0.00    +0.000 A 
ATOM     10  N   UNL     1       4.403   4.740  18.654  0.00  0.00    +0.000 N 
ATOM     11  C   UNL     1       3.929   5.030  17.365  0.00  0.00    +0.000 C 
ATOM     12  O   UNL     1       3.646   6.167  16.991  0.00  0.00    +0.000 OA
ENDROOT
BRANCH   1  13
ATOM     13  N   UNL     1       5.528   3.637  16.253  0.00  0.00    +0.000 NA
ATOM     14  H   UNL     1       6.009   4.290  16.887  0.00  0.00    +0.000 HD
BRANCH  13  15
ATOM     15  C   UNL     1       6.146   3.774  14.927  0.00  0.00    +0.000 C 
BRANCH  15  16
ATOM     16  C   UNL     1       7.069   5.013  15.033  0.00  0.00    +0.000 C 
ATOM     17  O   UNL     1       7.700   5.311  16.038  0.00  0.00    +0.000 OA
BRANCH  16  18
ATOM     18  O   UNL     1       7.060   5.705  13.862  0.00  0.00    +0.000 OA
BRANCH  18  20
ATOM     19  C   UNL     1       7.916   5.916  11.610  0.00  0.00    +0.000 C 
ATOM     20  C   UNL     1       8.224   5.523  13.043  0.00  0.00    +0.000 C 
ENDBRANCH  18  20
ENDBRANCH  16  18
ENDBRANCH  15  16
BRANCH  15  21
ATOM     21  C   UNL     1       5.168   3.984  13.747  0.00  0.00    +0.000 C 
BRANCH  21  22
ATOM     22  C   UNL     1       5.468   2.991  12.608  0.00  0.00    +0.000 C 
BRANCH  22  23
ATOM     23  C   UNL     1       5.094   3.478  11.204  0.00  0.00    +0.000 C 
BRANCH  23  24
ATOM     24  C   UNL     1       3.604   3.204  10.953  0.00  0.00    +0.000 C 
BRANCH  24  25
ATOM     25  N   UNL     1       3.069   4.052   9.896  0.00  0.00    +0.000 NA
ATOM     26  H   UNL     1       3.430   3.752   8.993  0.00  0.00    +0.000 HD
ATOM     27  H   UNL     1       3.403   5.006  10.031  0.00  0.00    +0.000 HD
ENDBRANCH  24  25
ENDBRANCH  23  24
ENDBRANCH  22  23
ENDBRANCH  21  22
ENDBRANCH  15  21
ENDBRANCH  13  15
ENDBRANCH   1  13
BRANCH  10  28
ATOM     28  C   UNL     1       5.382   5.688  19.192  0.00  0.00    +0.000 C 
BRANCH  28  29
ATOM     29  C   UNL     1       6.749   5.040  19.405  0.00  0.00    +0.000 C 
ATOM     30  O   UNL     1       7.548   5.400  20.256  0.00  0.00    +0.000 OA
BRANCH  29  31
ATOM     31  O   UNL     1       7.070   4.106  18.472  0.00  0.00    +0.000 OA
ATOM     32  H   UNL     1       7.271   4.540  17.617  0.00  0.00    +0.000 HD
ENDBRANCH  29  31
ENDBRANCH  28  29
ENDBRANCH  10  28
TORSDOF 13
ENDMDL
MODEL 4
REMARK VINA RESULT:      -6.6      1.825      2.309
REMARK  Name = 
REMARK  14 active torsions:
REMARK  status: ('A' for Active; 'I' for Inactive)
REMARK    1  A    between atoms: C_1  and  C_2
REMARK    2  A    between atoms: C_2  and  O_3
REMARK    3  A    between atoms: O_3  and  C_4
REMARK    4  A    between atoms: C_4  and  C_6
REMARK    5  A    between atoms: C_6  and  C_7
REMARK    6  A    between atoms: C_6  and  N_12
REMARK    7  A    between atoms: C_7  and  C_8
REMARK    8  A    between atoms: C_8  and  C_9
REMARK    9  A    between atoms: C_9  and  C_10
REMARK   10  A    between atoms: C_10  and  N_11
REMARK   11  A    between atoms: N_12  and  C_13
REMARK   12  A    between atoms: N_22  and  C_23
REMARK   13  A    between atoms: C_23  and  C_24
REMARK   14  A    between atoms: C_24  and  O_26
REMARK                            x       y       z     vdW  Elec       q    Type
REMARK                         _______ _______ _______ _____ _____    ______ ____
ROOT
ATOM      1  C   UNL     1       4.482   4.457  17.190  0.00  0.00    +0.000 C 
ATOM      2  C   UNL     1       3.103   3.996  16.685  0.00  0.00    +0.000 C 
ATOM      3  C   UNL     1       2.595   2.649  17.213  0.00  0.00    +0.000 C 
ATOM      4  C   UNL     1       2.099   2.744  18.639  0.00  0.00    +0.000 A 
ATOM      5  C   UNL     1       0.748   2.509  18.937  0.00  0.00    +0.000 A 
ATOM      6  C   UNL     1       0.277   2.633  20.245  0.00  0.00    +0.000 A 
ATOM      7  C   UNL     1       1.148   2.977  21.273  0.00  0.00    +0.000 A 
ATOM      8  C   UNL     1       2.502   3.170  21.001  0.00  0.00    +0.000 A 
ATOM      9  C   UNL     1       2.979   3.055  19.689  0.00  0.00    +0.000 A 
ATOM     10  N   UNL     1       4.343   3.292  19.357  0.00  0.00    +0.000 N 
ATOM     11  C   UNL     1       4.546   4.534  18.736  0.00  0.00    +0.000 C 
ATOM     12  O   UNL     1       4.956   5.528  19.333  0.00  0.00    +0.000 OA
ENDROOT
BRANCH   1  13
ATOM     13  N   UNL     1       5.630   3.613  16.810  0.00  0.00    +0.000 NA
ATOM     14  H   UNL     1       6.040   3.213  17.665  0.00  0.00    +0.000 HD
BRANCH  13  15
ATOM     15  C   UNL     1       6.725   4.214  16.035  0.00  0.00    +0.000 C 
BRANCH  15  16
ATOM     16  C   UNL     1       7.582   4.985  17.069  0.00  0.00    +0.000 C 
ATOM     17  O   UNL     1       8.033   4.486  18.090  0.00  0.00    +0.000 OA
BRANCH  16  18
ATOM     18  O   UNL     1       7.742   6.277  16.674  0.00  0.00    +0.000 OA
BRANCH  18  20
ATOM     19  C   UNL     1       8.070   8.403  17.779  0.00  0.00    +0.000 C 
ATOM     20  C   UNL     1       7.117   7.251  17.521  0.00  0.00    +0.000 C 
ENDBRANCH  18  20
ENDBRANCH  16  18
ENDBRANCH  15  16
BRANCH  15  21
ATOM     21  C   UNL     1       6.299   5.192  14.915  0.00  0.00    +0.000 C 
BRANCH  21  22
ATOM     22  C   UNL     1       6.672   4.631  13.530  0.00  0.00    +0.000 C 
BRANCH  22  23
ATOM     23  C   UNL     1       5.881   3.393  13.095  0.00  0.00    +0.000 C 
BRANCH  23  24
ATOM     24  C   UNL     1       6.554   2.770  11.863  0.00  0.00    +0.000 C 
BRANCH  24  25
ATOM     25  N   UNL     1       5.879   1.552  11.436  0.00  0.00    +0.000 NA
ATOM     26  H   UNL     1       6.543   0.925  10.986  0.00  0.00    +0.000 HD
ATOM     27  H   UNL     1       5.185   1.785  10.726  0.00  0.00    +0.000 HD
ENDBRANCH  24  25
ENDBRANCH  23  24
ENDBRANCH  22  23
ENDBRANCH  21  22
ENDBRANCH  15  21
ENDBRANCH  13  15
ENDBRANCH   1  13
BRANCH  10  28
ATOM     28  C   UNL     1       5.377   2.892  20.314  0.00  0.00    +0.000 C 
BRANCH  28  29
ATOM     29  C   UNL     1       5.282   1.410  20.672  0.00  0.00    +0.000 C 
ATOM     30  O   UNL     1       5.544   0.958  21.776  0.00  0.00    +0.000 OA
BRANCH  29  31
ATOM     31  O   UNL     1       5.010   0.601  19.615  0.00  0.00    +0.000 OA
ATOM     32  H   UNL     1       5.745   0.636  18.967  0.00  0.00    +0.000 HD
ENDBRANCH  29  31
ENDBRANCH  28  29
ENDBRANCH  10  28
TORSDOF 13
ENDMDL
MODEL 5
REMARK VINA RESULT:      -6.5      1.550      2.258
REMARK  Name = 
REMARK  14 active torsions:
REMARK  status: ('A' for Active; 'I' for Inactive)
REMARK    1  A    between atoms: C_1  and  C_2
REMARK    2  A    between atoms: C_2  and  O_3
REMARK    3  A    between atoms: O_3  and  C_4
REMARK    4  A    between atoms: C_4  and  C_6
REMARK    5  A    between atoms: C_6  and  C_7
REMARK    6  A    between atoms: C_6  and  N_12
REMARK    7  A    between atoms: C_7  and  C_8
REMARK    8  A    between atoms: C_8  and  C_9
REMARK    9  A    between atoms: C_9  and  C_10
REMARK   10  A    between atoms: C_10  and  N_11
REMARK   11  A    between atoms: N_12  and  C_13
REMARK   12  A    between atoms: N_22  and  C_23
REMARK   13  A    between atoms: C_23  and  C_24
REMARK   14  A    between atoms: C_24  and  O_26
REMARK                            x       y       z     vdW  Elec       q    Type
REMARK                         _______ _______ _______ _____ _____    ______ ____
ROOT
ATOM      1  C   UNL     1       3.405   3.669  16.927  0.00  0.00    +0.000 C 
ATOM      2  C   UNL     1       4.128   2.588  17.751  0.00  0.00    +0.000 C 
ATOM      3  C   UNL     1       4.547   2.976  19.173  0.00  0.00    +0.000 C 
ATOM      4  C   UNL     1       3.374   2.993  20.129  0.00  0.00    +0.000 A 
ATOM      5  C   UNL     1       3.324   2.092  21.205  0.00  0.00    +0.000 A 
ATOM      6  C   UNL     1       2.226   2.078  22.068  0.00  0.00    +0.000 A 
ATOM      7  C   UNL     1       1.176   2.969  21.879  0.00  0.00    +0.000 A 
ATOM      8  C   UNL     1       1.231   3.899  20.842  0.00  0.00    +0.000 A 
ATOM      9  C   UNL     1       2.326   3.913  19.968  0.00  0.00    +0.000 A 
ATOM     10  N   UNL     1       2.403   4.812  18.867  0.00  0.00    +0.000 N 
ATOM     11  C   UNL     1       2.131   4.192  17.637  0.00  0.00    +0.000 C 
ATOM     12  O   UNL     1       1.039   4.260  17.074  0.00  0.00    +0.000 OA
ENDROOT
BRANCH   1  13
ATOM     13  N   UNL     1       4.184   4.881  16.615  0.00  0.00    +0.000 NA
ATOM     14  H   UNL     1       3.569   5.552  16.136  0.00  0.00    +0.000 HD
BRANCH  13  15
ATOM     15  C   UNL     1       5.407   4.750  15.811  0.00  0.00    +0.000 C 
BRANCH  15  16
ATOM     16  C   UNL     1       5.978   6.185  15.700  0.00  0.00    +0.000 C 
ATOM     17  O   UNL     1       5.351   7.136  15.256  0.00  0.00    +0.000 OA
BRANCH  16  18
ATOM     18  O   UNL     1       7.259   6.215  16.155  0.00  0.00    +0.000 OA
BRANCH  18  20
ATOM     19  C   UNL     1       7.647   5.980  18.531  0.00  0.00    +0.000 C 
ATOM     20  C   UNL     1       7.450   6.944  17.376  0.00  0.00    +0.000 C 
ENDBRANCH  18  20
ENDBRANCH  16  18
ENDBRANCH  15  16
BRANCH  15  21
ATOM     21  C   UNL     1       5.217   4.179  14.386  0.00  0.00    +0.000 C 
BRANCH  21  22
ATOM     22  C   UNL     1       6.579   3.837  13.751  0.00  0.00    +0.000 C 
BRANCH  22  23
ATOM     23  C   UNL     1       6.573   3.716  12.224  0.00  0.00    +0.000 C 
BRANCH  23  24
ATOM     24  C   UNL     1       5.503   2.698  11.801  0.00  0.00    +0.000 C 
BRANCH  24  25
ATOM     25  N   UNL     1       6.091   1.417  11.433  0.00  0.00    +0.000 NA
ATOM     26  H   UNL     1       6.532   0.991  12.245  0.00  0.00    +0.000 HD
ATOM     27  H   UNL     1       6.836   1.573  10.754  0.00  0.00    +0.000 HD
ENDBRANCH  24  25
ENDBRANCH  23  24
ENDBRANCH  22  23
ENDBRANCH  21  22
ENDBRANCH  15  21
ENDBRANCH  13  15
ENDBRANCH   1  13
BRANCH  10  28
ATOM     28  C   UNL     1       1.856   6.162  19.024  0.00  0.00    +0.000 C 
BRANCH  28  29
ATOM     29  C   UNL     1       2.726   7.215  18.340  0.00  0.00    +0.000 C 
ATOM     30  O   UNL     1       2.285   8.110  17.637  0.00  0.00    +0.000 OA
BRANCH  29  31
ATOM     31  O   UNL     1       4.062   6.996  18.465  0.00  0.00    +0.000 OA
ATOM     32  H   UNL     1       4.266   6.055  18.281  0.00  0.00    +0.000 HD
ENDBRANCH  29  31
ENDBRANCH  28  29
ENDBRANCH  10  28
TORSDOF 13
ENDMDL
MODEL 6
REMARK VINA RESULT:      -6.5      1.299      1.554
REMARK  Name = 
REMARK  14 active torsions:
REMARK  status: ('A' for Active; 'I' for Inactive)
REMARK    1  A    between atoms: C_1  and  C_2
REMARK    2  A    between atoms: C_2  and  O_3
REMARK    3  A    between atoms: O_3  and  C_4
REMARK    4  A    between atoms: C_4  and  C_6
REMARK    5  A    between atoms: C_6  and  C_7
REMARK    6  A    between atoms: C_6  and  N_12
REMARK    7  A    between atoms: C_7  and  C_8
REMARK    8  A    between atoms: C_8  and  C_9
REMARK    9  A    between atoms: C_9  and  C_10
REMARK   10  A    between atoms: C_10  and  N_11
REMARK   11  A    between atoms: N_12  and  C_13
REMARK   12  A    between atoms: N_22  and  C_23
REMARK   13  A    between atoms: C_23  and  C_24
REMARK   14  A    between atoms: C_24  and  O_26
REMARK                            x       y       z     vdW  Elec       q    Type
REMARK                         _______ _______ _______ _____ _____    ______ ____
ROOT
ATOM      1  C   UNL     1       4.021   3.978  16.405  0.00  0.00    +0.000 C 
ATOM      2  C   UNL     1       3.221   2.699  16.715  0.00  0.00    +0.000 C 
ATOM      3  C   UNL     1       3.509   2.019  18.058  0.00  0.00    +0.000 C 
ATOM      4  C   UNL     1       2.878   2.757  19.218  0.00  0.00    +0.000 A 
ATOM      5  C   UNL     1       1.875   2.144  19.986  0.00  0.00    +0.000 A 
ATOM      6  C   UNL     1       1.263   2.835  21.034  0.00  0.00    +0.000 A 
ATOM      7  C   UNL     1       1.651   4.134  21.338  0.00  0.00    +0.000 A 
ATOM      8  C   UNL     1       2.676   4.741  20.614  0.00  0.00    +0.000 A 
ATOM      9  C   UNL     1       3.289   4.056  19.556  0.00  0.00    +0.000 A 
ATOM     10  N   UNL     1       4.305   4.654  18.757  0.00  0.00    +0.000 N 
ATOM     11  C   UNL     1       3.840   5.061  17.497  0.00  0.00    +0.000 C 
ATOM     12  O   UNL     1       3.538   6.224  17.234  0.00  0.00    +0.000 OA
ENDROOT
BRANCH   1  13
ATOM     13  N   UNL     1       5.481   3.818  16.274  0.00  0.00    +0.000 NA
ATOM     14  H   UNL     1       5.942   4.499  16.892  0.00  0.00    +0.000 HD
BRANCH  13  15
ATOM     15  C   UNL     1       6.091   3.945  14.943  0.00  0.00    +0.000 C 
BRANCH  15  16
ATOM     16  C   UNL     1       7.143   5.074  15.083  0.00  0.00    +0.000 C 
ATOM     17  O   UNL     1       7.895   5.421  14.183  0.00  0.00    +0.000 OA
BRANCH  16  18
ATOM     18  O   UNL     1       7.103   5.598  16.337  0.00  0.00    +0.000 OA
BRANCH  18  20
ATOM     19  C   UNL     1       6.755   7.796  17.285  0.00  0.00    +0.000 C 
ATOM     20  C   UNL     1       7.673   6.908  16.464  0.00  0.00    +0.000 C 
ENDBRANCH  18  20
ENDBRANCH  16  18
ENDBRANCH  15  16
BRANCH  15  21
ATOM     21  C   UNL     1       5.125   4.307  13.791  0.00  0.00    +0.000 C 
BRANCH  21  22
ATOM     22  C   UNL     1       5.462   3.499  12.523  0.00  0.00    +0.000 C 
BRANCH  22  23
ATOM     23  C   UNL     1       4.253   3.048  11.698  0.00  0.00    +0.000 C 
BRANCH  23  24
ATOM     24  C   UNL     1       4.124   3.945  10.458  0.00  0.00    +0.000 C 
BRANCH  24  25
ATOM     25  N   UNL     1       2.939   3.619   9.675  0.00  0.00    +0.000 NA
ATOM     26  H   UNL     1       2.311   3.034  10.222  0.00  0.00    +0.000 HD
ATOM     27  H   UNL     1       3.216   3.059   8.868  0.00  0.00    +0.000 HD
ENDBRANCH  24  25
ENDBRANCH  23  24
ENDBRANCH  22  23
ENDBRANCH  21  22
ENDBRANCH  15  21
ENDBRANCH  13  15
ENDBRANCH   1  13
BRANCH  10  28
ATOM     28  C   UNL     1       5.258   5.563  19.399  0.00  0.00    +0.000 C 
BRANCH  28  29
ATOM     29  C   UNL     1       6.662   4.966  19.467  0.00  0.00    +0.000 C 
ATOM     30  O   UNL     1       7.536   5.364  20.221  0.00  0.00    +0.000 OA
BRANCH  29  31
ATOM     31  O   UNL     1       6.913   4.031  18.513  0.00  0.00    +0.000 OA
ATOM     32  H   UNL     1       7.879   3.888  18.428  0.00  0.00    +0.000 HD
ENDBRANCH  29  31
ENDBRANCH  28  29
ENDBRANCH  10  28
TORSDOF 13
ENDMDL
MODEL 7
REMARK VINA RESULT:      -6.5      2.358      3.679
REMARK  Name = 
REMARK  14 active torsions:
REMARK  status: ('A' for Active; 'I' for Inactive)
REMARK    1  A    between atoms: C_1  and  C_2
REMARK    2  A    between atoms: C_2  and  O_3
REMARK    3  A    between atoms: O_3  and  C_4
REMARK    4  A    between atoms: C_4  and  C_6
REMARK    5  A    between atoms: C_6  and  C_7
REMARK    6  A    between atoms: C_6  and  N_12
REMARK    7  A    between atoms: C_7  and  C_8
REMARK    8  A    between atoms: C_8  and  C_9
REMARK    9  A    between atoms: C_9  and  C_10
REMARK   10  A    between atoms: C_10  and  N_11
REMARK   11  A    between atoms: N_12  and  C_13
REMARK   12  A    between atoms: N_22  and  C_23
REMARK   13  A    between atoms: C_23  and  C_24
REMARK   14  A    between atoms: C_24  and  O_26
REMARK                            x       y       z     vdW  Elec       q    Type
REMARK                         _______ _______ _______ _____ _____    ______ ____
ROOT
ATOM      1  C   UNL     1       4.824   6.204  17.728  0.00  0.00    +0.000 C 
ATOM      2  C   UNL     1       4.273   7.608  17.420  0.00  0.00    +0.000 C 
ATOM      3  C   UNL     1       2.749   7.747  17.350  0.00  0.00    +0.000 C 
ATOM      4  C   UNL     1       2.111   7.742  18.722  0.00  0.00    +0.000 A 
ATOM      5  C   UNL     1       1.432   8.877  19.192  0.00  0.00    +0.000 A 
ATOM      6  C   UNL     1       0.875   8.891  20.472  0.00  0.00    +0.000 A 
ATOM      7  C   UNL     1       0.974   7.772  21.291  0.00  0.00    +0.000 A 
ATOM      8  C   UNL     1       1.606   6.622  20.823  0.00  0.00    +0.000 A 
ATOM      9  C   UNL     1       2.175   6.604  19.542  0.00  0.00    +0.000 A 
ATOM     10  N   UNL     1       2.872   5.469  19.041  0.00  0.00    +0.000 N 
ATOM     11  C   UNL     1       4.266   5.634  19.056  0.00  0.00    +0.000 C 
ATOM     12  O   UNL     1       4.991   5.166  19.933  0.00  0.00    +0.000 OA
ENDROOT
BRANCH   1  13
ATOM     13  N   UNL     1       4.543   5.159  16.726  0.00  0.00    +0.000 NA
ATOM     14  H   UNL     1       3.983   4.420  17.171  0.00  0.00    +0.000 HD
BRANCH  13  15
ATOM     15  C   UNL     1       5.672   4.509  16.046  0.00  0.00    +0.000 C 
BRANCH  15  16
ATOM     16  C   UNL     1       6.920   4.873  16.888  0.00  0.00    +0.000 C 
ATOM     17  O   UNL     1       7.437   4.120  17.702  0.00  0.00    +0.000 OA
BRANCH  16  18
ATOM     18  O   UNL     1       7.333   6.134  16.593  0.00  0.00    +0.000 OA
BRANCH  18  20
ATOM     19  C   UNL     1       7.774   8.360  17.429  0.00  0.00    +0.000 C 
ATOM     20  C   UNL     1       7.871   6.870  17.700  0.00  0.00    +0.000 C 
ENDBRANCH  18  20
ENDBRANCH  16  18
ENDBRANCH  15  16
BRANCH  15  21
ATOM     21  C   UNL     1       5.918   4.945  14.582  0.00  0.00    +0.000 C 
BRANCH  21  22
ATOM     22  C   UNL     1       6.597   3.816  13.784  0.00  0.00    +0.000 C 
BRANCH  22  23
ATOM     23  C   UNL     1       6.415   3.891  12.265  0.00  0.00    +0.000 C 
BRANCH  23  24
ATOM     24  C   UNL     1       5.333   2.890  11.835  0.00  0.00    +0.000 C 
BRANCH  24  25
ATOM     25  N   UNL     1       5.893   1.574  11.555  0.00  0.00    +0.000 NA
ATOM     26  H   UNL     1       6.909   1.618  11.574  0.00  0.00    +0.000 HD
ATOM     27  H   UNL     1       5.639   1.298  10.607  0.00  0.00    +0.000 HD
ENDBRANCH  24  25
ENDBRANCH  23  24
ENDBRANCH  22  23
ENDBRANCH  21  22
ENDBRANCH  15  21
ENDBRANCH  13  15
ENDBRANCH   1  13
BRANCH  10  28
ATOM     28  C   UNL     1       2.394   4.134  19.407  0.00  0.00    +0.000 C 
BRANCH  28  29
ATOM     29  C   UNL     1       2.077   3.282  18.179  0.00  0.00    +0.000 C 
ATOM     30  O   UNL     1       1.821   3.744  17.078  0.00  0.00    +0.000 OA
BRANCH  29  31
ATOM     31  O   UNL     1       1.966   1.953  18.440  0.00  0.00    +0.000 OA
ATOM     32  H   UNL     1       1.056   1.745  18.742  0.00  0.00    +0.000 HD
ENDBRANCH  29  31
ENDBRANCH  28  29
ENDBRANCH  10  28
TORSDOF 13
ENDMDL
MODEL 8
REMARK VINA RESULT:      -6.4      1.065      1.712
REMARK  Name = 
REMARK  14 active torsions:
REMARK  status: ('A' for Active; 'I' for Inactive)
REMARK    1  A    between atoms: C_1  and  C_2
REMARK    2  A    between atoms: C_2  and  O_3
REMARK    3  A    between atoms: O_3  and  C_4
REMARK    4  A    between atoms: C_4  and  C_6
REMARK    5  A    between atoms: C_6  and  C_7
REMARK    6  A    between atoms: C_6  and  N_12
REMARK    7  A    between atoms: C_7  and  C_8
REMARK    8  A    between atoms: C_8  and  C_9
REMARK    9  A    between atoms: C_9  and  C_10
REMARK   10  A    between atoms: C_10  and  N_11
REMARK   11  A    between atoms: N_12  and  C_13
REMARK   12  A    between atoms: N_22  and  C_23
REMARK   13  A    between atoms: C_23  and  C_24
REMARK   14  A    between atoms: C_24  and  O_26
REMARK                            x       y       z     vdW  Elec       q    Type
REMARK                         _______ _______ _______ _____ _____    ______ ____
ROOT
ATOM      1  C   UNL     1       4.133   3.881  16.325  0.00  0.00    +0.000 C 
ATOM      2  C   UNL     1       3.328   2.639  16.751  0.00  0.00    +0.000 C 
ATOM      3  C   UNL     1       3.631   2.071  18.142  0.00  0.00    +0.000 C 
ATOM      4  C   UNL     1       3.022   2.909  19.246  0.00  0.00    +0.000 A 
ATOM      5  C   UNL     1       2.026   2.371  20.076  0.00  0.00    +0.000 A 
ATOM      6  C   UNL     1       1.434   3.151  21.072  0.00  0.00    +0.000 A 
ATOM      7  C   UNL     1       1.837   4.468  21.261  0.00  0.00    +0.000 A 
ATOM      8  C   UNL     1       2.856   5.003  20.474  0.00  0.00    +0.000 A 
ATOM      9  C   UNL     1       3.448   4.228  19.468  0.00  0.00    +0.000 A 
ATOM     10  N   UNL     1       4.457   4.748  18.609  0.00  0.00    +0.000 N 
ATOM     11  C   UNL     1       3.976   5.053  17.326  0.00  0.00    +0.000 C 
ATOM     12  O   UNL     1       3.678   6.192  16.971  0.00  0.00    +0.000 OA
ENDROOT
BRANCH   1  13
ATOM     13  N   UNL     1       5.589   3.698  16.188  0.00  0.00    +0.000 NA
ATOM     14  H   UNL     1       6.064   4.398  16.773  0.00  0.00    +0.000 HD
BRANCH  13  15
ATOM     15  C   UNL     1       6.188   3.764  14.847  0.00  0.00    +0.000 C 
BRANCH  15  16
ATOM     16  C   UNL     1       6.887   5.144  14.780  0.00  0.00    +0.000 C 
ATOM     17  O   UNL     1       6.361   6.194  15.122  0.00  0.00    +0.000 OA
BRANCH  16  18
ATOM     18  O   UNL     1       8.145   5.008  14.282  0.00  0.00    +0.000 OA
BRANCH  18  20
ATOM     19  C   UNL     1       7.885   5.664  11.969  0.00  0.00    +0.000 C 
ATOM     20  C   UNL     1       8.521   5.991  13.308  0.00  0.00    +0.000 C 
ENDBRANCH  18  20
ENDBRANCH  16  18
ENDBRANCH  15  16
BRANCH  15  21
ATOM     21  C   UNL     1       5.200   3.649  13.662  0.00  0.00    +0.000 C 
BRANCH  21  22
ATOM     22  C   UNL     1       5.951   3.320  12.357  0.00  0.00    +0.000 C 
BRANCH  22  23
ATOM     23  C   UNL     1       5.359   2.170  11.538  0.00  0.00    +0.000 C 
BRANCH  23  24
ATOM     24  C   UNL     1       6.495   1.258  11.051  0.00  0.00    +0.000 C 
BRANCH  24  25
ATOM     25  N   UNL     1       6.200  -0.148  11.291  0.00  0.00    +0.000 NA
ATOM     26  H   UNL     1       6.169  -0.332  12.291  0.00  0.00    +0.000 HD
ATOM     27  H   UNL     1       6.961  -0.718  10.921  0.00  0.00    +0.000 HD
ENDBRANCH  24  25
ENDBRANCH  23  24
ENDBRANCH  22  23
ENDBRANCH  21  22
ENDBRANCH  15  21
ENDBRANCH  13  15
ENDBRANCH   1  13
BRANCH  10  28
ATOM     28  C   UNL     1       5.425   5.699  19.159  0.00  0.00    +0.000 C 
BRANCH  28  29
ATOM     29  C   UNL     1       6.794   5.058  19.381  0.00  0.00    +0.000 C 
ATOM     30  O   UNL     1       7.563   5.384  20.272  0.00  0.00    +0.000 OA
BRANCH  29  31
ATOM     31  O   UNL     1       7.155   4.175  18.413  0.00  0.00    +0.000 OA
ATOM     32  H   UNL     1       8.062   4.374  18.098  0.00  0.00    +0.000 HD
ENDBRANCH  29  31
ENDBRANCH  28  29
ENDBRANCH  10  28
TORSDOF 13
ENDMDL
MODEL 9
REMARK VINA RESULT:      -6.4      1.664      2.442
REMARK  Name = 
REMARK  14 active torsions:
REMARK  status: ('A' for Active; 'I' for Inactive)
REMARK    1  A    between atoms: C_1  and  C_2
REMARK    2  A    between atoms: C_2  and  O_3
REMARK    3  A    between atoms: O_3  and  C_4
REMARK    4  A    between atoms: C_4  and  C_6
REMARK    5  A    between atoms: C_6  and  C_7
REMARK    6  A    between atoms: C_6  and  N_12
REMARK    7  A    between atoms: C_7  and  C_8
REMARK    8  A    between atoms: C_8  and  C_9
REMARK    9  A    between atoms: C_9  and  C_10
REMARK   10  A    between atoms: C_10  and  N_11
REMARK   11  A    between atoms: N_12  and  C_13
REMARK   12  A    between atoms: N_22  and  C_23
REMARK   13  A    between atoms: C_23  and  C_24
REMARK   14  A    between atoms: C_24  and  O_26
REMARK                            x       y       z     vdW  Elec       q    Type
REMARK                         _______ _______ _______ _____ _____    ______ ____
ROOT
ATOM      1  C   UNL     1       3.656   3.810  16.957  0.00  0.00    +0.000 C 
ATOM      2  C   UNL     1       4.099   2.529  17.687  0.00  0.00    +0.000 C 
ATOM      3  C   UNL     1       4.606   2.699  19.124  0.00  0.00    +0.000 C 
ATOM      4  C   UNL     1       3.476   2.930  20.104  0.00  0.00    +0.000 A 
ATOM      5  C   UNL     1       3.213   1.992  21.115  0.00  0.00    +0.000 A 
ATOM      6  C   UNL     1       2.149   2.181  21.999  0.00  0.00    +0.000 A 
ATOM      7  C   UNL     1       1.345   3.310  21.895  0.00  0.00    +0.000 A 
ATOM      8  C   UNL     1       1.620   4.272  20.925  0.00  0.00    +0.000 A 
ATOM      9  C   UNL     1       2.682   4.085  20.030  0.00  0.00    +0.000 A 
ATOM     10  N   UNL     1       2.969   5.016  18.993  0.00  0.00    +0.000 N 
ATOM     11  C   UNL     1       2.550   4.572  17.729  0.00  0.00    +0.000 C 
ATOM     12  O   UNL     1       1.505   4.942  17.196  0.00  0.00    +0.000 OA
ENDROOT
BRANCH   1  13
ATOM     13  N   UNL     1       4.705   4.817  16.714  0.00  0.00    +0.000 NA
ATOM     14  H   UNL     1       4.269   5.651  16.298  0.00  0.00    +0.000 HD
BRANCH  13  15
ATOM     15  C   UNL     1       5.854   4.454  15.873  0.00  0.00    +0.000 C 
BRANCH  15  16
ATOM     16  C   UNL     1       7.097   4.980  16.633  0.00  0.00    +0.000 C 
ATOM     17  O   UNL     1       7.948   4.257  17.133  0.00  0.00    +0.000 OA
BRANCH  16  18
ATOM     18  O   UNL     1       7.087   6.339  16.663  0.00  0.00    +0.000 OA
BRANCH  18  20
ATOM     19  C   UNL     1       7.875   8.396  17.662  0.00  0.00    +0.000 C 
ATOM     20  C   UNL     1       7.584   6.922  17.876  0.00  0.00    +0.000 C 
ENDBRANCH  18  20
ENDBRANCH  16  18
ENDBRANCH  15  16
BRANCH  15  21
ATOM     21  C   UNL     1       5.859   5.047  14.444  0.00  0.00    +0.000 C 
BRANCH  21  22
ATOM     22  C   UNL     1       7.007   4.449  13.610  0.00  0.00    +0.000 C 
BRANCH  22  23
ATOM     23  C   UNL     1       6.605   3.930  12.226  0.00  0.00    +0.000 C 
BRANCH  23  24
ATOM     24  C   UNL     1       5.389   3.003  12.366  0.00  0.00    +0.000 C 
BRANCH  24  25
ATOM     25  N   UNL     1       4.356   3.313  11.386  0.00  0.00    +0.000 NA
ATOM     26  H   UNL     1       4.762   3.352  10.454  0.00  0.00    +0.000 HD
ATOM     27  H   UNL     1       3.986   4.245  11.574  0.00  0.00    +0.000 HD
ENDBRANCH  24  25
ENDBRANCH  23  24
ENDBRANCH  22  23
ENDBRANCH  21  22
ENDBRANCH  15  21
ENDBRANCH  13  15
ENDBRANCH   1  13
BRANCH  10  28
ATOM     28  C   UNL     1       2.767   6.443  19.256  0.00  0.00    +0.000 C 
BRANCH  28  29
ATOM     29  C   UNL     1       3.038   7.297  18.018  0.00  0.00    +0.000 C 
ATOM     30  O   UNL     1       4.143   7.445  17.521  0.00  0.00    +0.000 OA
BRANCH  29  31
ATOM     31  O   UNL     1       1.960   8.001  17.584  0.00  0.00    +0.000 OA
ATOM     32  H   UNL     1       2.253   8.779  17.065  0.00  0.00    +0.000 HD
ENDBRANCH  29  31
ENDBRANCH  28  29
ENDBRANCH  10  28
TORSDOF 13
ENDMDL
