MODEL 1
REMARK VINA RESULT:      -7.4      0.000      0.000
REMARK  Name = 
REMARK  3 active torsions:
REMARK  status: ('A' for Active; 'I' for Inactive)
REMARK    1  A    between atoms: N_1  and  S_2
REMARK    2  A    between atoms: S_2  and  C_5
REMARK    3  A    between atoms: S_12  and  C_13
REMARK                            x       y       z     vdW  Elec       q    Type
REMARK                         _______ _______ _______ _____ _____    ______ ____
ROOT
ATOM      1  C   UNL     1       3.785   3.778  19.074  0.00  0.00    +0.000 A 
ATOM      2  C   UNL     1       5.155   4.061  19.155  0.00  0.00    +0.000 A 
ATOM      3  C   UNL     1       5.728   4.761  18.101  0.00  0.00    +0.000 A 
ATOM      4  C   UNL     1       5.020   5.175  16.992  0.00  0.00    +0.000 A 
ATOM      5  C   UNL     1       3.663   4.887  16.912  0.00  0.00    +0.000 A 
ATOM      6  C   UNL     1       3.042   4.168  17.946  0.00  0.00    +0.000 A 
ATOM      7 CL   UNL     1       1.362   3.827  17.730  0.00  0.00    +0.000 Cl
ATOM      8  S   UNL     1       5.894   6.206  15.832  0.00  0.00    +0.000 S 
ATOM      9  N   UNL     1       7.358   5.838  16.409  0.00  0.00    +0.000 NA
ATOM     10  S   UNL     1       7.396   5.252  18.016  0.00  0.00    +0.000 S 
ATOM     11  O   UNL     1       8.192   4.047  18.080  0.00  0.00    +0.000 OA
ATOM     12  O   UNL     1       7.558   6.351  18.943  0.00  0.00    +0.000 OA
ENDROOT
BRANCH   8  13
ATOM     13  C   UNL     1       6.101   5.084  14.427  0.00  0.00    +0.000 A 
ATOM     14  C   UNL     1       5.152   4.158  13.980  0.00  0.00    +0.000 A 
ATOM     15  C   UNL     1       5.439   3.309  12.904  0.00  0.00    +0.000 A 
ATOM     16  C   UNL     1       6.677   3.378  12.271  0.00  0.00    +0.000 A 
ATOM     17 BR   UNL     1       7.080   2.189  10.859  0.00  0.00    +0.000 Br
ATOM     18  C   UNL     1       7.623   4.307  12.684  0.00  0.00    +0.000 A 
ATOM     19  C   UNL     1       7.331   5.160  13.751  0.00  0.00    +0.000 A 
ENDBRANCH   8  13
BRANCH   1  20
ATOM     20  S   UNL     1       3.008   2.968  20.437  0.00  0.00    +0.000 S 
ATOM     21  O   UNL     1       2.121   1.948  19.926  0.00  0.00    +0.000 OA
ATOM     22  O   UNL     1       2.567   3.961  21.385  0.00  0.00    +0.000 OA
BRANCH  20  23
ATOM     23  N   UNL     1       4.285   2.130  21.131  0.00  0.00    +0.000 NA
ATOM     24  H   UNL     1       4.108   1.970  22.124  0.00  0.00    +0.000 HD
ATOM     25  H   UNL     1       5.172   2.596  20.935  0.00  0.00    +0.000 HD
ENDBRANCH  20  23
ENDBRANCH   1  20
TORSDOF 3
ENDMDL
MODEL 2
REMARK VINA RESULT:      -7.0      8.827     10.084
REMARK  Name = 
REMARK  3 active torsions:
REMARK  status: ('A' for Active; 'I' for Inactive)
REMARK    1  A    between atoms: N_1  and  S_2
REMARK    2  A    between atoms: S_2  and  C_5
REMARK    3  A    between atoms: S_12  and  C_13
REMARK                            x       y       z     vdW  Elec       q    Type
REMARK                         _______ _______ _______ _____ _____    ______ ____
ROOT
ATOM      1  C   UNL     1      -3.310  11.370  18.241  0.00  0.00    +0.000 A 
ATOM      2  C   UNL     1      -2.644  11.922  19.343  0.00  0.00    +0.000 A 
ATOM      3  C   UNL     1      -1.277  11.698  19.444  0.00  0.00    +0.000 A 
ATOM      4  C   UNL     1      -0.560  10.960  18.526  0.00  0.00    +0.000 A 
ATOM      5  C   UNL     1      -1.224  10.408  17.438  0.00  0.00    +0.000 A 
ATOM      6  C   UNL     1      -2.609  10.594  17.300  0.00  0.00    +0.000 A 
ATOM      7 CL   UNL     1      -3.345   9.834  15.935  0.00  0.00    +0.000 Cl
ATOM      8  S   UNL     1       1.209  10.930  18.740  0.00  0.00    +0.000 S 
ATOM      9  N   UNL     1       1.165  11.473  20.260  0.00  0.00    +0.000 NA
ATOM     10  S   UNL     1      -0.252  12.324  20.705  0.00  0.00    +0.000 S 
ATOM     11  O   UNL     1      -0.762  11.808  21.956  0.00  0.00    +0.000 OA
ATOM     12  O   UNL     1      -0.085  13.738  20.447  0.00  0.00    +0.000 OA
ENDROOT
BRANCH   8  13
ATOM     13  C   UNL     1       1.483   9.229  19.292  0.00  0.00    +0.000 A 
ATOM     14  C   UNL     1       1.133   8.714  20.545  0.00  0.00    +0.000 A 
ATOM     15  C   UNL     1       1.433   7.387  20.878  0.00  0.00    +0.000 A 
ATOM     16  C   UNL     1       2.088   6.568  19.962  0.00  0.00    +0.000 A 
ATOM     17 BR   UNL     1       2.543   4.798  20.439  0.00  0.00    +0.000 Br
ATOM     18  C   UNL     1       2.422   7.053  18.704  0.00  0.00    +0.000 A 
ATOM     19  C   UNL     1       2.113   8.374  18.370  0.00  0.00    +0.000 A 
ENDBRANCH   8  13
BRANCH   1  20
ATOM     20  S   UNL     1      -5.030  11.711  18.035  0.00  0.00    +0.000 S 
ATOM     21  O   UNL     1      -5.788  10.585  18.531  0.00  0.00    +0.000 OA
ATOM     22  O   UNL     1      -5.247  12.260  16.719  0.00  0.00    +0.000 OA
BRANCH  20  23
ATOM     23  N   UNL     1      -5.288  12.938  19.150  0.00  0.00    +0.000 NA
ATOM     24  H   UNL     1      -6.276  13.193  19.176  0.00  0.00    +0.000 HD
ATOM     25  H   UNL     1      -4.658  13.723  18.976  0.00  0.00    +0.000 HD
ENDBRANCH  20  23
ENDBRANCH   1  20
TORSDOF 3
ENDMDL
MODEL 3
REMARK VINA RESULT:      -7.0      0.215      1.021
REMARK  Name = 
REMARK  3 active torsions:
REMARK  status: ('A' for Active; 'I' for Inactive)
REMARK    1  A    between atoms: N_1  and  S_2
REMARK    2  A    between atoms: S_2  and  C_5
REMARK    3  A    between atoms: S_12  and  C_13
REMARK                            x       y       z     vdW  Elec       q    Type
REMARK                         _______ _______ _______ _____ _____    ______ ____
ROOT
ATOM      1  C   UNL     1       3.795   3.868  19.056  0.00  0.00    +0.000 A 
ATOM      2  C   UNL     1       5.165   4.133  19.179  0.00  0.00    +0.000 A 
ATOM      3  C   UNL     1       5.781   4.818  18.140  0.00  0.00    +0.000 A 
ATOM      4  C   UNL     1       5.115   5.234  17.006  0.00  0.00    +0.000 A 
ATOM      5  C   UNL     1       3.758   4.964  16.884  0.00  0.00    +0.000 A 
ATOM      6  C   UNL     1       3.094   4.261  17.902  0.00  0.00    +0.000 A 
ATOM      7 CL   UNL     1       1.417   3.942  17.635  0.00  0.00    +0.000 Cl
ATOM      8  S   UNL     1       6.041   6.245  15.868  0.00  0.00    +0.000 S 
ATOM      9  N   UNL     1       7.479   5.861  16.494  0.00  0.00    +0.000 NA
ATOM     10  S   UNL     1       7.458   5.285  18.105  0.00  0.00    +0.000 S 
ATOM     11  O   UNL     1       8.235   4.069  18.202  0.00  0.00    +0.000 OA
ATOM     12  O   UNL     1       7.606   6.388  19.030  0.00  0.00    +0.000 OA
ENDROOT
BRANCH   8  13
ATOM     13  C   UNL     1       6.276   5.111  14.477  0.00  0.00    +0.000 A 
ATOM     14  C   UNL     1       7.383   5.092  13.622  0.00  0.00    +0.000 A 
ATOM     15  C   UNL     1       7.438   4.193  12.550  0.00  0.00    +0.000 A 
ATOM     16  C   UNL     1       6.386   3.309  12.325  0.00  0.00    +0.000 A 
ATOM     17 BR   UNL     1       6.439   2.140  10.842  0.00  0.00    +0.000 Br
ATOM     18  C   UNL     1       5.290   3.295  13.178  0.00  0.00    +0.000 A 
ATOM     19  C   UNL     1       5.242   4.186  14.253  0.00  0.00    +0.000 A 
ENDBRANCH   8  13
BRANCH   1  20
ATOM     20  S   UNL     1       2.963   3.078  20.398  0.00  0.00    +0.000 S 
ATOM     21  O   UNL     1       2.088   2.058  19.866  0.00  0.00    +0.000 OA
ATOM     22  O   UNL     1       2.495   4.084  21.319  0.00  0.00    +0.000 OA
BRANCH  20  23
ATOM     23  N   UNL     1       4.208   2.238  21.147  0.00  0.00    +0.000 NA
ATOM     24  H   UNL     1       4.965   2.875  21.399  0.00  0.00    +0.000 HD
ATOM     25  H   UNL     1       4.503   1.445  20.576  0.00  0.00    +0.000 HD
ENDBRANCH  20  23
ENDBRANCH   1  20
TORSDOF 3
ENDMDL
MODEL 4
REMARK VINA RESULT:      -6.8      9.543     10.785
REMARK  Name = 
REMARK  3 active torsions:
REMARK  status: ('A' for Active; 'I' for Inactive)
REMARK    1  A    between atoms: N_1  and  S_2
REMARK    2  A    between atoms: S_2  and  C_5
REMARK    3  A    between atoms: S_12  and  C_13
REMARK                            x       y       z     vdW  Elec       q    Type
REMARK                         _______ _______ _______ _____ _____    ______ ____
ROOT
ATOM      1  C   UNL     1      -4.078  11.797  18.480  0.00  0.00    +0.000 A 
ATOM      2  C   UNL     1      -3.493  12.250  19.671  0.00  0.00    +0.000 A 
ATOM      3  C   UNL     1      -2.107  12.234  19.750  0.00  0.00    +0.000 A 
ATOM      4  C   UNL     1      -1.293  11.790  18.728  0.00  0.00    +0.000 A 
ATOM      5  C   UNL     1      -1.877  11.336  17.552  0.00  0.00    +0.000 A 
ATOM      6  C   UNL     1      -3.275  11.319  17.429  0.00  0.00    +0.000 A 
ATOM      7 CL   UNL     1      -3.900  10.698  15.943  0.00  0.00    +0.000 Cl
ATOM      8  S   UNL     1       0.460  12.009  18.957  0.00  0.00    +0.000 S 
ATOM      9  N   UNL     1       0.351  12.265  20.548  0.00  0.00    +0.000 NA
ATOM     10  S   UNL     1      -1.177  12.788  21.114  0.00  0.00    +0.000 S 
ATOM     11  O   UNL     1      -1.580  11.989  22.250  0.00  0.00    +0.000 OA
ATOM     12  O   UNL     1      -1.242  14.234  21.107  0.00  0.00    +0.000 OA
ENDROOT
BRANCH   8  13
ATOM     13  C   UNL     1       1.012  10.303  19.210  0.00  0.00    +0.000 A 
ATOM     14  C   UNL     1       0.863   9.567  20.390  0.00  0.00    +0.000 A 
ATOM     15  C   UNL     1       1.367   8.264  20.484  0.00  0.00    +0.000 A 
ATOM     16  C   UNL     1       2.028   7.691  19.401  0.00  0.00    +0.000 A 
ATOM     17 BR   UNL     1       2.758   5.956  19.554  0.00  0.00    +0.000 Br
ATOM     18  C   UNL     1       2.164   8.397  18.212  0.00  0.00    +0.000 A 
ATOM     19  C   UNL     1       1.650   9.693  18.117  0.00  0.00    +0.000 A 
ENDBRANCH   8  13
BRANCH   1  20
ATOM     20  S   UNL     1      -5.833  11.888  18.313  0.00  0.00    +0.000 S 
ATOM     21  O   UNL     1      -6.374  10.549  18.365  0.00  0.00    +0.000 OA
ATOM     22  O   UNL     1      -6.157  12.804  17.247  0.00  0.00    +0.000 OA
BRANCH  20  23
ATOM     23  N   UNL     1      -6.294  12.603  19.760  0.00  0.00    +0.000 NA
ATOM     24  H   UNL     1      -7.294  12.470  19.919  0.00  0.00    +0.000 HD
ATOM     25  H   UNL     1      -5.992  13.578  19.793  0.00  0.00    +0.000 HD
ENDBRANCH  20  23
ENDBRANCH   1  20
TORSDOF 3
ENDMDL
MODEL 5
REMARK VINA RESULT:      -6.8      7.194      8.722
REMARK  Name = 
REMARK  3 active torsions:
REMARK  status: ('A' for Active; 'I' for Inactive)
REMARK    1  A    between atoms: N_1  and  S_2
REMARK    2  A    between atoms: S_2  and  C_5
REMARK    3  A    between atoms: S_12  and  C_13
REMARK                            x       y       z     vdW  Elec       q    Type
REMARK                         _______ _______ _______ _____ _____    ______ ____
ROOT
ATOM      1  C   UNL     1       2.551   6.939  19.443  0.00  0.00    +0.000 A 
ATOM      2  C   UNL     1       1.879   7.412  20.578  0.00  0.00    +0.000 A 
ATOM      3  C   UNL     1       1.230   8.636  20.475  0.00  0.00    +0.000 A 
ATOM      4  C   UNL     1       1.226   9.398  19.325  0.00  0.00    +0.000 A 
ATOM      5  C   UNL     1       1.899   8.929  18.204  0.00  0.00    +0.000 A 
ATOM      6  C   UNL     1       2.582   7.704  18.263  0.00  0.00    +0.000 A 
ATOM      7 CL   UNL     1       3.420   7.231  16.827  0.00  0.00    +0.000 Cl
ATOM      8  S   UNL     1       0.197  10.852  19.340  0.00  0.00    +0.000 S 
ATOM      9  N   UNL     1       0.030  10.876  20.946  0.00  0.00    +0.000 NA
ATOM     10  S   UNL     1       0.305   9.387  21.744  0.00  0.00    +0.000 S 
ATOM     11  O   UNL     1       1.205   9.586  22.859  0.00  0.00    +0.000 OA
ATOM     12  O   UNL     1      -0.933   8.646  21.856  0.00  0.00    +0.000 OA
ENDROOT
BRANCH   8  13
ATOM     13  C   UNL     1       1.431  12.175  19.388  0.00  0.00    +0.000 A 
ATOM     14  C   UNL     1       2.164  12.644  18.292  0.00  0.00    +0.000 A 
ATOM     15  C   UNL     1       3.126  13.647  18.457  0.00  0.00    +0.000 A 
ATOM     16  C   UNL     1       3.365  14.186  19.719  0.00  0.00    +0.000 A 
ATOM     17 BR   UNL     1       4.705  15.497  19.945  0.00  0.00    +0.000 Br
ATOM     18  C   UNL     1       2.631  13.751  20.815  0.00  0.00    +0.000 A 
ATOM     19  C   UNL     1       1.664  12.756  20.646  0.00  0.00    +0.000 A 
ENDBRANCH   8  13
BRANCH   1  20
ATOM     20  S   UNL     1       3.310   5.347  19.513  0.00  0.00    +0.000 S 
ATOM     21  O   UNL     1       4.742   5.519  19.613  0.00  0.00    +0.000 OA
ATOM     22  O   UNL     1       2.709   4.495  18.517  0.00  0.00    +0.000 OA
BRANCH  20  23
ATOM     23  N   UNL     1       2.831   4.787  21.021  0.00  0.00    +0.000 NA
ATOM     24  H   UNL     1       2.049   4.137  20.927  0.00  0.00    +0.000 HD
ATOM     25  H   UNL     1       2.652   5.568  21.655  0.00  0.00    +0.000 HD
ENDBRANCH  20  23
ENDBRANCH   1  20
TORSDOF 3
ENDMDL
MODEL 6
REMARK VINA RESULT:      -6.8      8.843     10.127
REMARK  Name = 
REMARK  3 active torsions:
REMARK  status: ('A' for Active; 'I' for Inactive)
REMARK    1  A    between atoms: N_1  and  S_2
REMARK    2  A    between atoms: S_2  and  C_5
REMARK    3  A    between atoms: S_12  and  C_13
REMARK                            x       y       z     vdW  Elec       q    Type
REMARK                         _______ _______ _______ _____ _____    ______ ____
ROOT
ATOM      1  C   UNL     1      -3.276  11.360  18.253  0.00  0.00    +0.000 A 
ATOM      2  C   UNL     1      -2.610  11.893  19.365  0.00  0.00    +0.000 A 
ATOM      3  C   UNL     1      -1.238  11.695  19.445  0.00  0.00    +0.000 A 
ATOM      4  C   UNL     1      -0.515  10.999  18.498  0.00  0.00    +0.000 A 
ATOM      5  C   UNL     1      -1.180  10.466  17.401  0.00  0.00    +0.000 A 
ATOM      6  C   UNL     1      -2.570  10.627  17.283  0.00  0.00    +0.000 A 
ATOM      7 CL   UNL     1      -3.306   9.893  15.903  0.00  0.00    +0.000 Cl
ATOM      8  S   UNL     1       1.256  11.000  18.692  0.00  0.00    +0.000 S 
ATOM      9  N   UNL     1       1.217  11.496  20.229  0.00  0.00    +0.000 NA
ATOM     10  S   UNL     1      -0.212  12.304  20.713  0.00  0.00    +0.000 S 
ATOM     11  O   UNL     1      -0.697  11.741  21.953  0.00  0.00    +0.000 OA
ATOM     12  O   UNL     1      -0.076  13.728  20.496  0.00  0.00    +0.000 OA
ENDROOT
BRANCH   8  13
ATOM     13  C   UNL     1       1.571   9.288  19.190  0.00  0.00    +0.000 A 
ATOM     14  C   UNL     1       2.197   8.315  18.404  0.00  0.00    +0.000 A 
ATOM     15  C   UNL     1       2.350   7.007  18.881  0.00  0.00    +0.000 A 
ATOM     16  C   UNL     1       1.875   6.663  20.144  0.00  0.00    +0.000 A 
ATOM     17 BR   UNL     1       2.032   4.883  20.757  0.00  0.00    +0.000 Br
ATOM     18  C   UNL     1       1.273   7.622  20.949  0.00  0.00    +0.000 A 
ATOM     19  C   UNL     1       1.131   8.929  20.476  0.00  0.00    +0.000 A 
ENDBRANCH   8  13
BRANCH   1  20
ATOM     20  S   UNL     1      -5.005  11.672  18.076  0.00  0.00    +0.000 S 
ATOM     21  O   UNL     1      -5.735  10.523  18.562  0.00  0.00    +0.000 OA
ATOM     22  O   UNL     1      -5.249  12.239  16.773  0.00  0.00    +0.000 OA
BRANCH  20  23
ATOM     23  N   UNL     1      -5.272  12.874  19.216  0.00  0.00    +0.000 NA
ATOM     24  H   UNL     1      -4.401  13.365  19.425  0.00  0.00    +0.000 HD
ATOM     25  H   UNL     1      -5.745  12.494  20.037  0.00  0.00    +0.000 HD
ENDBRANCH  20  23
ENDBRANCH   1  20
TORSDOF 3
ENDMDL
MODEL 7
REMARK VINA RESULT:      -6.8      7.209      8.721
REMARK  Name = 
REMARK  3 active torsions:
REMARK  status: ('A' for Active; 'I' for Inactive)
REMARK    1  A    between atoms: N_1  and  S_2
REMARK    2  A    between atoms: S_2  and  C_5
REMARK    3  A    between atoms: S_12  and  C_13
REMARK                            x       y       z     vdW  Elec       q    Type
REMARK                         _______ _______ _______ _____ _____    ______ ____
ROOT
ATOM      1  C   UNL     1       2.507   6.962  19.484  0.00  0.00    +0.000 A 
ATOM      2  C   UNL     1       1.833   7.414  20.627  0.00  0.00    +0.000 A 
ATOM      3  C   UNL     1       1.202   8.649  20.551  0.00  0.00    +0.000 A 
ATOM      4  C   UNL     1       1.216   9.441  19.422  0.00  0.00    +0.000 A 
ATOM      5  C   UNL     1       1.890   8.992  18.293  0.00  0.00    +0.000 A 
ATOM      6  C   UNL     1       2.556   7.757  18.325  0.00  0.00    +0.000 A 
ATOM      7 CL   UNL     1       3.397   7.310  16.883  0.00  0.00    +0.000 Cl
ATOM      8  S   UNL     1       0.206  10.908  19.468  0.00  0.00    +0.000 S 
ATOM      9  N   UNL     1       0.029  10.892  21.074  0.00  0.00    +0.000 NA
ATOM     10  S   UNL     1       0.278   9.379  21.834  0.00  0.00    +0.000 S 
ATOM     11  O   UNL     1       1.172   9.536  22.959  0.00  0.00    +0.000 OA
ATOM     12  O   UNL     1      -0.971   8.653  21.918  0.00  0.00    +0.000 OA
ENDROOT
BRANCH   8  13
ATOM     13  C   UNL     1       1.458  12.212  19.559  0.00  0.00    +0.000 A 
ATOM     14  C   UNL     1       1.861  12.872  20.726  0.00  0.00    +0.000 A 
ATOM     15  C   UNL     1       2.812  13.897  20.669  0.00  0.00    +0.000 A 
ATOM     16  C   UNL     1       3.364  14.272  19.447  0.00  0.00    +0.000 A 
ATOM     17 BR   UNL     1       4.603  15.696  19.371  0.00  0.00    +0.000 Br
ATOM     18  C   UNL     1       2.996  13.612  18.282  0.00  0.00    +0.000 A 
ATOM     19  C   UNL     1       2.054  12.582  18.342  0.00  0.00    +0.000 A 
ENDBRANCH   8  13
BRANCH   1  20
ATOM     20  S   UNL     1       3.243   5.358  19.517  0.00  0.00    +0.000 S 
ATOM     21  O   UNL     1       4.678   5.508  19.602  0.00  0.00    +0.000 OA
ATOM     22  O   UNL     1       2.618   4.532  18.514  0.00  0.00    +0.000 OA
BRANCH  20  23
ATOM     23  N   UNL     1       2.775   4.779  21.021  0.00  0.00    +0.000 NA
ATOM     24  H   UNL     1       2.236   5.487  21.522  0.00  0.00    +0.000 HD
ATOM     25  H   UNL     1       3.581   4.424  21.538  0.00  0.00    +0.000 HD
ENDBRANCH  20  23
ENDBRANCH   1  20
TORSDOF 3
ENDMDL
MODEL 8
REMARK VINA RESULT:      -6.7      9.594     10.854
REMARK  Name = 
REMARK  3 active torsions:
REMARK  status: ('A' for Active; 'I' for Inactive)
REMARK    1  A    between atoms: N_1  and  S_2
REMARK    2  A    between atoms: S_2  and  C_5
REMARK    3  A    between atoms: S_12  and  C_13
REMARK                            x       y       z     vdW  Elec       q    Type
REMARK                         _______ _______ _______ _____ _____    ______ ____
ROOT
ATOM      1  C   UNL     1      -4.105  11.786  18.491  0.00  0.00    +0.000 A 
ATOM      2  C   UNL     1      -3.512  12.219  19.684  0.00  0.00    +0.000 A 
ATOM      3  C   UNL     1      -2.125  12.259  19.733  0.00  0.00    +0.000 A 
ATOM      4  C   UNL     1      -1.318  11.889  18.677  0.00  0.00    +0.000 A 
ATOM      5  C   UNL     1      -1.909  11.454  17.498  0.00  0.00    +0.000 A 
ATOM      6  C   UNL     1      -3.308  11.382  17.405  0.00  0.00    +0.000 A 
ATOM      7 CL   UNL     1      -3.941  10.791  15.910  0.00  0.00    +0.000 Cl
ATOM      8  S   UNL     1       0.430  12.172  18.876  0.00  0.00    +0.000 S 
ATOM      9  N   UNL     1       0.348  12.365  20.478  0.00  0.00    +0.000 NA
ATOM     10  S   UNL     1      -1.187  12.801  21.096  0.00  0.00    +0.000 S 
ATOM     11  O   UNL     1      -1.529  11.945  22.209  0.00  0.00    +0.000 OA
ATOM     12  O   UNL     1      -1.313  14.242  21.145  0.00  0.00    +0.000 OA
ENDROOT
BRANCH   8  13
ATOM     13  C   UNL     1       1.058  10.484  19.052  0.00  0.00    +0.000 A 
ATOM     14  C   UNL     1       1.695   9.745  18.049  0.00  0.00    +0.000 A 
ATOM     15  C   UNL     1       2.103   8.427  18.288  0.00  0.00    +0.000 A 
ATOM     16  C   UNL     1       1.874   7.838  19.529  0.00  0.00    +0.000 A 
ATOM     17 BR   UNL     1       2.373   6.041  19.825  0.00  0.00    +0.000 Br
ATOM     18  C   UNL     1       1.265   8.564  20.545  0.00  0.00    +0.000 A 
ATOM     19  C   UNL     1       0.868   9.882  20.308  0.00  0.00    +0.000 A 
ENDBRANCH   8  13
BRANCH   1  20
ATOM     20  S   UNL     1      -5.866  11.809  18.365  0.00  0.00    +0.000 S 
ATOM     21  O   UNL     1      -6.350  10.448  18.392  0.00  0.00    +0.000 OA
ATOM     22  O   UNL     1      -6.252  12.740  17.334  0.00  0.00    +0.000 OA
BRANCH  20  23
ATOM     23  N   UNL     1      -6.322  12.465  19.842  0.00  0.00    +0.000 NA
ATOM     24  H   UNL     1      -7.331  12.618  19.866  0.00  0.00    +0.000 HD
ATOM     25  H   UNL     1      -5.768  13.296  20.054  0.00  0.00    +0.000 HD
ENDBRANCH  20  23
ENDBRANCH   1  20
TORSDOF 3
ENDMDL
MODEL 9
REMARK VINA RESULT:      -6.6      9.343     10.497
REMARK  Name = 
REMARK  3 active torsions:
REMARK  status: ('A' for Active; 'I' for Inactive)
REMARK    1  A    between atoms: N_1  and  S_2
REMARK    2  A    between atoms: S_2  and  C_5
REMARK    3  A    between atoms: S_12  and  C_13
REMARK                            x       y       z     vdW  Elec       q    Type
REMARK                         _______ _______ _______ _____ _____    ______ ____
ROOT
ATOM      1  C   UNL     1      -3.707  12.065  19.545  0.00  0.00    +0.000 A 
ATOM      2  C   UNL     1      -2.846  12.434  20.586  0.00  0.00    +0.000 A 
ATOM      3  C   UNL     1      -1.480  12.326  20.357  0.00  0.00    +0.000 A 
ATOM      4  C   UNL     1      -0.944  11.869  19.170  0.00  0.00    +0.000 A 
ATOM      5  C   UNL     1      -1.802  11.498  18.143  0.00  0.00    +0.000 A 
ATOM      6  C   UNL     1      -3.191  11.576  18.332  0.00  0.00    +0.000 A 
ATOM      7 CL   UNL     1      -4.169  11.054  17.006  0.00  0.00    +0.000 Cl
ATOM      8  S   UNL     1       0.828  11.965  19.011  0.00  0.00    +0.000 S 
ATOM      9  N   UNL     1       1.089  12.168  20.592  0.00  0.00    +0.000 NA
ATOM     10  S   UNL     1      -0.237  12.767  21.493  0.00  0.00    +0.000 S 
ATOM     11  O   UNL     1      -0.437  11.953  22.672  0.00  0.00    +0.000 OA
ATOM     12  O   UNL     1      -0.199  14.213  21.534  0.00  0.00    +0.000 OA
ENDROOT
BRANCH   8  13
ATOM     13  C   UNL     1       1.298  10.219  19.097  0.00  0.00    +0.000 A 
ATOM     14  C   UNL     1       1.125   9.384  20.207  0.00  0.00    +0.000 A 
ATOM     15  C   UNL     1       1.567   8.056  20.172  0.00  0.00    +0.000 A 
ATOM     16  C   UNL     1       2.188   7.555  19.031  0.00  0.00    +0.000 A 
ATOM     17 BR   UNL     1       2.834   5.781  19.012  0.00  0.00    +0.000 Br
ATOM     18  C   UNL     1       2.346   8.361  17.910  0.00  0.00    +0.000 A 
ATOM     19  C   UNL     1       1.895   9.683  17.943  0.00  0.00    +0.000 A 
ENDBRANCH   8  13
BRANCH   1  20
ATOM     20  S   UNL     1      -5.446  12.276  19.772  0.00  0.00    +0.000 S 
ATOM     21  O   UNL     1      -6.120  11.077  19.329  0.00  0.00    +0.000 OA
ATOM     22  O   UNL     1      -5.826  13.586  19.303  0.00  0.00    +0.000 OA
BRANCH  20  23
ATOM     23  N   UNL     1      -5.592  12.269  21.444  0.00  0.00    +0.000 NA
ATOM     24  H   UNL     1      -6.341  11.638  21.732  0.00  0.00    +0.000 HD
ATOM     25  H   UNL     1      -5.686  13.221  21.802  0.00  0.00    +0.000 HD
ENDBRANCH  20  23
ENDBRANCH   1  20
TORSDOF 3
ENDMDL
