MODEL 1
REMARK VINA RESULT:      -9.0      0.000      0.000
REMARK  Name = 
REMARK  6 active torsions:
REMARK  status: ('A' for Active; 'I' for Inactive)
REMARK    1  A    between atoms: N_1  and  C_2
REMARK    2  A    between atoms: N_9  and  C_10
REMARK    3  A    between atoms: C_13  and  N_14
REMARK    4  A    between atoms: C_15  and  C_17
REMARK    5  A    between atoms: C_17  and  C_18
REMARK    6  A    between atoms: C_21  and  C_22
REMARK                            x       y       z     vdW  Elec       q    Type
REMARK                         _______ _______ _______ _____ _____    ______ ____
ROOT
ATOM      1  C   UNL     1       2.645   7.145  18.931  0.00  0.00    +0.000 A 
ATOM      2  C   UNL     1       2.104   7.569  20.151  0.00  0.00    +0.000 A 
ATOM      3  C   UNL     1       1.294   8.712  20.217  0.00  0.00    +0.000 A 
ATOM      4  C   UNL     1       1.014   9.458  19.074  0.00  0.00    +0.000 A 
ATOM      5  C   UNL     1       1.495   8.995  17.845  0.00  0.00    +0.000 A 
ATOM      6  C   UNL     1       2.287   7.837  17.773  0.00  0.00    +0.000 A 
ENDROOT
BRANCH   1  14
ATOM      7  C   UNL     1       2.460   4.141  20.320  0.00  0.00    +0.000 A 
ATOM      8  N   UNL     1       2.710   2.895  20.766  0.00  0.00    +0.000 NA
ATOM      9  C   UNL     1       3.857   2.289  20.417  0.00  0.00    +0.000 A 
ATOM     10  N   UNL     1       4.823   2.777  19.641  0.00  0.00    +0.000 NA
ATOM     11  C   UNL     1       4.572   4.026  19.204  0.00  0.00    +0.000 A 
ATOM     12  C   UNL     1       5.350   4.809  18.371  0.00  0.00    +0.000 A 
ATOM     13  C   UNL     1       4.707   5.985  18.169  0.00  0.00    +0.000 A 
ATOM     14  N   UNL     1       3.539   6.031  18.889  0.00  0.00    +0.000 N 
ATOM     15  C   UNL     1       3.422   4.773  19.529  0.00  0.00    +0.000 A 
ATOM     16  C   UNL     1       5.509   6.916  17.366  0.00  0.00    +0.000 C 
ATOM     17  O   UNL     1       6.786   6.200  17.216  0.00  0.00    +0.000 OA
ATOM     18  C   UNL     1       6.633   4.819  17.688  0.00  0.00    +0.000 C 
BRANCH   7  19
ATOM     19  N   UNL     1       1.218   4.639  20.680  0.00  0.00    +0.000 N 
ATOM     20  H   UNL     1       0.882   4.135  21.494  0.00  0.00    +0.000 HD
ATOM     21  H   UNL     1       0.555   4.698  19.918  0.00  0.00    +0.000 HD
ENDBRANCH   7  19
ENDBRANCH   1  14
BRANCH   4  22
ATOM     22  N   UNL     1       0.264  10.657  19.085  0.00  0.00    +0.000 N 
ATOM     23  C   UNL     1      -1.072  10.802  18.740  0.00  0.00    +0.000 C 
ATOM     24  O   UNL     1      -1.841   9.898  18.415  0.00  0.00    +0.000 OA
ATOM     25  H   UNL     1       0.710  11.459  19.516  0.00  0.00    +0.000 HD
BRANCH  23  26
ATOM     26  C   UNL     1      -1.572  12.230  18.810  0.00  0.00    +0.000 C 
BRANCH  26  27
ATOM     27  C   UNL     1      -2.260  12.481  20.117  0.00  0.00    +0.000 A 
ATOM     28  C   UNL     1      -3.538  13.017  20.179  0.00  0.00    +0.000 A 
ATOM     29  C   UNL     1      -4.157  13.127  21.420  0.00  0.00    +0.000 A 
ATOM     30  C   UNL     1      -3.480  12.693  22.555  0.00  0.00    +0.000 A 
ATOM     31  N   UNL     1      -2.221  12.200  22.458  0.00  0.00    +0.000 NA
ATOM     32  N   UNL     1      -1.611  12.091  21.235  0.00  0.00    +0.000 NA
BRANCH  30  33
ATOM     33  C   UNL     1      -4.135  12.717  23.916  0.00  0.00    +0.000 C 
ATOM     34  F   UNL     1      -5.495  12.828  23.855  0.00  0.00    +0.000 F 
ATOM     35  F   UNL     1      -3.898  11.586  24.640  0.00  0.00    +0.000 F 
ATOM     36  F   UNL     1      -3.722  13.757  24.695  0.00  0.00    +0.000 F 
ENDBRANCH  30  33
ENDBRANCH  26  27
ENDBRANCH  23  26
ENDBRANCH   4  22
TORSDOF 6
ENDMDL
MODEL 2
REMARK VINA RESULT:      -9.0      2.089      3.133
REMARK  Name = 
REMARK  6 active torsions:
REMARK  status: ('A' for Active; 'I' for Inactive)
REMARK    1  A    between atoms: N_1  and  C_2
REMARK    2  A    between atoms: N_9  and  C_10
REMARK    3  A    between atoms: C_13  and  N_14
REMARK    4  A    between atoms: C_15  and  C_17
REMARK    5  A    between atoms: C_17  and  C_18
REMARK    6  A    between atoms: C_21  and  C_22
REMARK                            x       y       z     vdW  Elec       q    Type
REMARK                         _______ _______ _______ _____ _____    ______ ____
ROOT
ATOM      1  C   UNL     1       2.582   6.800  18.359  0.00  0.00    +0.000 A 
ATOM      2  C   UNL     1       2.291   6.932  19.723  0.00  0.00    +0.000 A 
ATOM      3  C   UNL     1       1.738   8.119  20.227  0.00  0.00    +0.000 A 
ATOM      4  C   UNL     1       1.471   9.198  19.386  0.00  0.00    +0.000 A 
ATOM      5  C   UNL     1       1.694   9.040  18.014  0.00  0.00    +0.000 A 
ATOM      6  C   UNL     1       2.227   7.845  17.504  0.00  0.00    +0.000 A 
ENDROOT
BRANCH   1  14
ATOM      7  C   UNL     1       5.512   6.366  16.871  0.00  0.00    +0.000 A 
ATOM      8  N   UNL     1       6.582   5.866  16.224  0.00  0.00    +0.000 NA
ATOM      9  C   UNL     1       6.634   4.552  15.955  0.00  0.00    +0.000 A 
ATOM     10  N   UNL     1       5.726   3.628  16.268  0.00  0.00    +0.000 NA
ATOM     11  C   UNL     1       4.654   4.133  16.908  0.00  0.00    +0.000 A 
ATOM     12  C   UNL     1       3.551   3.453  17.388  0.00  0.00    +0.000 A 
ATOM     13  C   UNL     1       2.727   4.347  17.986  0.00  0.00    +0.000 A 
ATOM     14  N   UNL     1       3.225   5.621  17.873  0.00  0.00    +0.000 N 
ATOM     15  C   UNL     1       4.474   5.497  17.216  0.00  0.00    +0.000 A 
ATOM     16  C   UNL     1       1.480   3.720  18.445  0.00  0.00    +0.000 C 
ATOM     17  O   UNL     1       1.597   2.347  17.929  0.00  0.00    +0.000 OA
ATOM     18  C   UNL     1       2.957   2.126  17.424  0.00  0.00    +0.000 C 
BRANCH   7  19
ATOM     19  N   UNL     1       5.598   7.718  17.161  0.00  0.00    +0.000 N 
ATOM     20  H   UNL     1       5.922   8.214  16.338  0.00  0.00    +0.000 HD
ATOM     21  H   UNL     1       6.106   7.931  18.010  0.00  0.00    +0.000 HD
ENDBRANCH   7  19
ENDBRANCH   1  14
BRANCH   4  22
ATOM     22  N   UNL     1       0.981  10.443  19.841  0.00  0.00    +0.000 N 
ATOM     23  C   UNL     1      -0.311  10.927  19.697  0.00  0.00    +0.000 C 
ATOM     24  O   UNL     1      -1.260  10.328  19.193  0.00  0.00    +0.000 OA
ATOM     25  H   UNL     1       1.598  10.972  20.448  0.00  0.00    +0.000 HD
BRANCH  23  26
ATOM     26  C   UNL     1      -0.508  12.323  20.253  0.00  0.00    +0.000 C 
BRANCH  26  27
ATOM     27  C   UNL     1      -1.637  12.340  21.236  0.00  0.00    +0.000 A 
ATOM     28  C   UNL     1      -1.502  11.815  22.513  0.00  0.00    +0.000 A 
ATOM     29  C   UNL     1      -2.556  11.956  23.410  0.00  0.00    +0.000 A 
ATOM     30  C   UNL     1      -3.707  12.622  23.001  0.00  0.00    +0.000 A 
ATOM     31  N   UNL     1      -3.813  13.098  21.737  0.00  0.00    +0.000 NA
ATOM     32  N   UNL     1      -2.774  12.960  20.853  0.00  0.00    +0.000 NA
BRANCH  30  33
ATOM     33  C   UNL     1      -4.849  12.872  23.957  0.00  0.00    +0.000 C 
ATOM     34  F   UNL     1      -4.964  14.184  24.325  0.00  0.00    +0.000 F 
ATOM     35  F   UNL     1      -6.064  12.538  23.435  0.00  0.00    +0.000 F 
ATOM     36  F   UNL     1      -4.738  12.178  25.126  0.00  0.00    +0.000 F 
ENDBRANCH  30  33
ENDBRANCH  26  27
ENDBRANCH  23  26
ENDBRANCH   4  22
TORSDOF 6
ENDMDL
MODEL 3
REMARK VINA RESULT:      -8.9      3.209      4.296
REMARK  Name = 
REMARK  6 active torsions:
REMARK  status: ('A' for Active; 'I' for Inactive)
REMARK    1  A    between atoms: N_1  and  C_2
REMARK    2  A    between atoms: N_9  and  C_10
REMARK    3  A    between atoms: C_13  and  N_14
REMARK    4  A    between atoms: C_15  and  C_17
REMARK    5  A    between atoms: C_17  and  C_18
REMARK    6  A    between atoms: C_21  and  C_22
REMARK                            x       y       z     vdW  Elec       q    Type
REMARK                         _______ _______ _______ _____ _____    ______ ____
ROOT
ATOM      1  C   UNL     1       2.936   6.805  18.260  0.00  0.00    +0.000 A 
ATOM      2  C   UNL     1       2.635   7.830  17.354  0.00  0.00    +0.000 A 
ATOM      3  C   UNL     1       1.903   8.955  17.761  0.00  0.00    +0.000 A 
ATOM      4  C   UNL     1       1.450   9.077  19.074  0.00  0.00    +0.000 A 
ATOM      5  C   UNL     1       1.812   8.089  19.995  0.00  0.00    +0.000 A 
ATOM      6  C   UNL     1       2.565   6.973  19.594  0.00  0.00    +0.000 A 
ENDROOT
BRANCH   1  14
ATOM      7  C   UNL     1       5.891   6.382  16.816  0.00  0.00    +0.000 A 
ATOM      8  N   UNL     1       6.976   5.884  16.195  0.00  0.00    +0.000 NA
ATOM      9  C   UNL     1       7.054   4.563  15.963  0.00  0.00    +0.000 A 
ATOM     10  N   UNL     1       6.159   3.633  16.291  0.00  0.00    +0.000 NA
ATOM     11  C   UNL     1       5.071   4.136  16.905  0.00  0.00    +0.000 A 
ATOM     12  C   UNL     1       3.974   3.450  17.391  0.00  0.00    +0.000 A 
ATOM     13  C   UNL     1       3.127   4.346  17.955  0.00  0.00    +0.000 A 
ATOM     14  N   UNL     1       3.605   5.625  17.812  0.00  0.00    +0.000 N 
ATOM     15  C   UNL     1       4.863   5.505  17.173  0.00  0.00    +0.000 A 
ATOM     16  C   UNL     1       1.887   3.710  18.417  0.00  0.00    +0.000 C 
ATOM     17  O   UNL     1       2.033   2.325  17.940  0.00  0.00    +0.000 OA
ATOM     18  C   UNL     1       3.403   2.115  17.456  0.00  0.00    +0.000 C 
BRANCH   7  19
ATOM     19  N   UNL     1       5.949   7.742  17.070  0.00  0.00    +0.000 N 
ATOM     20  H   UNL     1       6.723   7.929  17.701  0.00  0.00    +0.000 HD
ATOM     21  H   UNL     1       5.068   8.153  17.351  0.00  0.00    +0.000 HD
ENDBRANCH   7  19
ENDBRANCH   1  14
BRANCH   4  22
ATOM     22  N   UNL     1       0.650  10.150  19.530  0.00  0.00    +0.000 N 
ATOM     23  C   UNL     1       0.958  11.500  19.464  0.00  0.00    +0.000 C 
ATOM     24  O   UNL     1       1.962  11.993  18.949  0.00  0.00    +0.000 OA
ATOM     25  H   UNL     1      -0.297   9.914  19.807  0.00  0.00    +0.000 HD
BRANCH  23  26
ATOM     26  C   UNL     1      -0.090  12.401  20.086  0.00  0.00    +0.000 C 
BRANCH  26  27
ATOM     27  C   UNL     1      -1.434  12.133  19.482  0.00  0.00    +0.000 A 
ATOM     28  C   UNL     1      -2.610  12.434  20.154  0.00  0.00    +0.000 A 
ATOM     29  C   UNL     1      -3.822  12.256  19.494  0.00  0.00    +0.000 A 
ATOM     30  C   UNL     1      -3.816  11.788  18.184  0.00  0.00    +0.000 A 
ATOM     31  N   UNL     1      -2.649  11.479  17.570  0.00  0.00    +0.000 NA
ATOM     32  N   UNL     1      -1.454  11.655  18.219  0.00  0.00    +0.000 NA
BRANCH  30  33
ATOM     33  C   UNL     1      -5.097  11.651  17.396  0.00  0.00    +0.000 C 
ATOM     34  F   UNL     1      -4.906  11.131  16.146  0.00  0.00    +0.000 F 
ATOM     35  F   UNL     1      -6.004  10.825  17.992  0.00  0.00    +0.000 F 
ATOM     36  F   UNL     1      -5.740  12.837  17.199  0.00  0.00    +0.000 F 
ENDBRANCH  30  33
ENDBRANCH  26  27
ENDBRANCH  23  26
ENDBRANCH   4  22
TORSDOF 6
ENDMDL
MODEL 4
REMARK VINA RESULT:      -8.9      7.817     11.453
REMARK  Name = 
REMARK  6 active torsions:
REMARK  status: ('A' for Active; 'I' for Inactive)
REMARK    1  A    between atoms: N_1  and  C_2
REMARK    2  A    between atoms: N_9  and  C_10
REMARK    3  A    between atoms: C_13  and  N_14
REMARK    4  A    between atoms: C_15  and  C_17
REMARK    5  A    between atoms: C_17  and  C_18
REMARK    6  A    between atoms: C_21  and  C_22
REMARK                            x       y       z     vdW  Elec       q    Type
REMARK                         _______ _______ _______ _____ _____    ______ ____
ROOT
ATOM      1  C   UNL     1       9.068  12.275  18.362  0.00  0.00    +0.000 A 
ATOM      2  C   UNL     1       9.738  11.606  19.394  0.00  0.00    +0.000 A 
ATOM      3  C   UNL     1       9.578  10.224  19.574  0.00  0.00    +0.000 A 
ATOM      4  C   UNL     1       8.745   9.484  18.737  0.00  0.00    +0.000 A 
ATOM      5  C   UNL     1       8.132  10.139  17.664  0.00  0.00    +0.000 A 
ATOM      6  C   UNL     1       8.308  11.519  17.468  0.00  0.00    +0.000 A 
ENDROOT
BRANCH   1  14
ATOM      7  C   UNL     1      11.531  14.207  17.271  0.00  0.00    +0.000 A 
ATOM      8  N   UNL     1      12.325  15.245  16.948  0.00  0.00    +0.000 NA
ATOM      9  C   UNL     1      11.869  16.498  17.108  0.00  0.00    +0.000 A 
ATOM     10  N   UNL     1      10.671  16.869  17.556  0.00  0.00    +0.000 NA
ATOM     11  C   UNL     1       9.883  15.828  17.887  0.00  0.00    +0.000 A 
ATOM     12  C   UNL     1       8.584  15.860  18.360  0.00  0.00    +0.000 A 
ATOM     13  C   UNL     1       8.164  14.584  18.536  0.00  0.00    +0.000 A 
ATOM     14  N   UNL     1       9.168  13.695  18.242  0.00  0.00    +0.000 N 
ATOM     15  C   UNL     1      10.263  14.473  17.793  0.00  0.00    +0.000 A 
ATOM     16  C   UNL     1       6.821  14.527  19.127  0.00  0.00    +0.000 C 
ATOM     17  O   UNL     1       6.530  15.942  19.411  0.00  0.00    +0.000 OA
ATOM     18  C   UNL     1       7.547  16.789  18.777  0.00  0.00    +0.000 C 
BRANCH   7  19
ATOM     19  N   UNL     1      12.074  12.963  16.997  0.00  0.00    +0.000 N 
ATOM     20  H   UNL     1      12.157  12.851  15.992  0.00  0.00    +0.000 HD
ATOM     21  H   UNL     1      11.616  12.194  17.471  0.00  0.00    +0.000 HD
ENDBRANCH   7  19
ENDBRANCH   1  14
BRANCH   4  22
ATOM     22  N   UNL     1       8.487   8.105  18.909  0.00  0.00    +0.000 N 
ATOM     23  C   UNL     1       7.859   7.260  18.005  0.00  0.00    +0.000 C 
ATOM     24  O   UNL     1       7.467   7.563  16.879  0.00  0.00    +0.000 OA
ATOM     25  H   UNL     1       8.925   7.665  19.711  0.00  0.00    +0.000 HD
BRANCH  23  26
ATOM     26  C   UNL     1       7.689   5.841  18.507  0.00  0.00    +0.000 C 
BRANCH  26  27
ATOM     27  C   UNL     1       6.287   5.368  18.275  0.00  0.00    +0.000 A 
ATOM     28  C   UNL     1       5.893   4.817  17.064  0.00  0.00    +0.000 A 
ATOM     29  C   UNL     1       4.605   4.304  16.951  0.00  0.00    +0.000 A 
ATOM     30  C   UNL     1       3.757   4.355  18.052  0.00  0.00    +0.000 A 
ATOM     31  N   UNL     1       4.169   4.926  19.211  0.00  0.00    +0.000 NA
ATOM     32  N   UNL     1       5.439   5.431  19.323  0.00  0.00    +0.000 NA
BRANCH  30  33
ATOM     33  C   UNL     1       2.377   3.743  18.009  0.00  0.00    +0.000 C 
ATOM     34  F   UNL     1       2.358   2.500  17.440  0.00  0.00    +0.000 F 
ATOM     35  F   UNL     1       1.828   3.580  19.246  0.00  0.00    +0.000 F 
ATOM     36  F   UNL     1       1.481   4.480  17.293  0.00  0.00    +0.000 F 
ENDBRANCH  30  33
ENDBRANCH  26  27
ENDBRANCH  23  26
ENDBRANCH   4  22
TORSDOF 6
ENDMDL
MODEL 5
REMARK VINA RESULT:      -8.8      5.352     10.479
REMARK  Name = 
REMARK  6 active torsions:
REMARK  status: ('A' for Active; 'I' for Inactive)
REMARK    1  A    between atoms: N_1  and  C_2
REMARK    2  A    between atoms: N_9  and  C_10
REMARK    3  A    between atoms: C_13  and  N_14
REMARK    4  A    between atoms: C_15  and  C_17
REMARK    5  A    between atoms: C_17  and  C_18
REMARK    6  A    between atoms: C_21  and  C_22
REMARK                            x       y       z     vdW  Elec       q    Type
REMARK                         _______ _______ _______ _____ _____    ______ ____
ROOT
ATOM      1  C   UNL     1       0.532   9.754  19.501  0.00  0.00    +0.000 A 
ATOM      2  C   UNL     1       0.644   9.100  20.735  0.00  0.00    +0.000 A 
ATOM      3  C   UNL     1       1.450   7.960  20.871  0.00  0.00    +0.000 A 
ATOM      4  C   UNL     1       2.154   7.446  19.783  0.00  0.00    +0.000 A 
ATOM      5  C   UNL     1       2.098   8.140  18.570  0.00  0.00    +0.000 A 
ATOM      6  C   UNL     1       1.310   9.295  18.437  0.00  0.00    +0.000 A 
ENDROOT
BRANCH   1  14
ATOM      7  C   UNL     1       0.799  12.919  20.450  0.00  0.00    +0.000 A 
ATOM      8  N   UNL     1       0.576  14.217  20.732  0.00  0.00    +0.000 NA
ATOM      9  C   UNL     1      -0.585  14.780  20.363  0.00  0.00    +0.000 A 
ATOM     10  N   UNL     1      -1.592  14.199  19.713  0.00  0.00    +0.000 NA
ATOM     11  C   UNL     1      -1.369  12.900  19.441  0.00  0.00    +0.000 A 
ATOM     12  C   UNL     1      -2.192  12.017  18.766  0.00  0.00    +0.000 A 
ATOM     13  C   UNL     1      -1.564  10.819  18.695  0.00  0.00    +0.000 A 
ATOM     14  N   UNL     1      -0.360  10.860  19.353  0.00  0.00    +0.000 N 
ATOM     15  C   UNL     1      -0.205  12.193  19.806  0.00  0.00    +0.000 A 
ATOM     16  C   UNL     1      -2.411   9.793  18.073  0.00  0.00    +0.000 C 
ATOM     17  O   UNL     1      -3.692  10.495  17.891  0.00  0.00    +0.000 OA
ATOM     18  C   UNL     1      -3.510  11.926  18.159  0.00  0.00    +0.000 C 
BRANCH   7  19
ATOM     19  N   UNL     1       2.057  12.463  20.810  0.00  0.00    +0.000 N 
ATOM     20  H   UNL     1       2.753  12.913  20.225  0.00  0.00    +0.000 HD
ATOM     21  H   UNL     1       2.136  11.455  20.860  0.00  0.00    +0.000 HD
ENDBRANCH   7  19
ENDBRANCH   1  14
BRANCH   4  22
ATOM     22  N   UNL     1       2.926   6.263  19.838  0.00  0.00    +0.000 N 
ATOM     23  C   UNL     1       2.509   5.022  20.293  0.00  0.00    +0.000 C 
ATOM     24  O   UNL     1       1.377   4.731  20.679  0.00  0.00    +0.000 OA
ATOM     25  H   UNL     1       3.827   6.296  19.373  0.00  0.00    +0.000 HD
BRANCH  23  26
ATOM     26  C   UNL     1       3.593   3.963  20.269  0.00  0.00    +0.000 C 
BRANCH  26  27
ATOM     27  C   UNL     1       4.297   3.964  18.947  0.00  0.00    +0.000 A 
ATOM     28  C   UNL     1       3.652   3.596  17.776  0.00  0.00    +0.000 A 
ATOM     29  C   UNL     1       4.334   3.719  16.570  0.00  0.00    +0.000 A 
ATOM     30  C   UNL     1       5.635   4.209  16.576  0.00  0.00    +0.000 A 
ATOM     31  N   UNL     1       6.242   4.533  17.744  0.00  0.00    +0.000 NA
ATOM     32  N   UNL     1       5.570   4.413  18.933  0.00  0.00    +0.000 NA
BRANCH  30  33
ATOM     33  C   UNL     1       6.394   4.437  15.290  0.00  0.00    +0.000 C 
ATOM     34  F   UNL     1       7.740   4.576  15.477  0.00  0.00    +0.000 F 
ATOM     35  F   UNL     1       6.259   3.408  14.404  0.00  0.00    +0.000 F 
ATOM     36  F   UNL     1       6.004   5.561  14.624  0.00  0.00    +0.000 F 
ENDBRANCH  30  33
ENDBRANCH  26  27
ENDBRANCH  23  26
ENDBRANCH   4  22
TORSDOF 6
ENDMDL
MODEL 6
REMARK VINA RESULT:      -8.8      2.633      3.132
REMARK  Name = 
REMARK  6 active torsions:
REMARK  status: ('A' for Active; 'I' for Inactive)
REMARK    1  A    between atoms: N_1  and  C_2
REMARK    2  A    between atoms: N_9  and  C_10
REMARK    3  A    between atoms: C_13  and  N_14
REMARK    4  A    between atoms: C_15  and  C_17
REMARK    5  A    between atoms: C_17  and  C_18
REMARK    6  A    between atoms: C_21  and  C_22
REMARK                            x       y       z     vdW  Elec       q    Type
REMARK                         _______ _______ _______ _____ _____    ______ ____
ROOT
ATOM      1  C   UNL     1       2.608   6.937  18.711  0.00  0.00    +0.000 A 
ATOM      2  C   UNL     1       2.213   7.943  17.819  0.00  0.00    +0.000 A 
ATOM      3  C   UNL     1       1.460   9.039  18.263  0.00  0.00    +0.000 A 
ATOM      4  C   UNL     1       1.078   9.152  19.599  0.00  0.00    +0.000 A 
ATOM      5  C   UNL     1       1.532   8.185  20.502  0.00  0.00    +0.000 A 
ATOM      6  C   UNL     1       2.306   7.099  20.064  0.00  0.00    +0.000 A 
ENDROOT
BRANCH   1  14
ATOM      7  C   UNL     1       2.066   3.704  19.204  0.00  0.00    +0.000 A 
ATOM      8  N   UNL     1       2.150   2.360  19.240  0.00  0.00    +0.000 NA
ATOM      9  C   UNL     1       3.143   1.746  18.577  0.00  0.00    +0.000 A 
ATOM     10  N   UNL     1       4.098   2.317  17.844  0.00  0.00    +0.000 NA
ATOM     11  C   UNL     1       4.015   3.661  17.818  0.00  0.00    +0.000 A 
ATOM     12  C   UNL     1       4.827   4.551  17.141  0.00  0.00    +0.000 A 
ATOM     13  C   UNL     1       4.369   5.805  17.372  0.00  0.00    +0.000 A 
ATOM     14  N   UNL     1       3.299   5.783  18.232  0.00  0.00    +0.000 N 
ATOM     15  C   UNL     1       3.039   4.416  18.499  0.00  0.00    +0.000 A 
ATOM     16  C   UNL     1       5.234   6.824  16.763  0.00  0.00    +0.000 C 
ATOM     17  O   UNL     1       6.355   6.028  16.239  0.00  0.00    +0.000 OA
ATOM     18  C   UNL     1       6.024   4.600  16.317  0.00  0.00    +0.000 C 
BRANCH   7  19
ATOM     19  N   UNL     1       0.963   4.226  19.860  0.00  0.00    +0.000 N 
ATOM     20  H   UNL     1       0.996   3.950  20.836  0.00  0.00    +0.000 HD
ATOM     21  H   UNL     1       0.080   4.045  19.401  0.00  0.00    +0.000 HD
ENDBRANCH   7  19
ENDBRANCH   1  14
BRANCH   4  22
ATOM     22  N   UNL     1       0.261  10.194  20.095  0.00  0.00    +0.000 N 
ATOM     23  C   UNL     1       0.564  11.547  20.115  0.00  0.00    +0.000 C 
ATOM     24  O   UNL     1       1.578  12.071  19.655  0.00  0.00    +0.000 OA
ATOM     25  H   UNL     1      -0.692   9.939  20.333  0.00  0.00    +0.000 HD
BRANCH  23  26
ATOM     26  C   UNL     1      -0.504  12.406  20.759  0.00  0.00    +0.000 C 
BRANCH  26  27
ATOM     27  C   UNL     1      -1.817  12.219  20.064  0.00  0.00    +0.000 A 
ATOM     28  C   UNL     1      -3.016  12.595  20.652  0.00  0.00    +0.000 A 
ATOM     29  C   UNL     1      -4.188  12.488  19.910  0.00  0.00    +0.000 A 
ATOM     30  C   UNL     1      -4.121  12.013  18.605  0.00  0.00    +0.000 A 
ATOM     31  N   UNL     1      -2.935  11.628  18.074  0.00  0.00    +0.000 NA
ATOM     32  N   UNL     1      -1.779  11.734  18.804  0.00  0.00    +0.000 NA
BRANCH  30  33
ATOM     33  C   UNL     1      -5.350  11.950  17.730  0.00  0.00    +0.000 C 
ATOM     34  F   UNL     1      -5.076  11.566  16.446  0.00  0.00    +0.000 F 
ATOM     35  F   UNL     1      -6.279  11.059  18.180  0.00  0.00    +0.000 F 
ATOM     36  F   UNL     1      -5.996  13.145  17.618  0.00  0.00    +0.000 F 
ENDBRANCH  30  33
ENDBRANCH  26  27
ENDBRANCH  23  26
ENDBRANCH   4  22
TORSDOF 6
ENDMDL
MODEL 7
REMARK VINA RESULT:      -8.8      0.737      1.071
REMARK  Name = 
REMARK  6 active torsions:
REMARK  status: ('A' for Active; 'I' for Inactive)
REMARK    1  A    between atoms: N_1  and  C_2
REMARK    2  A    between atoms: N_9  and  C_10
REMARK    3  A    between atoms: C_13  and  N_14
REMARK    4  A    between atoms: C_15  and  C_17
REMARK    5  A    between atoms: C_17  and  C_18
REMARK    6  A    between atoms: C_21  and  C_22
REMARK                            x       y       z     vdW  Elec       q    Type
REMARK                         _______ _______ _______ _____ _____    ______ ____
ROOT
ATOM      1  C   UNL     1       2.638   7.161  18.982  0.00  0.00    +0.000 A 
ATOM      2  C   UNL     1       2.097   7.481  20.234  0.00  0.00    +0.000 A 
ATOM      3  C   UNL     1       1.284   8.613  20.395  0.00  0.00    +0.000 A 
ATOM      4  C   UNL     1       1.001   9.450  19.317  0.00  0.00    +0.000 A 
ATOM      5  C   UNL     1       1.483   9.091  18.054  0.00  0.00    +0.000 A 
ATOM      6  C   UNL     1       2.278   7.946  17.886  0.00  0.00    +0.000 A 
ENDROOT
BRANCH   1  14
ATOM      7  C   UNL     1       2.545   4.102  20.258  0.00  0.00    +0.000 A 
ATOM      8  N   UNL     1       2.826   2.842  20.640  0.00  0.00    +0.000 NA
ATOM      9  C   UNL     1       3.955   2.259  20.206  0.00  0.00    +0.000 A 
ATOM     10  N   UNL     1       4.876   2.786  19.400  0.00  0.00    +0.000 NA
ATOM     11  C   UNL     1       4.595   4.049  19.028  0.00  0.00    +0.000 A 
ATOM     12  C   UNL     1       5.323   4.871  18.187  0.00  0.00    +0.000 A 
ATOM     13  C   UNL     1       4.663   6.048  18.067  0.00  0.00    +0.000 A 
ATOM     14  N   UNL     1       3.535   6.057  18.849  0.00  0.00    +0.000 N 
ATOM     15  C   UNL     1       3.459   4.774  19.443  0.00  0.00    +0.000 A 
ATOM     16  C   UNL     1       5.417   7.017  17.261  0.00  0.00    +0.000 C 
ATOM     17  O   UNL     1       6.688   6.318  17.014  0.00  0.00    +0.000 OA
ATOM     18  C   UNL     1       6.568   4.917  17.438  0.00  0.00    +0.000 C 
BRANCH   7  19
ATOM     19  N   UNL     1       1.321   4.577  20.703  0.00  0.00    +0.000 N 
ATOM     20  H   UNL     1       0.970   5.260  20.040  0.00  0.00    +0.000 HD
ATOM     21  H   UNL     1       1.318   4.884  21.667  0.00  0.00    +0.000 HD
ENDBRANCH   7  19
ENDBRANCH   1  14
BRANCH   4  22
ATOM     22  N   UNL     1       0.248  10.642  19.427  0.00  0.00    +0.000 N 
ATOM     23  C   UNL     1      -1.062  10.836  19.014  0.00  0.00    +0.000 C 
ATOM     24  O   UNL     1      -1.804   9.983  18.528  0.00  0.00    +0.000 OA
ATOM     25  H   UNL     1       0.662  11.382  19.984  0.00  0.00    +0.000 HD
BRANCH  23  26
ATOM     26  C   UNL     1      -1.571  12.247  19.228  0.00  0.00    +0.000 C 
BRANCH  26  27
ATOM     27  C   UNL     1      -2.260  12.360  20.553  0.00  0.00    +0.000 A 
ATOM     28  C   UNL     1      -1.572  12.220  21.749  0.00  0.00    +0.000 A 
ATOM     29  C   UNL     1      -2.252  12.439  22.942  0.00  0.00    +0.000 A 
ATOM     30  C   UNL     1      -3.596  12.795  22.899  0.00  0.00    +0.000 A 
ATOM     31  N   UNL     1      -4.242  12.895  21.712  0.00  0.00    +0.000 NA
ATOM     32  N   UNL     1      -3.571  12.680  20.535  0.00  0.00    +0.000 NA
BRANCH  30  33
ATOM     33  C   UNL     1      -4.362  13.120  24.159  0.00  0.00    +0.000 C 
ATOM     34  F   UNL     1      -4.564  12.032  24.961  0.00  0.00    +0.000 F 
ATOM     35  F   UNL     1      -3.726  14.034  24.947  0.00  0.00    +0.000 F 
ATOM     36  F   UNL     1      -5.604  13.628  23.920  0.00  0.00    +0.000 F 
ENDBRANCH  30  33
ENDBRANCH  26  27
ENDBRANCH  23  26
ENDBRANCH   4  22
TORSDOF 6
ENDMDL
MODEL 8
REMARK VINA RESULT:      -8.8      2.415      2.826
REMARK  Name = 
REMARK  6 active torsions:
REMARK  status: ('A' for Active; 'I' for Inactive)
REMARK    1  A    between atoms: N_1  and  C_2
REMARK    2  A    between atoms: N_9  and  C_10
REMARK    3  A    between atoms: C_13  and  N_14
REMARK    4  A    between atoms: C_15  and  C_17
REMARK    5  A    between atoms: C_17  and  C_18
REMARK    6  A    between atoms: C_21  and  C_22
REMARK                            x       y       z     vdW  Elec       q    Type
REMARK                         _______ _______ _______ _____ _____    ______ ____
ROOT
ATOM      1  C   UNL     1       2.697   7.109  18.925  0.00  0.00    +0.000 A 
ATOM      2  C   UNL     1       2.218   7.584  20.152  0.00  0.00    +0.000 A 
ATOM      3  C   UNL     1       1.449   8.756  20.217  0.00  0.00    +0.000 A 
ATOM      4  C   UNL     1       1.150   9.481  19.065  0.00  0.00    +0.000 A 
ATOM      5  C   UNL     1       1.568   8.968  17.832  0.00  0.00    +0.000 A 
ATOM      6  C   UNL     1       2.318   7.783  17.762  0.00  0.00    +0.000 A 
ENDROOT
BRANCH   1  14
ATOM      7  C   UNL     1       2.403   4.108  20.302  0.00  0.00    +0.000 A 
ATOM      8  N   UNL     1       2.608   2.853  20.743  0.00  0.00    +0.000 NA
ATOM      9  C   UNL     1       3.733   2.208  20.394  0.00  0.00    +0.000 A 
ATOM     10  N   UNL     1       4.717   2.665  19.622  0.00  0.00    +0.000 NA
ATOM     11  C   UNL     1       4.512   3.924  19.189  0.00  0.00    +0.000 A 
ATOM     12  C   UNL     1       5.318   4.682  18.361  0.00  0.00    +0.000 A 
ATOM     13  C   UNL     1       4.718   5.880  18.162  0.00  0.00    +0.000 A 
ATOM     14  N   UNL     1       3.551   5.965  18.881  0.00  0.00    +0.000 N 
ATOM     15  C   UNL     1       3.388   4.710  19.515  0.00  0.00    +0.000 A 
ATOM     16  C   UNL     1       5.555   6.786  17.365  0.00  0.00    +0.000 C 
ATOM     17  O   UNL     1       6.806   6.025  17.215  0.00  0.00    +0.000 OA
ATOM     18  C   UNL     1       6.603   4.649  17.681  0.00  0.00    +0.000 C 
BRANCH   7  19
ATOM     19  N   UNL     1       1.179   4.649  20.661  0.00  0.00    +0.000 N 
ATOM     20  H   UNL     1       0.639   3.947  21.156  0.00  0.00    +0.000 HD
ATOM     21  H   UNL     1       0.685   5.104  19.904  0.00  0.00    +0.000 HD
ENDBRANCH   7  19
ENDBRANCH   1  14
BRANCH   4  22
ATOM     22  N   UNL     1       0.441  10.704  19.071  0.00  0.00    +0.000 N 
ATOM     23  C   UNL     1       0.960  11.963  18.810  0.00  0.00    +0.000 C 
ATOM     24  O   UNL     1       2.118  12.219  18.479  0.00  0.00    +0.000 OA
ATOM     25  H   UNL     1      -0.569  10.635  19.139  0.00  0.00    +0.000 HD
BRANCH  23  26
ATOM     26  C   UNL     1      -0.050  13.084  18.945  0.00  0.00    +0.000 C 
BRANCH  26  27
ATOM     27  C   UNL     1      -1.445  12.542  18.876  0.00  0.00    +0.000 A 
ATOM     28  C   UNL     1      -2.345  12.707  19.919  0.00  0.00    +0.000 A 
ATOM     29  C   UNL     1      -3.654  12.269  19.747  0.00  0.00    +0.000 A 
ATOM     30  C   UNL     1      -4.020  11.687  18.538  0.00  0.00    +0.000 A 
ATOM     31  N   UNL     1      -3.106  11.519  17.552  0.00  0.00    +0.000 NA
ATOM     32  N   UNL     1      -1.815  11.950  17.720  0.00  0.00    +0.000 NA
BRANCH  30  33
ATOM     33  C   UNL     1      -5.446  11.267  18.270  0.00  0.00    +0.000 C 
ATOM     34  F   UNL     1      -5.820  11.437  16.967  0.00  0.00    +0.000 F 
ATOM     35  F   UNL     1      -5.671   9.949  18.539  0.00  0.00    +0.000 F 
ATOM     36  F   UNL     1      -6.361  11.963  19.002  0.00  0.00    +0.000 F 
ENDBRANCH  30  33
ENDBRANCH  26  27
ENDBRANCH  23  26
ENDBRANCH   4  22
TORSDOF 6
ENDMDL
MODEL 9
REMARK VINA RESULT:      -8.7      2.296      2.734
REMARK  Name = 
REMARK  6 active torsions:
REMARK  status: ('A' for Active; 'I' for Inactive)
REMARK    1  A    between atoms: N_1  and  C_2
REMARK    2  A    between atoms: N_9  and  C_10
REMARK    3  A    between atoms: C_13  and  N_14
REMARK    4  A    between atoms: C_15  and  C_17
REMARK    5  A    between atoms: C_17  and  C_18
REMARK    6  A    between atoms: C_21  and  C_22
REMARK                            x       y       z     vdW  Elec       q    Type
REMARK                         _______ _______ _______ _____ _____    ______ ____
ROOT
ATOM      1  C   UNL     1       2.727   7.080  18.882  0.00  0.00    +0.000 A 
ATOM      2  C   UNL     1       2.206   7.551  20.094  0.00  0.00    +0.000 A 
ATOM      3  C   UNL     1       1.404   8.701  20.131  0.00  0.00    +0.000 A 
ATOM      4  C   UNL     1       1.113   9.409  18.966  0.00  0.00    +0.000 A 
ATOM      5  C   UNL     1       1.573   8.899  17.748  0.00  0.00    +0.000 A 
ATOM      6  C   UNL     1       2.357   7.734  17.706  0.00  0.00    +0.000 A 
ENDROOT
BRANCH   1  14
ATOM      7  C   UNL     1       2.488   4.087  20.287  0.00  0.00    +0.000 A 
ATOM      8  N   UNL     1       2.719   2.842  20.746  0.00  0.00    +0.000 NA
ATOM      9  C   UNL     1       3.868   2.226  20.426  0.00  0.00    +0.000 A 
ATOM     10  N   UNL     1       4.855   2.701  19.669  0.00  0.00    +0.000 NA
ATOM     11  C   UNL     1       4.624   3.949  19.218  0.00  0.00    +0.000 A 
ATOM     12  C   UNL     1       5.425   4.721  18.398  0.00  0.00    +0.000 A 
ATOM     13  C   UNL     1       4.796   5.900  18.174  0.00  0.00    +0.000 A 
ATOM     14  N   UNL     1       3.613   5.960  18.868  0.00  0.00    +0.000 N 
ATOM     15  C   UNL     1       3.472   4.707  19.513  0.00  0.00    +0.000 A 
ATOM     16  C   UNL     1       5.624   6.820  17.384  0.00  0.00    +0.000 C 
ATOM     17  O   UNL     1       6.898   6.093  17.266  0.00  0.00    +0.000 OA
ATOM     18  C   UNL     1       6.724   4.716  17.744  0.00  0.00    +0.000 C 
BRANCH   7  19
ATOM     19  N   UNL     1       1.243   4.597  20.615  0.00  0.00    +0.000 N 
ATOM     20  H   UNL     1       0.565   3.841  20.620  0.00  0.00    +0.000 HD
ATOM     21  H   UNL     1       0.967   5.407  20.074  0.00  0.00    +0.000 HD
ENDBRANCH   7  19
ENDBRANCH   1  14
BRANCH   4  22
ATOM     22  N   UNL     1       0.371  10.612  18.945  0.00  0.00    +0.000 N 
ATOM     23  C   UNL     1      -0.563  11.026  19.883  0.00  0.00    +0.000 C 
ATOM     24  O   UNL     1      -0.862  10.436  20.921  0.00  0.00    +0.000 OA
ATOM     25  H   UNL     1       0.648  11.296  18.249  0.00  0.00    +0.000 HD
BRANCH  23  26
ATOM     26  C   UNL     1      -1.224  12.348  19.550  0.00  0.00    +0.000 C 
BRANCH  26  27
ATOM     27  C   UNL     1      -2.665  12.139  19.201  0.00  0.00    +0.000 A 
ATOM     28  C   UNL     1      -3.049  11.410  18.085  0.00  0.00    +0.000 A 
ATOM     29  C   UNL     1      -4.403  11.167  17.877  0.00  0.00    +0.000 A 
ATOM     30  C   UNL     1      -5.326  11.657  18.795  0.00  0.00    +0.000 A 
ATOM     31  N   UNL     1      -4.916  12.388  19.860  0.00  0.00    +0.000 NA
ATOM     32  N   UNL     1      -3.581  12.627  20.065  0.00  0.00    +0.000 NA
BRANCH  30  33
ATOM     33  C   UNL     1      -6.800  11.356  18.661  0.00  0.00    +0.000 C 
ATOM     34  F   UNL     1      -7.399  12.044  17.643  0.00  0.00    +0.000 F 
ATOM     35  F   UNL     1      -7.054  10.041  18.402  0.00  0.00    +0.000 F 
ATOM     36  F   UNL     1      -7.519  11.666  19.777  0.00  0.00    +0.000 F 
ENDBRANCH  30  33
ENDBRANCH  26  27
ENDBRANCH  23  26
ENDBRANCH   4  22
TORSDOF 6
ENDMDL
