MODEL 1
REMARK VINA RESULT:      -9.3      0.000      0.000
REMARK  Name = 
REMARK  5 active torsions:
REMARK  status: ('A' for Active; 'I' for Inactive)
REMARK    1  A    between atoms: C_2  and  O_3
REMARK    2  A    between atoms: C_2  and  C_4
REMARK    3  A    between atoms: C_8  and  N_9
REMARK    4  A    between atoms: N_9  and  C_10
REMARK    5  A    between atoms: C_12  and  C_13
REMARK                            x       y       z     vdW  Elec       q    Type
REMARK                         _______ _______ _______ _____ _____    ______ ____
ROOT
ATOM      1  C   UNL     1       2.052   8.255  18.720  0.00  0.00    +0.000 A 
ATOM      2  N   UNL     1       2.061   8.574  18.360  0.00  0.00    +0.000 NA
ATOM      3  C   UNL     1       1.000   9.773  19.571  0.00  0.00    +0.000 A 
ATOM      4  N   UNL     1       0.504  10.348  20.118  0.00  0.00    +0.000 NA
ATOM      5  C   UNL     1      -0.471  11.447  21.233  0.00  0.00    +0.000 A 
ATOM      6  C   UNL     1      -0.352  10.322  22.356  0.00  0.00    +0.000 A 
ATOM      7  C   UNL     1      -1.155  10.581  23.150  0.00  0.00    +0.000 A 
ATOM      8  C   UNL     1      -1.682  11.818  23.186  0.00  0.00    +0.000 A 
ATOM      9  C   UNL     1      -1.492  12.639  21.979  0.00  0.00    +0.000 A 
ATOM     10  C   UNL     1      -0.474  11.526  21.140  0.00  0.00    +0.000 A 
ENDROOT
BRANCH   3  11
ATOM     11  C   UNL     1       1.071   8.374  21.101  0.00  0.00    +0.000 C 
ATOM     12  F   UNL     1       1.712   9.014  22.208  0.00  0.00    +0.000 F 
ATOM     13  F   UNL     1      -0.263   8.053  21.414  0.00  0.00    +0.000 F 
ATOM     14  F   UNL     1       1.713   7.280  20.964  0.00  0.00    +0.000 F 
ENDBRANCH   3  11
BRANCH   1  15
ATOM     15  N   UNL     1       3.048   6.967  17.763  0.00  0.00    +0.000 N 
ATOM     16  H   UNL     1       2.069   6.549  17.222  0.00  0.00    +0.000 HD
BRANCH  15  21
ATOM     17  C   UNL     1       5.662   4.739  18.199  0.00  0.00    +0.000 A 
ATOM     18  C   UNL     1       6.459   4.833  17.061  0.00  0.00    +0.000 A 
ATOM     19  C   UNL     1       6.091   5.903  16.216  0.00  0.00    +0.000 A 
ATOM     20  C   UNL     1       4.922   6.535  16.282  0.00  0.00    +0.000 A 
ATOM     21  C   UNL     1       4.179   6.319  17.412  0.00  0.00    +0.000 A 
ATOM     22  C   UNL     1       4.550   5.395  18.316  0.00  0.00    +0.000 A 
BRANCH  17  24
ATOM     23  O   UNL     1       5.156   3.119  19.706  0.00  0.00    +0.000 OA
ATOM     24  C   UNL     1       5.715   4.505  19.114  0.00  0.00    +0.000 C 
BRANCH  24  25
ATOM     25  O   UNL     1       7.442   5.355  20.135  0.00  0.00    +0.000 OA
ATOM     26  H   UNL     1       7.953   5.355  19.613  0.00  0.00    +0.000 HD
ENDBRANCH  24  25
ENDBRANCH  17  24
ENDBRANCH  15  21
ENDBRANCH   1  15
TORSDOF 5
ENDMDL
MODEL 2
REMARK VINA RESULT:      -9.3      1.538      1.859
REMARK  Name = 
REMARK  5 active torsions:
REMARK  status: ('A' for Active; 'I' for Inactive)
REMARK    1  A    between atoms: C_2  and  O_3
REMARK    2  A    between atoms: C_2  and  C_4
REMARK    3  A    between atoms: C_8  and  N_9
REMARK    4  A    between atoms: N_9  and  C_10
REMARK    5  A    between atoms: C_12  and  C_13
REMARK                            x       y       z     vdW  Elec       q    Type
REMARK                         _______ _______ _______ _____ _____    ______ ____
ROOT
ATOM      1  C   UNL     1       1.870   8.252  18.961  0.00  0.00    +0.000 A 
ATOM      2  N   UNL     1       1.941   8.565  18.603  0.00  0.00    +0.000 NA
ATOM      3  C   UNL     1       0.956   9.892  19.742  0.00  0.00    +0.000 A 
ATOM      4  N   UNL     1       0.499  10.527  20.256  0.00  0.00    +0.000 NA
ATOM      5  C   UNL     1      -0.407  11.744  21.304  0.00  0.00    +0.000 A 
ATOM      6  C   UNL     1      -0.501  10.621  22.431  0.00  0.00    +0.000 A 
ATOM      7  C   UNL     1      -1.319  10.981  23.169  0.00  0.00    +0.000 A 
ATOM      8  C   UNL     1      -1.692  12.273  23.172  0.00  0.00    +0.000 A 
ATOM      9  C   UNL     1      -1.323  13.057  21.982  0.00  0.00    +0.000 A 
ATOM     10  C   UNL     1      -0.394  11.823  21.211  0.00  0.00    +0.000 A 
ENDROOT
BRANCH   3  11
ATOM     11  C   UNL     1       0.754   8.506  21.272  0.00  0.00    +0.000 C 
ATOM     12  F   UNL     1       1.353   9.089  22.431  0.00  0.00    +0.000 F 
ATOM     13  F   UNL     1      -0.628   8.318  21.463  0.00  0.00    +0.000 F 
ATOM     14  F   UNL     1       1.295   7.353  21.191  0.00  0.00    +0.000 F 
ENDBRANCH   3  11
BRANCH   1  15
ATOM     15  N   UNL     1       2.763   6.846  18.071  0.00  0.00    +0.000 N 
ATOM     16  H   UNL     1       3.326   7.607  17.343  0.00  0.00    +0.000 HD
BRANCH  15  21
ATOM     17  C   UNL     1       4.827   4.195  17.236  0.00  0.00    +0.000 A 
ATOM     18  C   UNL     1       4.035   3.049  17.265  0.00  0.00    +0.000 A 
ATOM     19  C   UNL     1       2.660   3.334  17.414  0.00  0.00    +0.000 A 
ATOM     20  C   UNL     1       2.182   4.501  17.835  0.00  0.00    +0.000 A 
ATOM     21  C   UNL     1       3.062   5.551  17.837  0.00  0.00    +0.000 A 
ATOM     22  C   UNL     1       4.368   5.358  17.579  0.00  0.00    +0.000 A 
BRANCH  17  24
ATOM     23  O   UNL     1       5.624   5.819  15.865  0.00  0.00    +0.000 OA
ATOM     24  C   UNL     1       5.612   4.534  16.830  0.00  0.00    +0.000 C 
BRANCH  24  25
ATOM     25  O   UNL     1       7.416   4.202  18.005  0.00  0.00    +0.000 OA
ATOM     26  H   UNL     1       7.810   4.802  17.866  0.00  0.00    +0.000 HD
ENDBRANCH  24  25
ENDBRANCH  17  24
ENDBRANCH  15  21
ENDBRANCH   1  15
TORSDOF 5
ENDMDL
MODEL 3
REMARK VINA RESULT:      -9.3      1.909      2.475
REMARK  Name = 
REMARK  5 active torsions:
REMARK  status: ('A' for Active; 'I' for Inactive)
REMARK    1  A    between atoms: C_2  and  O_3
REMARK    2  A    between atoms: C_2  and  C_4
REMARK    3  A    between atoms: C_8  and  N_9
REMARK    4  A    between atoms: N_9  and  C_10
REMARK    5  A    between atoms: C_12  and  C_13
REMARK                            x       y       z     vdW  Elec       q    Type
REMARK                         _______ _______ _______ _____ _____    ______ ____
ROOT
ATOM      1  C   UNL     1       1.915   8.262  18.965  0.00  0.00    +0.000 A 
ATOM      2  N   UNL     1       1.966   8.568  18.599  0.00  0.00    +0.000 NA
ATOM      3  C   UNL     1       0.939   9.877  19.722  0.00  0.00    +0.000 A 
ATOM      4  N   UNL     1       0.462  10.503  20.229  0.00  0.00    +0.000 NA
ATOM      5  C   UNL     1      -0.483  11.702  21.263  0.00  0.00    +0.000 A 
ATOM      6  C   UNL     1      -0.507  10.604  22.418  0.00  0.00    +0.000 A 
ATOM      7  C   UNL     1      -1.328  10.944  23.161  0.00  0.00    +0.000 A 
ATOM      8  C   UNL     1      -1.761  12.218  23.140  0.00  0.00    +0.000 A 
ATOM      9  C   UNL     1      -1.447  12.988  21.925  0.00  0.00    +0.000 A 
ATOM     10  C   UNL     1      -0.475  11.779  21.168  0.00  0.00    +0.000 A 
ENDROOT
BRANCH   3  11
ATOM     11  C   UNL     1       0.825   8.521  21.288  0.00  0.00    +0.000 C 
ATOM     12  F   UNL     1       1.419   9.157  22.422  0.00  0.00    +0.000 F 
ATOM     13  F   UNL     1      -0.543   8.278  21.510  0.00  0.00    +0.000 F 
ATOM     14  F   UNL     1       1.416   7.391  21.224  0.00  0.00    +0.000 F 
ENDBRANCH   3  11
BRANCH   1  15
ATOM     15  N   UNL     1       2.858   6.876  18.094  0.00  0.00    +0.000 N 
ATOM     16  H   UNL     1       3.501   7.656  17.458  0.00  0.00    +0.000 HD
BRANCH  15  21
ATOM     17  C   UNL     1       2.378   3.450  18.218  0.00  0.00    +0.000 A 
ATOM     18  C   UNL     1       3.431   2.875  17.509  0.00  0.00    +0.000 A 
ATOM     19  C   UNL     1       4.430   3.806  17.155  0.00  0.00    +0.000 A 
ATOM     20  C   UNL     1       4.257   5.125  17.163  0.00  0.00    +0.000 A 
ATOM     21  C   UNL     1       3.151   5.586  17.825  0.00  0.00    +0.000 A 
ATOM     22  C   UNL     1       2.222   4.735  18.296  0.00  0.00    +0.000 A 
BRANCH  17  24
ATOM     23  O   UNL     1       1.336   4.310  20.041  0.00  0.00    +0.000 OA
ATOM     24  C   UNL     1       1.766   3.251  18.911  0.00  0.00    +0.000 C 
BRANCH  24  25
ATOM     25  O   UNL     1       0.256   1.784  18.350  0.00  0.00    +0.000 OA
ATOM     26  H   UNL     1      -0.362   2.086  18.600  0.00  0.00    +0.000 HD
ENDBRANCH  24  25
ENDBRANCH  17  24
ENDBRANCH  15  21
ENDBRANCH   1  15
TORSDOF 5
ENDMDL
MODEL 4
REMARK VINA RESULT:      -9.1      1.901      2.518
REMARK  Name = 
REMARK  5 active torsions:
REMARK  status: ('A' for Active; 'I' for Inactive)
REMARK    1  A    between atoms: C_2  and  O_3
REMARK    2  A    between atoms: C_2  and  C_4
REMARK    3  A    between atoms: C_8  and  N_9
REMARK    4  A    between atoms: N_9  and  C_10
REMARK    5  A    between atoms: C_12  and  C_13
REMARK                            x       y       z     vdW  Elec       q    Type
REMARK                         _______ _______ _______ _____ _____    ______ ____
ROOT
ATOM      1  C   UNL     1       2.593   7.154  18.815  0.00  0.00    +0.000 A 
ATOM      2  N   UNL     1       2.641   6.819  19.157  0.00  0.00    +0.000 NA
ATOM      3  C   UNL     1       1.497   8.011  20.299  0.00  0.00    +0.000 A 
ATOM      4  N   UNL     1       0.966   8.551  20.849  0.00  0.00    +0.000 NA
ATOM      5  C   UNL     1      -0.084   9.648  21.895  0.00  0.00    +0.000 A 
ATOM      6  C   UNL     1      -0.211  10.628  20.645  0.00  0.00    +0.000 A 
ATOM      7  C   UNL     1      -0.595  11.635  21.070  0.00  0.00    +0.000 A 
ATOM      8  C   UNL     1      -1.169  11.670  22.286  0.00  0.00    +0.000 A 
ATOM      9  C   UNL     1      -0.921  10.507  23.154  0.00  0.00    +0.000 A 
ATOM     10  C   UNL     1      -0.068   9.566  21.984  0.00  0.00    +0.000 A 
ENDROOT
BRANCH   3  11
ATOM     11  C   UNL     1       1.278   9.371  18.748  0.00  0.00    +0.000 C 
ATOM     12  F   UNL     1      -0.128   9.534  18.546  0.00  0.00    +0.000 F 
ATOM     13  F   UNL     1       1.863  10.575  19.184  0.00  0.00    +0.000 F 
ATOM     14  F   UNL     1       1.730   9.119  17.582  0.00  0.00    +0.000 F 
ENDBRANCH   3  11
BRANCH   1  15
ATOM     15  N   UNL     1       3.643   6.201  17.567  0.00  0.00    +0.000 N 
ATOM     16  H   UNL     1       2.775   6.235  16.747  0.00  0.00    +0.000 HD
BRANCH  15  21
ATOM     17  C   UNL     1       7.047   5.606  17.354  0.00  0.00    +0.000 A 
ATOM     18  C   UNL     1       7.206   4.502  16.520  0.00  0.00    +0.000 A 
ATOM     19  C   UNL     1       6.007   4.114  15.884  0.00  0.00    +0.000 A 
ATOM     20  C   UNL     1       4.796   4.499  16.278  0.00  0.00    +0.000 A 
ATOM     21  C   UNL     1       4.750   5.548  17.157  0.00  0.00    +0.000 A 
ATOM     22  C   UNL     1       5.876   6.042  17.702  0.00  0.00    +0.000 A 
BRANCH  17  24
ATOM     23  O   UNL     1       7.127   7.869  17.193  0.00  0.00    +0.000 OA
ATOM     24  C   UNL     1       7.511   6.377  17.649  0.00  0.00    +0.000 C 
BRANCH  24  25
ATOM     25  O   UNL     1       8.360   6.175  19.645  0.00  0.00    +0.000 OA
ATOM     26  H   UNL     1       8.083   6.753  19.996  0.00  0.00    +0.000 HD
ENDBRANCH  24  25
ENDBRANCH  17  24
ENDBRANCH  15  21
ENDBRANCH   1  15
TORSDOF 5
ENDMDL
MODEL 5
REMARK VINA RESULT:      -9.0      1.653      2.123
REMARK  Name = 
REMARK  5 active torsions:
REMARK  status: ('A' for Active; 'I' for Inactive)
REMARK    1  A    between atoms: C_2  and  O_3
REMARK    2  A    between atoms: C_2  and  C_4
REMARK    3  A    between atoms: C_8  and  N_9
REMARK    4  A    between atoms: N_9  and  C_10
REMARK    5  A    between atoms: C_12  and  C_13
REMARK                            x       y       z     vdW  Elec       q    Type
REMARK                         _______ _______ _______ _____ _____    ______ ____
ROOT
ATOM      1  C   UNL     1       2.122   8.389  18.666  0.00  0.00    +0.000 A 
ATOM      2  N   UNL     1       2.108   8.708  18.307  0.00  0.00    +0.000 NA
ATOM      3  C   UNL     1       0.997   9.844  19.534  0.00  0.00    +0.000 A 
ATOM      4  N   UNL     1       0.477  10.390  20.089  0.00  0.00    +0.000 NA
ATOM      5  C   UNL     1      -0.544  11.431  21.218  0.00  0.00    +0.000 A 
ATOM      6  C   UNL     1      -0.346  10.314  22.338  0.00  0.00    +0.000 A 
ATOM      7  C   UNL     1      -1.152  10.527  23.142  0.00  0.00    +0.000 A 
ATOM      8  C   UNL     1      -1.748  11.732  23.188  0.00  0.00    +0.000 A 
ATOM      9  C   UNL     1      -1.621  12.563  21.979  0.00  0.00    +0.000 A 
ATOM     10  C   UNL     1      -0.552  11.510  21.125  0.00  0.00    +0.000 A 
ENDROOT
BRANCH   3  11
ATOM     11  C   UNL     1       1.168   8.451  21.061  0.00  0.00    +0.000 C 
ATOM     12  F   UNL     1       1.781   9.128  22.162  0.00  0.00    +0.000 F 
ATOM     13  F   UNL     1      -0.141   8.049  21.388  0.00  0.00    +0.000 F 
ATOM     14  F   UNL     1       1.874   7.397  20.916  0.00  0.00    +0.000 F 
ENDBRANCH   3  11
BRANCH   1  15
ATOM     15  N   UNL     1       3.177   7.160  17.695  0.00  0.00    +0.000 N 
ATOM     16  H   UNL     1       3.477   7.989  16.889  0.00  0.00    +0.000 HD
BRANCH  15  21
ATOM     17  C   UNL     1       5.554   4.956  16.479  0.00  0.00    +0.000 A 
ATOM     18  C   UNL     1       5.084   3.673  16.751  0.00  0.00    +0.000 A 
ATOM     19  C   UNL     1       3.755   3.663  17.227  0.00  0.00    +0.000 A 
ATOM     20  C   UNL     1       3.126   4.733  17.706  0.00  0.00    +0.000 A 
ATOM     21  C   UNL     1       3.709   5.945  17.446  0.00  0.00    +0.000 A 
ATOM     22  C   UNL     1       4.926   6.018  16.878  0.00  0.00    +0.000 A 
BRANCH  17  24
ATOM     23  O   UNL     1       7.391   6.283  16.343  0.00  0.00    +0.000 OA
ATOM     24  C   UNL     1       6.119   5.418  15.877  0.00  0.00    +0.000 C 
BRANCH  24  25
ATOM     25  O   UNL     1       6.272   4.470  13.921  0.00  0.00    +0.000 OA
ATOM     26  H   UNL     1       6.729   3.914  14.047  0.00  0.00    +0.000 HD
ENDBRANCH  24  25
ENDBRANCH  17  24
ENDBRANCH  15  21
ENDBRANCH   1  15
TORSDOF 5
ENDMDL
MODEL 6
REMARK VINA RESULT:      -9.0      2.166      2.442
REMARK  Name = 
REMARK  5 active torsions:
REMARK  status: ('A' for Active; 'I' for Inactive)
REMARK    1  A    between atoms: C_2  and  O_3
REMARK    2  A    between atoms: C_2  and  C_4
REMARK    3  A    between atoms: C_8  and  N_9
REMARK    4  A    between atoms: N_9  and  C_10
REMARK    5  A    between atoms: C_12  and  C_13
REMARK                            x       y       z     vdW  Elec       q    Type
REMARK                         _______ _______ _______ _____ _____    ______ ____
ROOT
ATOM      1  C   UNL     1       1.886   7.721  19.467  0.00  0.00    +0.000 A 
ATOM      2  N   UNL     1       2.075   7.979  19.108  0.00  0.00    +0.000 NA
ATOM      3  C   UNL     1       1.255   9.580  19.999  0.00  0.00    +0.000 A 
ATOM      4  N   UNL     1       0.881  10.340  20.397  0.00  0.00    +0.000 NA
ATOM      5  C   UNL     1       0.126  11.809  21.217  0.00  0.00    +0.000 A 
ATOM      6  C   UNL     1      -0.373  10.837  22.378  0.00  0.00    +0.000 A 
ATOM      7  C   UNL     1      -1.187  11.425  22.955  0.00  0.00    +0.000 A 
ATOM      8  C   UNL     1      -1.263  12.762  22.825  0.00  0.00    +0.000 A 
ATOM      9  C   UNL     1      -0.564  13.340  21.665  0.00  0.00    +0.000 A 
ATOM     10  C   UNL     1       0.169  11.874  21.123  0.00  0.00    +0.000 A 
ENDROOT
BRANCH   3  11
ATOM     11  C   UNL     1       0.536   8.410  21.554  0.00  0.00    +0.000 C 
ATOM     12  F   UNL     1       1.046   8.980  22.762  0.00  0.00    +0.000 F 
ATOM     13  F   UNL     1      -0.868   8.504  21.511  0.00  0.00    +0.000 F 
ATOM     14  F   UNL     1       0.841   7.174  21.643  0.00  0.00    +0.000 F 
ENDBRANCH   3  11
BRANCH   1  15
ATOM     15  N   UNL     1       2.564   6.085  18.812  0.00  0.00    +0.000 N 
ATOM     16  H   UNL     1       3.510   6.625  18.321  0.00  0.00    +0.000 HD
BRANCH  15  21
ATOM     17  C   UNL     1       2.899   2.760  19.718  0.00  0.00    +0.000 A 
ATOM     18  C   UNL     1       2.613   2.008  18.581  0.00  0.00    +0.000 A 
ATOM     19  C   UNL     1       2.485   2.795  17.416  0.00  0.00    +0.000 A 
ATOM     20  C   UNL     1       2.299   4.112  17.424  0.00  0.00    +0.000 A 
ATOM     21  C   UNL     1       2.537   4.751  18.612  0.00  0.00    +0.000 A 
ATOM     22  C   UNL     1       2.788   4.052  19.733  0.00  0.00    +0.000 A 
BRANCH  17  24
ATOM     23  O   UNL     1       2.699   2.663  21.977  0.00  0.00    +0.000 OA
ATOM     24  C   UNL     1       3.389   2.711  20.526  0.00  0.00    +0.000 C 
BRANCH  24  25
ATOM     25  O   UNL     1       5.289   1.662  20.335  0.00  0.00    +0.000 OA
ATOM     26  H   UNL     1       5.715   2.015  20.813  0.00  0.00    +0.000 HD
ENDBRANCH  24  25
ENDBRANCH  17  24
ENDBRANCH  15  21
ENDBRANCH   1  15
TORSDOF 5
ENDMDL
MODEL 7
REMARK VINA RESULT:      -8.9      1.533      2.097
REMARK  Name = 
REMARK  5 active torsions:
REMARK  status: ('A' for Active; 'I' for Inactive)
REMARK    1  A    between atoms: C_2  and  O_3
REMARK    2  A    between atoms: C_2  and  C_4
REMARK    3  A    between atoms: C_8  and  N_9
REMARK    4  A    between atoms: N_9  and  C_10
REMARK    5  A    between atoms: C_12  and  C_13
REMARK                            x       y       z     vdW  Elec       q    Type
REMARK                         _______ _______ _______ _____ _____    ______ ____
ROOT
ATOM      1  C   UNL     1       1.842   8.253  19.110  0.00  0.00    +0.000 A 
ATOM      2  N   UNL     1       1.913   8.550  18.738  0.00  0.00    +0.000 NA
ATOM      3  C   UNL     1       0.901   9.917  19.803  0.00  0.00    +0.000 A 
ATOM      4  N   UNL     1       0.431  10.570  20.282  0.00  0.00    +0.000 NA
ATOM      5  C   UNL     1      -0.500  11.824  21.262  0.00  0.00    +0.000 A 
ATOM      6  C   UNL     1      -0.591  10.755  22.441  0.00  0.00    +0.000 A 
ATOM      7  C   UNL     1      -1.420  11.140  23.154  0.00  0.00    +0.000 A 
ATOM      8  C   UNL     1      -1.809  12.426  23.091  0.00  0.00    +0.000 A 
ATOM      9  C   UNL     1      -1.438  13.157  21.868  0.00  0.00    +0.000 A 
ATOM     10  C   UNL     1      -0.487  11.898  21.166  0.00  0.00    +0.000 A 
ENDROOT
BRANCH   3  11
ATOM     11  C   UNL     1       0.701   8.603  21.396  0.00  0.00    +0.000 C 
ATOM     12  F   UNL     1       1.108   7.319  20.917  0.00  0.00    +0.000 F 
ATOM     13  F   UNL     1       1.570   9.060  22.405  0.00  0.00    +0.000 F 
ATOM     14  F   UNL     1      -0.437   8.386  21.931  0.00  0.00    +0.000 F 
ENDBRANCH   3  11
BRANCH   1  15
ATOM     15  N   UNL     1       2.761   6.817  18.297  0.00  0.00    +0.000 N 
ATOM     16  H   UNL     1       3.514   7.559  17.740  0.00  0.00    +0.000 HD
BRANCH  15  21
ATOM     17  C   UNL     1       4.707   4.027  17.656  0.00  0.00    +0.000 A 
ATOM     18  C   UNL     1       3.827   2.965  17.459  0.00  0.00    +0.000 A 
ATOM     19  C   UNL     1       2.478   3.374  17.379  0.00  0.00    +0.000 A 
ATOM     20  C   UNL     1       2.033   4.558  17.790  0.00  0.00    +0.000 A 
ATOM     21  C   UNL     1       2.985   5.514  18.027  0.00  0.00    +0.000 A 
ATOM     22  C   UNL     1       4.294   5.208  17.994  0.00  0.00    +0.000 A 
BRANCH  17  24
ATOM     23  O   UNL     1       6.777   4.446  18.487  0.00  0.00    +0.000 OA
ATOM     24  C   UNL     1       5.580   4.309  17.424  0.00  0.00    +0.000 C 
BRANCH  24  25
ATOM     25  O   UNL     1       6.159   3.775  15.393  0.00  0.00    +0.000 OA
ATOM     26  H   UNL     1       5.579   3.400  15.154  0.00  0.00    +0.000 HD
ENDBRANCH  24  25
ENDBRANCH  17  24
ENDBRANCH  15  21
ENDBRANCH   1  15
TORSDOF 5
ENDMDL
MODEL 8
REMARK VINA RESULT:      -8.9      1.968      2.676
REMARK  Name = 
REMARK  5 active torsions:
REMARK  status: ('A' for Active; 'I' for Inactive)
REMARK    1  A    between atoms: C_2  and  O_3
REMARK    2  A    between atoms: C_2  and  C_4
REMARK    3  A    between atoms: C_8  and  N_9
REMARK    4  A    between atoms: N_9  and  C_10
REMARK    5  A    between atoms: C_12  and  C_13
REMARK                            x       y       z     vdW  Elec       q    Type
REMARK                         _______ _______ _______ _____ _____    ______ ____
ROOT
ATOM      1  C   UNL     1       1.531   8.001  20.761  0.00  0.00    +0.000 A 
ATOM      2  N   UNL     1       1.544   7.799  21.197  0.00  0.00    +0.000 NA
ATOM      3  C   UNL     1       0.334   9.290  21.782  0.00  0.00    +0.000 A 
ATOM      4  N   UNL     1      -0.230   9.976  22.077  0.00  0.00    +0.000 NA
ATOM      5  C   UNL     1      -1.341  11.348  22.611  0.00  0.00    +0.000 A 
ATOM      6  C   UNL     1      -1.348  11.858  21.101  0.00  0.00    +0.000 A 
ATOM      7  C   UNL     1      -1.746  12.946  21.137  0.00  0.00    +0.000 A 
ATOM      8  C   UNL     1      -2.416  13.375  22.221  0.00  0.00    +0.000 A 
ATOM      9  C   UNL     1      -2.262  12.566  23.441  0.00  0.00    +0.000 A 
ATOM     10  C   UNL     1      -1.334  11.299  22.723  0.00  0.00    +0.000 A 
ENDROOT
BRANCH   3  11
ATOM     11  C   UNL     1       0.268  10.059  19.857  0.00  0.00    +0.000 C 
ATOM     12  F   UNL     1      -1.112  10.113  19.487  0.00  0.00    +0.000 F 
ATOM     13  F   UNL     1       0.818  11.353  19.922  0.00  0.00    +0.000 F 
ATOM     14  F   UNL     1       0.824   9.449  18.884  0.00  0.00    +0.000 F 
ENDBRANCH   3  11
BRANCH   1  15
ATOM     15  N   UNL     1       2.661   6.699  19.990  0.00  0.00    +0.000 N 
ATOM     16  H   UNL     1       3.624   7.151  20.533  0.00  0.00    +0.000 HD
BRANCH  15  21
ATOM     17  C   UNL     1       4.704   4.394  18.409  0.00  0.00    +0.000 A 
ATOM     18  C   UNL     1       3.865   3.551  17.684  0.00  0.00    +0.000 A 
ATOM     19  C   UNL     1       2.527   3.999  17.651  0.00  0.00    +0.000 A 
ATOM     20  C   UNL     1       2.024   4.904  18.486  0.00  0.00    +0.000 A 
ATOM     21  C   UNL     1       2.931   5.633  19.208  0.00  0.00    +0.000 A 
ATOM     22  C   UNL     1       4.241   5.328  19.180  0.00  0.00    +0.000 A 
BRANCH  17  24
ATOM     23  O   UNL     1       6.397   5.084  19.754  0.00  0.00    +0.000 OA
ATOM     24  C   UNL     1       5.592   4.720  18.411  0.00  0.00    +0.000 C 
BRANCH  24  25
ATOM     25  O   UNL     1       6.792   4.000  16.741  0.00  0.00    +0.000 OA
ATOM     26  H   UNL     1       7.420   4.364  16.827  0.00  0.00    +0.000 HD
ENDBRANCH  24  25
ENDBRANCH  17  24
ENDBRANCH  15  21
ENDBRANCH   1  15
TORSDOF 5
ENDMDL
MODEL 9
REMARK VINA RESULT:      -8.9      1.541      1.928
REMARK  Name = 
REMARK  5 active torsions:
REMARK  status: ('A' for Active; 'I' for Inactive)
REMARK    1  A    between atoms: C_2  and  O_3
REMARK    2  A    between atoms: C_2  and  C_4
REMARK    3  A    between atoms: C_8  and  N_9
REMARK    4  A    between atoms: N_9  and  C_10
REMARK    5  A    between atoms: C_12  and  C_13
REMARK                            x       y       z     vdW  Elec       q    Type
REMARK                         _______ _______ _______ _____ _____    ______ ____
ROOT
ATOM      1  C   UNL     1       1.753   8.468  18.881  0.00  0.00    +0.000 A 
ATOM      2  N   UNL     1       1.794   8.788  18.524  0.00  0.00    +0.000 NA
ATOM      3  C   UNL     1       0.786  10.051  19.715  0.00  0.00    +0.000 A 
ATOM      4  N   UNL     1       0.317  10.656  20.254  0.00  0.00    +0.000 NA
ATOM      5  C   UNL     1      -0.610  11.814  21.350  0.00  0.00    +0.000 A 
ATOM      6  C   UNL     1      -0.602  10.676  22.466  0.00  0.00    +0.000 A 
ATOM      7  C   UNL     1      -1.408  10.986  23.239  0.00  0.00    +0.000 A 
ATOM      8  C   UNL     1      -1.847  12.257  23.271  0.00  0.00    +0.000 A 
ATOM      9  C   UNL     1      -1.565  13.071  22.077  0.00  0.00    +0.000 A 
ATOM     10  C   UNL     1      -0.604  11.894  21.258  0.00  0.00    +0.000 A 
ENDROOT
BRANCH   3  11
ATOM     11  C   UNL     1       0.715   8.641  21.235  0.00  0.00    +0.000 C 
ATOM     12  F   UNL     1       1.316   9.247  22.381  0.00  0.00    +0.000 F 
ATOM     13  F   UNL     1      -0.647   8.371  21.468  0.00  0.00    +0.000 F 
ATOM     14  F   UNL     1       1.319   7.522  21.124  0.00  0.00    +0.000 F 
ENDBRANCH   3  11
BRANCH   1  15
ATOM     15  N   UNL     1       2.682   7.119  17.941  0.00  0.00    +0.000 N 
ATOM     16  H   UNL     1       2.148   7.408  16.912  0.00  0.00    +0.000 HD
BRANCH  15  21
ATOM     17  C   UNL     1       5.582   5.534  16.907  0.00  0.00    +0.000 A 
ATOM     18  C   UNL     1       5.511   4.227  17.382  0.00  0.00    +0.000 A 
ATOM     19  C   UNL     1       4.250   3.907  17.931  0.00  0.00    +0.000 A 
ATOM     20  C   UNL     1       3.344   4.811  18.292  0.00  0.00    +0.000 A 
ATOM     21  C   UNL     1       3.543   6.085  17.833  0.00  0.00    +0.000 A 
ATOM     22  C   UNL     1       4.677   6.419  17.191  0.00  0.00    +0.000 A 
BRANCH  17  24
ATOM     23  O   UNL     1       5.133   6.794  15.073  0.00  0.00    +0.000 OA
ATOM     24  C   UNL     1       5.978   6.043  16.215  0.00  0.00    +0.000 C 
BRANCH  24  25
ATOM     25  O   UNL     1       7.858   6.984  16.789  0.00  0.00    +0.000 OA
ATOM     26  H   UNL     1       8.346   6.454  16.668  0.00  0.00    +0.000 HD
ENDBRANCH  24  25
ENDBRANCH  17  24
ENDBRANCH  15  21
ENDBRANCH   1  15
TORSDOF 5
ENDMDL
