MODEL 1
REMARK VINA RESULT:      -7.6      0.000      0.000
REMARK  Name = 
REMARK  8 active torsions:
REMARK  status: ('A' for Active; 'I' for Inactive)
REMARK    1  A    between atoms: P_2  and  O_3
REMARK    2  A    between atoms: P_2  and  O_4
REMARK    3  A    between atoms: P_2  and  O_5
REMARK    4  A    between atoms: O_5  and  C_6
REMARK    5  A    between atoms: C_6  and  C_7
REMARK    6  A    between atoms: C_9  and  N_10
REMARK    7  A    between atoms: C_22  and  O_23
REMARK    8  A    between atoms: C_24  and  O_25
REMARK                            x       y       z     vdW  Elec       q    Type
REMARK                         _______ _______ _______ _____ _____    ______ ____
ROOT
ATOM      1  C   UNL     1       4.703   3.994  19.248  0.00  0.00    +0.000 C 
ATOM      2  O   UNL     1       4.401   5.313  19.754  0.00  0.00    +0.000 OA
ATOM      3  C   UNL     1       2.965   5.479  19.860  0.00  0.00    +0.000 C 
ATOM      4  C   UNL     1       2.325   4.254  19.204  0.00  0.00    +0.000 C 
ATOM      5  C   UNL     1       3.408   3.198  19.391  0.00  0.00    +0.000 C 
ENDROOT
BRANCH   3   6
ATOM      6  N   UNL     1       2.590   6.745  19.257  0.00  0.00    +0.000 N 
ATOM      7  C   UNL     1       2.966   7.204  18.014  0.00  0.00    +0.000 A 
ATOM      8  N   UNL     1       2.500   8.410  17.760  0.00  0.00    +0.000 NA
ATOM      9  C   UNL     1       1.829   8.741  18.890  0.00  0.00    +0.000 A 
ATOM     10  C   UNL     1       1.839   7.737  19.838  0.00  0.00    +0.000 A 
ATOM     11  N   UNL     1       1.274   7.713  21.086  0.00  0.00    +0.000 NA
ATOM     12  C   UNL     1       0.641   8.817  21.409  0.00  0.00    +0.000 A 
ATOM     13  N   UNL     1       0.557   9.934  20.559  0.00  0.00    +0.000 N 
ATOM     14  C   UNL     1      -0.037  11.154  20.759  0.00  0.00    +0.000 A 
ATOM     15  C   UNL     1       0.213  11.864  19.602  0.00  0.00    +0.000 A 
ATOM     16  N   UNL     1       0.927  11.111  18.698  0.00  0.00    +0.000 NA
ATOM     17  C   UNL     1       1.118   9.963  19.302  0.00  0.00    +0.000 A 
ENDBRANCH   3   6
BRANCH   4  18
ATOM     18  O   UNL     1       1.105   3.836  19.814  0.00  0.00    +0.000 OA
ATOM     19  H   UNL     1       0.883   4.516  20.484  0.00  0.00    +0.000 HD
ENDBRANCH   4  18
BRANCH   5  20
ATOM     20  O   UNL     1       3.268   2.642  20.713  0.00  0.00    +0.000 OA
ATOM     21  H   UNL     1       3.238   1.668  20.646  0.00  0.00    +0.000 HD
ENDBRANCH   5  20
BRANCH   1  22
ATOM     22  C   UNL     1       5.194   4.059  17.794  0.00  0.00    +0.000 C 
BRANCH  22  23
ATOM     23  O   UNL     1       5.966   5.240  17.571  0.00  0.00    +0.000 OA
BRANCH  23  25
ATOM     24  O   UNL     1       7.678   5.180  14.776  0.00  0.00    +0.000 OA
ATOM     25  P   UNL     1       6.869   5.209  16.096  0.00  0.00    +0.000 P 
BRANCH  25  26
ATOM     26  O   UNL     1       7.889   4.179  16.842  0.00  0.00    +0.000 OA
ATOM     27  H   UNL     1       8.741   4.207  16.367  0.00  0.00    +0.000 HD
ENDBRANCH  25  26
BRANCH  25  28
ATOM     28  O   UNL     1       7.572   6.599  16.582  0.00  0.00    +0.000 OA
ATOM     29  H   UNL     1       8.077   6.415  17.396  0.00  0.00    +0.000 HD
ENDBRANCH  25  28
ENDBRANCH  23  25
ENDBRANCH  22  23
ENDBRANCH   1  22
TORSDOF 8
ENDMDL
MODEL 2
REMARK VINA RESULT:      -7.4      0.841      1.140
REMARK  Name = 
REMARK  8 active torsions:
REMARK  status: ('A' for Active; 'I' for Inactive)
REMARK    1  A    between atoms: P_2  and  O_3
REMARK    2  A    between atoms: P_2  and  O_4
REMARK    3  A    between atoms: P_2  and  O_5
REMARK    4  A    between atoms: O_5  and  C_6
REMARK    5  A    between atoms: C_6  and  C_7
REMARK    6  A    between atoms: C_9  and  N_10
REMARK    7  A    between atoms: C_22  and  O_23
REMARK    8  A    between atoms: C_24  and  O_25
REMARK                            x       y       z     vdW  Elec       q    Type
REMARK                         _______ _______ _______ _____ _____    ______ ____
ROOT
ATOM      1  C   UNL     1       4.002   3.867  19.236  0.00  0.00    +0.000 C 
ATOM      2  O   UNL     1       3.964   5.243  19.674  0.00  0.00    +0.000 OA
ATOM      3  C   UNL     1       2.611   5.600  20.050  0.00  0.00    +0.000 C 
ATOM      4  C   UNL     1       1.713   4.429  19.647  0.00  0.00    +0.000 C 
ATOM      5  C   UNL     1       2.683   3.256  19.705  0.00  0.00    +0.000 C 
ENDROOT
BRANCH   3   6
ATOM      6  N   UNL     1       2.265   6.863  19.426  0.00  0.00    +0.000 N 
ATOM      7  C   UNL     1       2.497   7.222  18.117  0.00  0.00    +0.000 A 
ATOM      8  N   UNL     1       2.105   8.452  17.853  0.00  0.00    +0.000 NA
ATOM      9  C   UNL     1       1.633   8.901  19.042  0.00  0.00    +0.000 A 
ATOM     10  C   UNL     1       1.692   7.950  20.041  0.00  0.00    +0.000 A 
ATOM     11  N   UNL     1       1.311   8.042  21.354  0.00  0.00    +0.000 NA
ATOM     12  C   UNL     1       0.829   9.216  21.690  0.00  0.00    +0.000 A 
ATOM     13  N   UNL     1       0.720  10.291  20.791  0.00  0.00    +0.000 N 
ATOM     14  C   UNL     1       0.269  11.571  20.993  0.00  0.00    +0.000 A 
ATOM     15  C   UNL     1       0.411  12.194  19.770  0.00  0.00    +0.000 A 
ATOM     16  N   UNL     1       0.921  11.333  18.826  0.00  0.00    +0.000 NA
ATOM     17  C   UNL     1       1.097  10.204  19.469  0.00  0.00    +0.000 A 
ENDBRANCH   3   6
BRANCH   4  18
ATOM     18  O   UNL     1       0.608   4.212  20.523  0.00  0.00    +0.000 OA
ATOM     19  H   UNL     1       0.740   3.325  20.919  0.00  0.00    +0.000 HD
ENDBRANCH   4  18
BRANCH   5  20
ATOM     20  O   UNL     1       2.762   2.806  21.071  0.00  0.00    +0.000 OA
ATOM     21  H   UNL     1       2.681   1.833  21.091  0.00  0.00    +0.000 HD
ENDBRANCH   5  20
BRANCH   1  22
ATOM     22  C   UNL     1       4.180   3.777  17.712  0.00  0.00    +0.000 C 
BRANCH  22  23
ATOM     23  O   UNL     1       4.804   4.957  17.204  0.00  0.00    +0.000 OA
BRANCH  23  25
ATOM     24  O   UNL     1       7.928   4.513  16.317  0.00  0.00    +0.000 OA
ATOM     25  P   UNL     1       6.453   4.722  16.737  0.00  0.00    +0.000 P 
BRANCH  25  26
ATOM     26  O   UNL     1       6.172   5.781  15.529  0.00  0.00    +0.000 OA
ATOM     27  H   UNL     1       6.521   5.392  14.705  0.00  0.00    +0.000 HD
ENDBRANCH  25  26
BRANCH  25  28
ATOM     28  O   UNL     1       5.963   3.373  15.959  0.00  0.00    +0.000 OA
ATOM     29  H   UNL     1       5.599   2.756  16.621  0.00  0.00    +0.000 HD
ENDBRANCH  25  28
ENDBRANCH  23  25
ENDBRANCH  22  23
ENDBRANCH   1  22
TORSDOF 8
ENDMDL
MODEL 3
REMARK VINA RESULT:      -7.3      0.911      1.049
REMARK  Name = 
REMARK  8 active torsions:
REMARK  status: ('A' for Active; 'I' for Inactive)
REMARK    1  A    between atoms: P_2  and  O_3
REMARK    2  A    between atoms: P_2  and  O_4
REMARK    3  A    between atoms: P_2  and  O_5
REMARK    4  A    between atoms: O_5  and  C_6
REMARK    5  A    between atoms: C_6  and  C_7
REMARK    6  A    between atoms: C_9  and  N_10
REMARK    7  A    between atoms: C_22  and  O_23
REMARK    8  A    between atoms: C_24  and  O_25
REMARK                            x       y       z     vdW  Elec       q    Type
REMARK                         _______ _______ _______ _____ _____    ______ ____
ROOT
ATOM      1  C   UNL     1       4.766   4.344  19.034  0.00  0.00    +0.000 C 
ATOM      2  O   UNL     1       4.051   5.429  19.666  0.00  0.00    +0.000 OA
ATOM      3  C   UNL     1       2.701   5.495  19.143  0.00  0.00    +0.000 C 
ATOM      4  C   UNL     1       2.625   4.506  17.978  0.00  0.00    +0.000 C 
ATOM      5  C   UNL     1       3.694   3.489  18.361  0.00  0.00    +0.000 C 
ENDROOT
BRANCH   3   6
ATOM      6  N   UNL     1       2.400   6.868  18.783  0.00  0.00    +0.000 N 
ATOM      7  C   UNL     1       2.697   7.487  17.589  0.00  0.00    +0.000 A 
ATOM      8  N   UNL     1       2.334   8.753  17.572  0.00  0.00    +0.000 NA
ATOM      9  C   UNL     1       1.814   8.954  18.808  0.00  0.00    +0.000 A 
ATOM     10  C   UNL     1       1.814   7.815  19.587  0.00  0.00    +0.000 A 
ATOM     11  N   UNL     1       1.374   7.640  20.873  0.00  0.00    +0.000 NA
ATOM     12  C   UNL     1       0.892   8.728  21.427  0.00  0.00    +0.000 A 
ATOM     13  N   UNL     1       0.838   9.969  20.769  0.00  0.00    +0.000 N 
ATOM     14  C   UNL     1       0.395  11.188  21.215  0.00  0.00    +0.000 A 
ATOM     15  C   UNL     1       0.602  12.050  20.157  0.00  0.00    +0.000 A 
ATOM     16  N   UNL     1       1.143  11.393  19.076  0.00  0.00    +0.000 NA
ATOM     17  C   UNL     1       1.275  10.151  19.475  0.00  0.00    +0.000 A 
ENDBRANCH   3   6
BRANCH   4  18
ATOM     18  O   UNL     1       1.356   3.870  17.834  0.00  0.00    +0.000 OA
ATOM     19  H   UNL     1       0.984   3.788  18.736  0.00  0.00    +0.000 HD
ENDBRANCH   4  18
BRANCH   5  20
ATOM     20  O   UNL     1       3.109   2.548  19.281  0.00  0.00    +0.000 OA
ATOM     21  H   UNL     1       3.297   2.838  20.194  0.00  0.00    +0.000 HD
ENDBRANCH   5  20
BRANCH   1  22
ATOM     22  C   UNL     1       5.806   4.874  18.035  0.00  0.00    +0.000 C 
BRANCH  22  23
ATOM     23  O   UNL     1       5.581   4.333  16.733  0.00  0.00    +0.000 OA
BRANCH  23  25
ATOM     24  O   UNL     1       7.704   5.412  14.480  0.00  0.00    +0.000 OA
ATOM     25  P   UNL     1       6.702   4.903  15.544  0.00  0.00    +0.000 P 
BRANCH  25  26
ATOM     26  O   UNL     1       6.446   3.500  14.755  0.00  0.00    +0.000 OA
ATOM     27  H   UNL     1       7.300   3.206  14.385  0.00  0.00    +0.000 HD
ENDBRANCH  25  26
BRANCH  25  28
ATOM     28  O   UNL     1       7.896   4.383  16.527  0.00  0.00    +0.000 OA
ATOM     29  H   UNL     1       8.318   5.165  16.932  0.00  0.00    +0.000 HD
ENDBRANCH  25  28
ENDBRANCH  23  25
ENDBRANCH  22  23
ENDBRANCH   1  22
TORSDOF 8
ENDMDL
MODEL 4
REMARK VINA RESULT:      -7.2      0.945      1.255
REMARK  Name = 
REMARK  8 active torsions:
REMARK  status: ('A' for Active; 'I' for Inactive)
REMARK    1  A    between atoms: P_2  and  O_3
REMARK    2  A    between atoms: P_2  and  O_4
REMARK    3  A    between atoms: P_2  and  O_5
REMARK    4  A    between atoms: O_5  and  C_6
REMARK    5  A    between atoms: C_6  and  C_7
REMARK    6  A    between atoms: C_9  and  N_10
REMARK    7  A    between atoms: C_22  and  O_23
REMARK    8  A    between atoms: C_24  and  O_25
REMARK                            x       y       z     vdW  Elec       q    Type
REMARK                         _______ _______ _______ _____ _____    ______ ____
ROOT
ATOM      1  C   UNL     1       4.640   4.541  18.433  0.00  0.00    +0.000 C 
ATOM      2  O   UNL     1       4.399   5.816  19.067  0.00  0.00    +0.000 OA
ATOM      3  C   UNL     1       2.999   5.927  19.426  0.00  0.00    +0.000 C 
ATOM      4  C   UNL     1       2.285   4.721  18.812  0.00  0.00    +0.000 C 
ATOM      5  C   UNL     1       3.409   3.694  18.744  0.00  0.00    +0.000 C 
ENDROOT
BRANCH   3   6
ATOM      6  N   UNL     1       2.496   7.212  18.979  0.00  0.00    +0.000 N 
ATOM      7  C   UNL     1       2.738   7.809  17.762  0.00  0.00    +0.000 A 
ATOM      8  N   UNL     1       2.177   8.997  17.661  0.00  0.00    +0.000 NA
ATOM      9  C   UNL     1       1.580   9.173  18.865  0.00  0.00    +0.000 A 
ATOM     10  C   UNL     1       1.732   8.090  19.708  0.00  0.00    +0.000 A 
ATOM     11  N   UNL     1       1.274   7.912  20.986  0.00  0.00    +0.000 NA
ATOM     12  C   UNL     1       0.600   8.934  21.461  0.00  0.00    +0.000 A 
ATOM     13  N   UNL     1       0.374  10.115  20.732  0.00  0.00    +0.000 N 
ATOM     14  C   UNL     1      -0.278  11.266  21.093  0.00  0.00    +0.000 A 
ATOM     15  C   UNL     1      -0.169  12.094  19.995  0.00  0.00    +0.000 A 
ATOM     16  N   UNL     1       0.515  11.480  18.971  0.00  0.00    +0.000 NA
ATOM     17  C   UNL     1       0.829  10.299  19.445  0.00  0.00    +0.000 A 
ENDBRANCH   3   6
BRANCH   4  18
ATOM     18  O   UNL     1       1.198   4.226  19.594  0.00  0.00    +0.000 OA
ATOM     19  H   UNL     1       1.361   4.524  20.513  0.00  0.00    +0.000 HD
ENDBRANCH   4  18
BRANCH   5  20
ATOM     20  O   UNL     1       3.513   3.056  20.031  0.00  0.00    +0.000 OA
ATOM     21  H   UNL     1       3.329   3.715  20.728  0.00  0.00    +0.000 HD
ENDBRANCH   5  20
BRANCH   1  22
ATOM     22  C   UNL     1       4.871   4.709  16.923  0.00  0.00    +0.000 C 
BRANCH  22  23
ATOM     23  O   UNL     1       6.027   3.983  16.503  0.00  0.00    +0.000 OA
BRANCH  23  25
ATOM     24  O   UNL     1       7.662   5.429  14.056  0.00  0.00    +0.000 OA
ATOM     25  P   UNL     1       6.890   4.746  15.212  0.00  0.00    +0.000 P 
BRANCH  25  26
ATOM     26  O   UNL     1       5.648   5.797  15.116  0.00  0.00    +0.000 OA
ATOM     27  H   UNL     1       4.847   5.341  15.435  0.00  0.00    +0.000 HD
ENDBRANCH  25  26
BRANCH  25  28
ATOM     28  O   UNL     1       6.279   3.600  14.223  0.00  0.00    +0.000 OA
ATOM     29  H   UNL     1       6.629   2.735  14.508  0.00  0.00    +0.000 HD
ENDBRANCH  25  28
ENDBRANCH  23  25
ENDBRANCH  22  23
ENDBRANCH   1  22
TORSDOF 8
ENDMDL
MODEL 5
REMARK VINA RESULT:      -7.2      1.506      2.721
REMARK  Name = 
REMARK  8 active torsions:
REMARK  status: ('A' for Active; 'I' for Inactive)
REMARK    1  A    between atoms: P_2  and  O_3
REMARK    2  A    between atoms: P_2  and  O_4
REMARK    3  A    between atoms: P_2  and  O_5
REMARK    4  A    between atoms: O_5  and  C_6
REMARK    5  A    between atoms: C_6  and  C_7
REMARK    6  A    between atoms: C_9  and  N_10
REMARK    7  A    between atoms: C_22  and  O_23
REMARK    8  A    between atoms: C_24  and  O_25
REMARK                            x       y       z     vdW  Elec       q    Type
REMARK                         _______ _______ _______ _____ _____    ______ ____
ROOT
ATOM      1  C   UNL     1       4.724   3.004  17.673  0.00  0.00    +0.000 C 
ATOM      2  O   UNL     1       4.585   3.718  18.921  0.00  0.00    +0.000 OA
ATOM      3  C   UNL     1       3.278   3.457  19.491  0.00  0.00    +0.000 C 
ATOM      4  C   UNL     1       2.482   2.678  18.442  0.00  0.00    +0.000 C 
ATOM      5  C   UNL     1       3.590   1.981  17.662  0.00  0.00    +0.000 C 
ENDROOT
BRANCH   3   6
ATOM      6  N   UNL     1       2.676   4.716  19.888  0.00  0.00    +0.000 N 
ATOM      7  C   UNL     1       1.897   4.937  21.002  0.00  0.00    +0.000 A 
ATOM      8  N   UNL     1       1.459   6.178  21.074  0.00  0.00    +0.000 NA
ATOM      9  C   UNL     1       1.953   6.758  19.953  0.00  0.00    +0.000 A 
ATOM     10  C   UNL     1       2.728   5.901  19.197  0.00  0.00    +0.000 A 
ATOM     11  N   UNL     1       3.381   6.133  18.015  0.00  0.00    +0.000 NA
ATOM     12  C   UNL     1       3.230   7.351  17.549  0.00  0.00    +0.000 A 
ATOM     13  N   UNL     1       2.458   8.333  18.195  0.00  0.00    +0.000 N 
ATOM     14  C   UNL     1       2.184   9.625  17.826  0.00  0.00    +0.000 A 
ATOM     15  C   UNL     1       1.359  10.110  18.821  0.00  0.00    +0.000 A 
ATOM     16  N   UNL     1       1.133   9.160  19.791  0.00  0.00    +0.000 NA
ATOM     17  C   UNL     1       1.802   8.108  19.385  0.00  0.00    +0.000 A 
ENDBRANCH   3   6
BRANCH   4  18
ATOM     18  O   UNL     1       1.574   1.723  18.989  0.00  0.00    +0.000 OA
ATOM     19  H   UNL     1       2.003   0.847  18.890  0.00  0.00    +0.000 HD
ENDBRANCH   4  18
BRANCH   5  20
ATOM     20  O   UNL     1       3.950   0.780  18.371  0.00  0.00    +0.000 OA
ATOM     21  H   UNL     1       4.710   0.361  17.922  0.00  0.00    +0.000 HD
ENDBRANCH   5  20
BRANCH   1  22
ATOM     22  C   UNL     1       4.658   3.965  16.476  0.00  0.00    +0.000 C 
BRANCH  22  23
ATOM     23  O   UNL     1       5.924   4.045  15.819  0.00  0.00    +0.000 OA
BRANCH  23  25
ATOM     24  O   UNL     1       7.675   6.685  16.661  0.00  0.00    +0.000 OA
ATOM     25  P   UNL     1       6.848   5.438  16.264  0.00  0.00    +0.000 P 
BRANCH  25  26
ATOM     26  O   UNL     1       7.472   5.399  14.759  0.00  0.00    +0.000 OA
ATOM     27  H   UNL     1       6.730   5.317  14.131  0.00  0.00    +0.000 HD
ENDBRANCH  25  26
BRANCH  25  28
ATOM     28  O   UNL     1       7.912   4.418  16.966  0.00  0.00    +0.000 OA
ATOM     29  H   UNL     1       8.766   4.881  17.051  0.00  0.00    +0.000 HD
ENDBRANCH  25  28
ENDBRANCH  23  25
ENDBRANCH  22  23
ENDBRANCH   1  22
TORSDOF 8
ENDMDL
MODEL 6
REMARK VINA RESULT:      -7.2      1.278      1.545
REMARK  Name = 
REMARK  8 active torsions:
REMARK  status: ('A' for Active; 'I' for Inactive)
REMARK    1  A    between atoms: P_2  and  O_3
REMARK    2  A    between atoms: P_2  and  O_4
REMARK    3  A    between atoms: P_2  and  O_5
REMARK    4  A    between atoms: O_5  and  C_6
REMARK    5  A    between atoms: C_6  and  C_7
REMARK    6  A    between atoms: C_9  and  N_10
REMARK    7  A    between atoms: C_22  and  O_23
REMARK    8  A    between atoms: C_24  and  O_25
REMARK                            x       y       z     vdW  Elec       q    Type
REMARK                         _______ _______ _______ _____ _____    ______ ____
ROOT
ATOM      1  C   UNL     1       6.050   5.092  18.537  0.00  0.00    +0.000 C 
ATOM      2  O   UNL     1       5.217   6.038  19.244  0.00  0.00    +0.000 OA
ATOM      3  C   UNL     1       3.821   5.698  19.054  0.00  0.00    +0.000 C 
ATOM      4  C   UNL     1       3.773   4.579  18.013  0.00  0.00    +0.000 C 
ATOM      5  C   UNL     1       5.133   3.919  18.199  0.00  0.00    +0.000 C 
ENDROOT
BRANCH   3   6
ATOM      6  N   UNL     1       3.090   6.895  18.682  0.00  0.00    +0.000 N 
ATOM      7  C   UNL     1       3.202   7.590  17.499  0.00  0.00    +0.000 A 
ATOM      8  N   UNL     1       2.436   8.661  17.467  0.00  0.00    +0.000 NA
ATOM      9  C   UNL     1       1.836   8.663  18.683  0.00  0.00    +0.000 A 
ATOM     10  C   UNL     1       2.193   7.581  19.464  0.00  0.00    +0.000 A 
ATOM     11  N   UNL     1       1.794   7.255  20.733  0.00  0.00    +0.000 NA
ATOM     12  C   UNL     1       0.956   8.113  21.268  0.00  0.00    +0.000 A 
ATOM     13  N   UNL     1       0.511   9.271  20.607  0.00  0.00    +0.000 N 
ATOM     14  C   UNL     1      -0.330  10.266  21.035  0.00  0.00    +0.000 A 
ATOM     15  C   UNL     1      -0.389  11.158  19.984  0.00  0.00    +0.000 A 
ATOM     16  N   UNL     1       0.378  10.733  18.923  0.00  0.00    +0.000 NA
ATOM     17  C   UNL     1       0.905   9.603  19.329  0.00  0.00    +0.000 A 
ENDBRANCH   3   6
BRANCH   4  18
ATOM     18  O   UNL     1       2.723   3.634  18.219  0.00  0.00    +0.000 OA
ATOM     19  H   UNL     1       1.901   4.155  18.332  0.00  0.00    +0.000 HD
ENDBRANCH   4  18
BRANCH   5  20
ATOM     20  O   UNL     1       5.034   2.989  19.295  0.00  0.00    +0.000 OA
ATOM     21  H   UNL     1       4.161   3.090  19.720  0.00  0.00    +0.000 HD
ENDBRANCH   5  20
BRANCH   1  22
ATOM     22  C   UNL     1       6.671   5.731  17.285  0.00  0.00    +0.000 C 
BRANCH  22  23
ATOM     23  O   UNL     1       7.373   4.756  16.513  0.00  0.00    +0.000 OA
BRANCH  23  25
ATOM     24  O   UNL     1       6.169   4.361  13.490  0.00  0.00    +0.000 OA
ATOM     25  P   UNL     1       6.737   4.547  14.918  0.00  0.00    +0.000 P 
BRANCH  25  26
ATOM     26  O   UNL     1       8.011   5.415  14.389  0.00  0.00    +0.000 OA
ATOM     27  H   UNL     1       8.052   6.235  14.916  0.00  0.00    +0.000 HD
ENDBRANCH  25  26
BRANCH  25  28
ATOM     28  O   UNL     1       5.738   5.799  15.232  0.00  0.00    +0.000 OA
ATOM     29  H   UNL     1       6.271   6.527  15.603  0.00  0.00    +0.000 HD
ENDBRANCH  25  28
ENDBRANCH  23  25
ENDBRANCH  22  23
ENDBRANCH   1  22
TORSDOF 8
ENDMDL
MODEL 7
REMARK VINA RESULT:      -7.1      0.757      1.183
REMARK  Name = 
REMARK  8 active torsions:
REMARK  status: ('A' for Active; 'I' for Inactive)
REMARK    1  A    between atoms: P_2  and  O_3
REMARK    2  A    between atoms: P_2  and  O_4
REMARK    3  A    between atoms: P_2  and  O_5
REMARK    4  A    between atoms: O_5  and  C_6
REMARK    5  A    between atoms: C_6  and  C_7
REMARK    6  A    between atoms: C_9  and  N_10
REMARK    7  A    between atoms: C_22  and  O_23
REMARK    8  A    between atoms: C_24  and  O_25
REMARK                            x       y       z     vdW  Elec       q    Type
REMARK                         _______ _______ _______ _____ _____    ______ ____
ROOT
ATOM      1  C   UNL     1       4.742   4.366  19.126  0.00  0.00    +0.000 C 
ATOM      2  O   UNL     1       4.243   5.576  19.738  0.00  0.00    +0.000 OA
ATOM      3  C   UNL     1       2.796   5.603  19.660  0.00  0.00    +0.000 C 
ATOM      4  C   UNL     1       2.376   4.424  18.780  0.00  0.00    +0.000 C 
ATOM      5  C   UNL     1       3.528   3.450  18.990  0.00  0.00    +0.000 C 
ENDROOT
BRANCH   3   6
ATOM      6  N   UNL     1       2.374   6.900  19.166  0.00  0.00    +0.000 N 
ATOM      7  C   UNL     1       2.561   7.394  17.894  0.00  0.00    +0.000 A 
ATOM      8  N   UNL     1       2.102   8.621  17.755  0.00  0.00    +0.000 NA
ATOM      9  C   UNL     1       1.632   8.929  18.989  0.00  0.00    +0.000 A 
ATOM     10  C   UNL     1       1.759   7.891  19.891  0.00  0.00    +0.000 A 
ATOM     11  N   UNL     1       1.400   7.838  21.212  0.00  0.00    +0.000 NA
ATOM     12  C   UNL     1       0.865   8.947  21.667  0.00  0.00    +0.000 A 
ATOM     13  N   UNL     1       0.684  10.096  20.877  0.00  0.00    +0.000 N 
ATOM     14  C   UNL     1       0.172  11.325  21.208  0.00  0.00    +0.000 A 
ATOM     15  C   UNL     1       0.258  12.069  20.049  0.00  0.00    +0.000 A 
ATOM     16  N   UNL     1       0.793  11.330  19.018  0.00  0.00    +0.000 NA
ATOM     17  C   UNL     1       1.039  10.155  19.547  0.00  0.00    +0.000 A 
ENDBRANCH   3   6
BRANCH   4  18
ATOM     18  O   UNL     1       1.136   3.826  19.158  0.00  0.00    +0.000 OA
ATOM     19  H   UNL     1       0.434   4.461  18.904  0.00  0.00    +0.000 HD
ENDBRANCH   4  18
BRANCH   5  20
ATOM     20  O   UNL     1       3.278   2.715  20.204  0.00  0.00    +0.000 OA
ATOM     21  H   UNL     1       2.315   2.688  20.366  0.00  0.00    +0.000 HD
ENDBRANCH   5  20
BRANCH   1  22
ATOM     22  C   UNL     1       5.406   4.664  17.773  0.00  0.00    +0.000 C 
BRANCH  22  23
ATOM     23  O   UNL     1       6.801   4.921  17.938  0.00  0.00    +0.000 OA
BRANCH  23  25
ATOM     24  O   UNL     1       7.673   7.980  17.144  0.00  0.00    +0.000 OA
ATOM     25  P   UNL     1       7.262   6.535  17.519  0.00  0.00    +0.000 P 
BRANCH  25  26
ATOM     26  O   UNL     1       5.673   6.854  17.349  0.00  0.00    +0.000 OA
ATOM     27  H   UNL     1       5.505   7.040  16.406  0.00  0.00    +0.000 HD
ENDBRANCH  25  26
BRANCH  25  28
ATOM     28  O   UNL     1       7.535   5.987  16.006  0.00  0.00    +0.000 OA
ATOM     29  H   UNL     1       7.416   6.731  15.387  0.00  0.00    +0.000 HD
ENDBRANCH  25  28
ENDBRANCH  23  25
ENDBRANCH  22  23
ENDBRANCH   1  22
TORSDOF 8
ENDMDL
MODEL 8
REMARK VINA RESULT:      -7.1      1.172      1.309
REMARK  Name = 
REMARK  8 active torsions:
REMARK  status: ('A' for Active; 'I' for Inactive)
REMARK    1  A    between atoms: P_2  and  O_3
REMARK    2  A    between atoms: P_2  and  O_4
REMARK    3  A    between atoms: P_2  and  O_5
REMARK    4  A    between atoms: O_5  and  C_6
REMARK    5  A    between atoms: C_6  and  C_7
REMARK    6  A    between atoms: C_9  and  N_10
REMARK    7  A    between atoms: C_22  and  O_23
REMARK    8  A    between atoms: C_24  and  O_25
REMARK                            x       y       z     vdW  Elec       q    Type
REMARK                         _______ _______ _______ _____ _____    ______ ____
ROOT
ATOM      1  C   UNL     1       5.129   4.117  17.893  0.00  0.00    +0.000 C 
ATOM      2  O   UNL     1       5.036   5.478  18.369  0.00  0.00    +0.000 OA
ATOM      3  C   UNL     1       3.840   5.635  19.173  0.00  0.00    +0.000 C 
ATOM      4  C   UNL     1       3.040   4.339  19.037  0.00  0.00    +0.000 C 
ATOM      5  C   UNL     1       4.136   3.323  18.738  0.00  0.00    +0.000 C 
ENDROOT
BRANCH   3   6
ATOM      6  N   UNL     1       3.132   6.825  18.739  0.00  0.00    +0.000 N 
ATOM      7  C   UNL     1       3.298   7.487  17.543  0.00  0.00    +0.000 A 
ATOM      8  N   UNL     1       2.540   8.561  17.451  0.00  0.00    +0.000 NA
ATOM      9  C   UNL     1       1.891   8.599  18.641  0.00  0.00    +0.000 A 
ATOM     10  C   UNL     1       2.209   7.537  19.464  0.00  0.00    +0.000 A 
ATOM     11  N   UNL     1       1.756   7.248  20.724  0.00  0.00    +0.000 NA
ATOM     12  C   UNL     1       0.902   8.123  21.201  0.00  0.00    +0.000 A 
ATOM     13  N   UNL     1       0.492   9.266  20.491  0.00  0.00    +0.000 N 
ATOM     14  C   UNL     1      -0.360  10.276  20.858  0.00  0.00    +0.000 A 
ATOM     15  C   UNL     1      -0.370  11.140  19.781  0.00  0.00    +0.000 A 
ATOM     16  N   UNL     1       0.438  10.682  18.765  0.00  0.00    +0.000 NA
ATOM     17  C   UNL     1       0.940   9.561  19.222  0.00  0.00    +0.000 A 
ENDBRANCH   3   6
BRANCH   4  18
ATOM     18  O   UNL     1       2.321   3.971  20.214  0.00  0.00    +0.000 OA
ATOM     19  H   UNL     1       2.994   3.783  20.901  0.00  0.00    +0.000 HD
ENDBRANCH   4  18
BRANCH   5  20
ATOM     20  O   UNL     1       4.716   2.908  19.990  0.00  0.00    +0.000 OA
ATOM     21  H   UNL     1       4.244   3.351  20.721  0.00  0.00    +0.000 HD
ENDBRANCH   5  20
BRANCH   1  22
ATOM     22  C   UNL     1       4.817   4.036  16.390  0.00  0.00    +0.000 C 
BRANCH  22  23
ATOM     23  O   UNL     1       5.347   5.168  15.700  0.00  0.00    +0.000 OA
BRANCH  23  25
ATOM     24  O   UNL     1       6.971   4.388  12.961  0.00  0.00    +0.000 OA
ATOM     25  P   UNL     1       6.204   4.757  14.254  0.00  0.00    +0.000 P 
BRANCH  25  26
ATOM     26  O   UNL     1       6.334   3.250  14.861  0.00  0.00    +0.000 OA
ATOM     27  H   UNL     1       7.135   3.221  15.418  0.00  0.00    +0.000 HD
ENDBRANCH  25  26
BRANCH  25  28
ATOM     28  O   UNL     1       7.538   5.387  14.953  0.00  0.00    +0.000 OA
ATOM     29  H   UNL     1       7.348   5.523  15.901  0.00  0.00    +0.000 HD
ENDBRANCH  25  28
ENDBRANCH  23  25
ENDBRANCH  22  23
ENDBRANCH   1  22
TORSDOF 8
ENDMDL
MODEL 9
REMARK VINA RESULT:      -7.0      0.999      1.412
REMARK  Name = 
REMARK  8 active torsions:
REMARK  status: ('A' for Active; 'I' for Inactive)
REMARK    1  A    between atoms: P_2  and  O_3
REMARK    2  A    between atoms: P_2  and  O_4
REMARK    3  A    between atoms: P_2  and  O_5
REMARK    4  A    between atoms: O_5  and  C_6
REMARK    5  A    between atoms: C_6  and  C_7
REMARK    6  A    between atoms: C_9  and  N_10
REMARK    7  A    between atoms: C_22  and  O_23
REMARK    8  A    between atoms: C_24  and  O_25
REMARK                            x       y       z     vdW  Elec       q    Type
REMARK                         _______ _______ _______ _____ _____    ______ ____
ROOT
ATOM      1  C   UNL     1       4.511   4.732  18.504  0.00  0.00    +0.000 C 
ATOM      2  O   UNL     1       4.264   5.997  19.156  0.00  0.00    +0.000 OA
ATOM      3  C   UNL     1       2.885   6.059  19.598  0.00  0.00    +0.000 C 
ATOM      4  C   UNL     1       2.178   4.831  19.022  0.00  0.00    +0.000 C 
ATOM      5  C   UNL     1       3.329   3.843  18.883  0.00  0.00    +0.000 C 
ENDROOT
BRANCH   3   6
ATOM      6  N   UNL     1       2.314   7.328  19.186  0.00  0.00    +0.000 N 
ATOM      7  C   UNL     1       2.373   7.884  17.927  0.00  0.00    +0.000 A 
ATOM      8  N   UNL     1       1.794   9.067  17.870  0.00  0.00    +0.000 NA
ATOM      9  C   UNL     1       1.378   9.283  19.142  0.00  0.00    +0.000 A 
ATOM     10  C   UNL     1       1.658   8.229  19.989  0.00  0.00    +0.000 A 
ATOM     11  N   UNL     1       1.392   8.093  21.326  0.00  0.00    +0.000 NA
ATOM     12  C   UNL     1       0.787   9.129  21.859  0.00  0.00    +0.000 A 
ATOM     13  N   UNL     1       0.450  10.284  21.132  0.00  0.00    +0.000 N 
ATOM     14  C   UNL     1      -0.151  11.446  21.546  0.00  0.00    +0.000 A 
ATOM     15  C   UNL     1      -0.209  12.237  20.417  0.00  0.00    +0.000 A 
ATOM     16  N   UNL     1       0.324  11.590  19.325  0.00  0.00    +0.000 NA
ATOM     17  C   UNL     1       0.711  10.426  19.787  0.00  0.00    +0.000 A 
ENDBRANCH   3   6
BRANCH   4  18
ATOM     18  O   UNL     1       1.156   4.298  19.863  0.00  0.00    +0.000 OA
ATOM     19  H   UNL     1       0.332   4.777  19.635  0.00  0.00    +0.000 HD
ENDBRANCH   4  18
BRANCH   5  20
ATOM     20  O   UNL     1       3.530   3.207  20.160  0.00  0.00    +0.000 OA
ATOM     21  H   UNL     1       3.708   3.892  20.832  0.00  0.00    +0.000 HD
ENDBRANCH   5  20
BRANCH   1  22
ATOM     22  C   UNL     1       4.647   4.911  16.984  0.00  0.00    +0.000 C 
BRANCH  22  23
ATOM     23  O   UNL     1       6.014   5.093  16.615  0.00  0.00    +0.000 OA
BRANCH  23  25
ATOM     24  O   UNL     1       8.069   5.128  19.168  0.00  0.00    +0.000 OA
ATOM     25  P   UNL     1       7.099   5.111  17.963  0.00  0.00    +0.000 P 
BRANCH  25  26
ATOM     26  O   UNL     1       7.693   6.503  17.357  0.00  0.00    +0.000 OA
ATOM     27  H   UNL     1       8.287   6.276  16.616  0.00  0.00    +0.000 HD
ENDBRANCH  25  26
BRANCH  25  28
ATOM     28  O   UNL     1       8.048   4.086  17.119  0.00  0.00    +0.000 OA
ATOM     29  H   UNL     1       7.631   3.930  16.251  0.00  0.00    +0.000 HD
ENDBRANCH  25  28
ENDBRANCH  23  25
ENDBRANCH  22  23
ENDBRANCH   1  22
TORSDOF 8
ENDMDL
