MODEL 1
REMARK VINA RESULT:      -6.8      0.000      0.000
REMARK  Name = 
REMARK  6 active torsions:
REMARK  status: ('A' for Active; 'I' for Inactive)
REMARK    1  A    between atoms: C_2  and  C_10
REMARK    2  A    between atoms: N_3  and  N_4
REMARK    3  A    between atoms: C_12  and  C_13
REMARK    4  A    between atoms: N_21  and  C_22
REMARK    5  A    between atoms: C_29  and  C_30
REMARK    6  A    between atoms: C_30  and  O_31
REMARK                            x       y       z     vdW  Elec       q    Type
REMARK                         _______ _______ _______ _____ _____    ______ ____
ROOT
ATOM      1  C   UNL     1       2.054  13.236  20.688  0.00  0.00    +0.000 A 
ATOM      2  N   UNL     1       1.014  13.337  21.597  0.00  0.00    +0.000 NA
ATOM      3  C   UNL     1      -0.053  12.758  21.057  0.00  0.00    +0.000 A 
ATOM      4  N   UNL     1       0.283  12.207  19.804  0.00  0.00    +0.000 N 
ATOM      5  C   UNL     1       1.658  12.449  19.602  0.00  0.00    +0.000 A 
ENDROOT
BRANCH   3   6
ATOM      6  C   UNL     1      -1.410  12.716  21.688  0.00  0.00    +0.000 A 
ATOM      7  C   UNL     1      -2.388  13.681  21.354  0.00  0.00    +0.000 A 
ATOM      8  C   UNL     1      -3.561  13.835  22.105  0.00  0.00    +0.000 A 
ATOM      9  C   UNL     1      -3.837  12.953  23.139  0.00  0.00    +0.000 A 
ATOM     10 CL   UNL     1      -5.251  13.167  24.095  0.00  0.00    +0.000 Cl
ATOM     11  C   UNL     1      -2.963  11.905  23.409  0.00  0.00    +0.000 A 
ATOM     12  C   UNL     1      -1.756  11.791  22.696  0.00  0.00    +0.000 A 
ATOM     13 CL   UNL     1      -0.723  10.484  23.173  0.00  0.00    +0.000 Cl
ENDBRANCH   3   6
BRANCH   4  14
ATOM     14  C   UNL     1      -0.598  11.578  18.861  0.00  0.00    +0.000 A 
ATOM     15  C   UNL     1      -0.572  10.185  18.681  0.00  0.00    +0.000 A 
ATOM     16  C   UNL     1      -1.341   9.584  17.677  0.00  0.00    +0.000 A 
ATOM     17  C   UNL     1      -2.194  10.358  16.894  0.00  0.00    +0.000 A 
ATOM     18 CL   UNL     1      -3.134   9.622  15.657  0.00  0.00    +0.000 Cl
ATOM     19  C   UNL     1      -2.266  11.732  17.090  0.00  0.00    +0.000 A 
ATOM     20  C   UNL     1      -1.444  12.344  18.043  0.00  0.00    +0.000 A 
ENDBRANCH   4  14
BRANCH   1  22
ATOM     21  O   UNL     1       4.027  13.803  21.880  0.00  0.00    +0.000 OA
ATOM     22  C   UNL     1       3.350  13.942  20.857  0.00  0.00    +0.000 C 
ATOM     23  N   UNL     1       3.769  14.752  19.799  0.00  0.00    +0.000 N 
ATOM     24  H   UNL     1       3.222  14.753  18.937  0.00  0.00    +0.000 HD
BRANCH  23  25
ATOM     25  N   UNL     1       4.931  15.552  19.973  0.00  0.00    +0.000 NA
ATOM     26  C   UNL     1       6.082  15.103  19.188  0.00  0.00    +0.000 C 
ATOM     27  C   UNL     1       7.333  15.926  19.526  0.00  0.00    +0.000 C 
ATOM     28  C   UNL     1       7.090  17.422  19.359  0.00  0.00    +0.000 C 
ATOM     29  C   UNL     1       5.862  17.848  20.152  0.00  0.00    +0.000 C 
ATOM     30  C   UNL     1       4.644  16.983  19.808  0.00  0.00    +0.000 C 
ENDBRANCH  23  25
ENDBRANCH   1  22
BRANCH   5  31
ATOM     31  C   UNL     1       2.352  12.032  18.337  0.00  0.00    +0.000 C 
BRANCH  31  32
ATOM     32  O   UNL     1       2.462  13.072  17.389  0.00  0.00    +0.000 OA
ATOM     33  H   UNL     1       1.649  13.095  16.842  0.00  0.00    +0.000 HD
ENDBRANCH  31  32
ENDBRANCH   5  31
TORSDOF 6
ENDMDL
MODEL 2
REMARK VINA RESULT:      -6.7      3.776      6.226
REMARK  Name = 
REMARK  6 active torsions:
REMARK  status: ('A' for Active; 'I' for Inactive)
REMARK    1  A    between atoms: C_2  and  C_10
REMARK    2  A    between atoms: N_3  and  N_4
REMARK    3  A    between atoms: C_12  and  C_13
REMARK    4  A    between atoms: N_21  and  C_22
REMARK    5  A    between atoms: C_29  and  C_30
REMARK    6  A    between atoms: C_30  and  O_31
REMARK                            x       y       z     vdW  Elec       q    Type
REMARK                         _______ _______ _______ _____ _____    ______ ____
ROOT
ATOM      1  C   UNL     1       0.711   9.999  19.958  0.00  0.00    +0.000 A 
ATOM      2  N   UNL     1      -0.441  10.142  20.714  0.00  0.00    +0.000 NA
ATOM      3  C   UNL     1      -0.737  11.437  20.757  0.00  0.00    +0.000 A 
ATOM      4  N   UNL     1       0.182  12.165  19.975  0.00  0.00    +0.000 N 
ATOM      5  C   UNL     1       1.067  11.230  19.399  0.00  0.00    +0.000 A 
ENDROOT
BRANCH   3   6
ATOM      6  C   UNL     1      -1.872  12.025  21.536  0.00  0.00    +0.000 A 
ATOM      7  C   UNL     1      -1.780  12.171  22.939  0.00  0.00    +0.000 A 
ATOM      8  C   UNL     1      -2.902  12.465  23.727  0.00  0.00    +0.000 A 
ATOM      9  C   UNL     1      -4.119  12.732  23.119  0.00  0.00    +0.000 A 
ATOM     10 CL   UNL     1      -5.509  13.046  24.082  0.00  0.00    +0.000 Cl
ATOM     11  C   UNL     1      -4.215  12.733  21.731  0.00  0.00    +0.000 A 
ATOM     12  C   UNL     1      -3.105  12.374  20.946  0.00  0.00    +0.000 A 
ATOM     13 CL   UNL     1      -3.373  12.348  19.234  0.00  0.00    +0.000 Cl
ENDBRANCH   3   6
BRANCH   4  14
ATOM     14  C   UNL     1       0.268  13.590  19.829  0.00  0.00    +0.000 A 
ATOM     15  C   UNL     1      -0.331  14.233  18.732  0.00  0.00    +0.000 A 
ATOM     16  C   UNL     1      -0.142  15.605  18.523  0.00  0.00    +0.000 A 
ATOM     17  C   UNL     1       0.582  16.358  19.444  0.00  0.00    +0.000 A 
ATOM     18 CL   UNL     1       0.817  18.041  19.185  0.00  0.00    +0.000 Cl
ATOM     19  C   UNL     1       1.141  15.746  20.559  0.00  0.00    +0.000 A 
ATOM     20  C   UNL     1       1.017  14.364  20.731  0.00  0.00    +0.000 A 
ENDBRANCH   4  14
BRANCH   1  22
ATOM     21  O   UNL     1       1.682   8.023  20.848  0.00  0.00    +0.000 OA
ATOM     22  C   UNL     1       1.457   8.718  19.853  0.00  0.00    +0.000 C 
ATOM     23  N   UNL     1       1.873   8.335  18.576  0.00  0.00    +0.000 N 
ATOM     24  H   UNL     1       1.575   8.893  17.775  0.00  0.00    +0.000 HD
BRANCH  23  25
ATOM     25  N   UNL     1       2.707   7.190  18.446  0.00  0.00    +0.000 NA
ATOM     26  C   UNL     1       1.977   5.956  18.152  0.00  0.00    +0.000 C 
ATOM     27  C   UNL     1       2.920   4.744  18.161  0.00  0.00    +0.000 C 
ATOM     28  C   UNL     1       4.099   4.937  17.214  0.00  0.00    +0.000 C 
ATOM     29  C   UNL     1       4.810   6.249  17.519  0.00  0.00    +0.000 C 
ATOM     30  C   UNL     1       3.830   7.428  17.531  0.00  0.00    +0.000 C 
ENDBRANCH  23  25
ENDBRANCH   1  22
BRANCH   5  31
ATOM     31  C   UNL     1       2.213  11.663  18.531  0.00  0.00    +0.000 C 
BRANCH  31  32
ATOM     32  O   UNL     1       2.314  10.932  17.328  0.00  0.00    +0.000 OA
ATOM     33  H   UNL     1       1.881  11.437  16.609  0.00  0.00    +0.000 HD
ENDBRANCH  31  32
ENDBRANCH   5  31
TORSDOF 6
ENDMDL
MODEL 3
REMARK VINA RESULT:      -6.7      4.089      7.106
REMARK  Name = 
REMARK  6 active torsions:
REMARK  status: ('A' for Active; 'I' for Inactive)
REMARK    1  A    between atoms: C_2  and  C_10
REMARK    2  A    between atoms: N_3  and  N_4
REMARK    3  A    between atoms: C_12  and  C_13
REMARK    4  A    between atoms: N_21  and  C_22
REMARK    5  A    between atoms: C_29  and  C_30
REMARK    6  A    between atoms: C_30  and  O_31
REMARK                            x       y       z     vdW  Elec       q    Type
REMARK                         _______ _______ _______ _____ _____    ______ ____
ROOT
ATOM      1  C   UNL     1       1.303  10.259  19.062  0.00  0.00    +0.000 A 
ATOM      2  N   UNL     1       1.633  11.580  18.810  0.00  0.00    +0.000 NA
ATOM      3  C   UNL     1       0.835  12.344  19.549  0.00  0.00    +0.000 A 
ATOM      4  N   UNL     1       0.005  11.534  20.351  0.00  0.00    +0.000 N 
ATOM      5  C   UNL     1       0.360  10.194  20.092  0.00  0.00    +0.000 A 
ENDROOT
BRANCH   3   6
ATOM      6  C   UNL     1       0.818  13.840  19.516  0.00  0.00    +0.000 A 
ATOM      7  C   UNL     1      -0.193  14.531  18.810  0.00  0.00    +0.000 A 
ATOM      8  C   UNL     1      -0.097  15.903  18.536  0.00  0.00    +0.000 A 
ATOM      9  C   UNL     1       0.956  16.638  19.059  0.00  0.00    +0.000 A 
ATOM     10 CL   UNL     1       1.104  18.309  18.684  0.00  0.00    +0.000 Cl
ATOM     11  C   UNL     1       1.897  16.017  19.873  0.00  0.00    +0.000 A 
ATOM     12  C   UNL     1       1.835  14.629  20.094  0.00  0.00    +0.000 A 
ATOM     13 CL   UNL     1       3.103  13.967  21.071  0.00  0.00    +0.000 Cl
ENDBRANCH   3   6
BRANCH   4  14
ATOM     14  C   UNL     1      -1.055  11.960  21.221  0.00  0.00    +0.000 A 
ATOM     15  C   UNL     1      -0.876  11.962  22.615  0.00  0.00    +0.000 A 
ATOM     16  C   UNL     1      -1.947  12.259  23.467  0.00  0.00    +0.000 A 
ATOM     17  C   UNL     1      -3.181  12.626  22.936  0.00  0.00    +0.000 A 
ATOM     18 CL   UNL     1      -4.497  12.985  23.982  0.00  0.00    +0.000 Cl
ATOM     19  C   UNL     1      -3.361  12.674  21.559  0.00  0.00    +0.000 A 
ATOM     20  C   UNL     1      -2.314  12.307  20.706  0.00  0.00    +0.000 A 
ENDBRANCH   4  14
BRANCH   1  22
ATOM     21  O   UNL     1       1.958   9.193  17.044  0.00  0.00    +0.000 OA
ATOM     22  C   UNL     1       1.845   9.123  18.271  0.00  0.00    +0.000 C 
ATOM     23  N   UNL     1       2.234   7.988  18.985  0.00  0.00    +0.000 N 
ATOM     24  H   UNL     1       2.214   8.020  20.005  0.00  0.00    +0.000 HD
BRANCH  23  25
ATOM     25  N   UNL     1       2.628   6.830  18.260  0.00  0.00    +0.000 NA
ATOM     26  C   UNL     1       4.051   6.800  17.920  0.00  0.00    +0.000 C 
ATOM     27  C   UNL     1       4.377   5.596  17.025  0.00  0.00    +0.000 C 
ATOM     28  C   UNL     1       3.924   4.283  17.655  0.00  0.00    +0.000 C 
ATOM     29  C   UNL     1       2.453   4.362  18.036  0.00  0.00    +0.000 C 
ATOM     30  C   UNL     1       2.163   5.594  18.902  0.00  0.00    +0.000 C 
ENDBRANCH  23  25
ENDBRANCH   1  22
BRANCH   5  31
ATOM     31  C   UNL     1      -0.357   9.050  20.748  0.00  0.00    +0.000 C 
BRANCH  31  32
ATOM     32  O   UNL     1       0.505   8.158  21.422  0.00  0.00    +0.000 OA
ATOM     33  H   UNL     1       1.431   8.354  21.168  0.00  0.00    +0.000 HD
ENDBRANCH  31  32
ENDBRANCH   5  31
TORSDOF 6
ENDMDL
MODEL 4
REMARK VINA RESULT:      -6.6      3.537      6.365
REMARK  Name = 
REMARK  6 active torsions:
REMARK  status: ('A' for Active; 'I' for Inactive)
REMARK    1  A    between atoms: C_2  and  C_10
REMARK    2  A    between atoms: N_3  and  N_4
REMARK    3  A    between atoms: C_12  and  C_13
REMARK    4  A    between atoms: N_21  and  C_22
REMARK    5  A    between atoms: C_29  and  C_30
REMARK    6  A    between atoms: C_30  and  O_31
REMARK                            x       y       z     vdW  Elec       q    Type
REMARK                         _______ _______ _______ _____ _____    ______ ____
ROOT
ATOM      1  C   UNL     1       0.949  10.385  18.914  0.00  0.00    +0.000 A 
ATOM      2  N   UNL     1      -0.223  10.310  19.649  0.00  0.00    +0.000 NA
ATOM      3  C   UNL     1      -0.437  11.505  20.191  0.00  0.00    +0.000 A 
ATOM      4  N   UNL     1       0.561  12.408  19.769  0.00  0.00    +0.000 N 
ATOM      5  C   UNL     1       1.408  11.705  18.888  0.00  0.00    +0.000 A 
ENDROOT
BRANCH   3   6
ATOM      6  C   UNL     1      -1.563  11.829  21.122  0.00  0.00    +0.000 A 
ATOM      7  C   UNL     1      -2.628  12.657  20.699  0.00  0.00    +0.000 A 
ATOM      8  C   UNL     1      -3.553  13.194  21.606  0.00  0.00    +0.000 A 
ATOM      9  C   UNL     1      -3.502  12.823  22.941  0.00  0.00    +0.000 A 
ATOM     10 CL   UNL     1      -4.603  13.515  24.066  0.00  0.00    +0.000 Cl
ATOM     11  C   UNL     1      -2.552  11.902  23.369  0.00  0.00    +0.000 A 
ATOM     12  C   UNL     1      -1.585  11.414  22.470  0.00  0.00    +0.000 A 
ATOM     13 CL   UNL     1      -0.416  10.326  23.142  0.00  0.00    +0.000 Cl
ENDBRANCH   3   6
BRANCH   4  14
ATOM     14  C   UNL     1       0.746  13.766  20.194  0.00  0.00    +0.000 A 
ATOM     15  C   UNL     1       1.409  14.052  21.400  0.00  0.00    +0.000 A 
ATOM     16  C   UNL     1       1.481  15.367  21.876  0.00  0.00    +0.000 A 
ATOM     17  C   UNL     1       0.958  16.413  21.120  0.00  0.00    +0.000 A 
ATOM     18 CL   UNL     1       1.042  18.026  21.707  0.00  0.00    +0.000 Cl
ATOM     19  C   UNL     1       0.341  16.152  19.903  0.00  0.00    +0.000 A 
ATOM     20  C   UNL     1       0.201  14.832  19.461  0.00  0.00    +0.000 A 
ENDBRANCH   4  14
BRANCH   1  22
ATOM     21  O   UNL     1       1.886   9.138  17.124  0.00  0.00    +0.000 OA
ATOM     22  C   UNL     1       1.614   9.193  18.328  0.00  0.00    +0.000 C 
ATOM     23  N   UNL     1       1.930   8.153  19.204  0.00  0.00    +0.000 N 
ATOM     24  H   UNL     1       1.776   8.290  20.204  0.00  0.00    +0.000 HD
BRANCH  23  25
ATOM     25  N   UNL     1       2.441   6.939  18.666  0.00  0.00    +0.000 NA
ATOM     26  C   UNL     1       3.764   7.073  18.057  0.00  0.00    +0.000 C 
ATOM     27  C   UNL     1       4.192   5.763  17.379  0.00  0.00    +0.000 C 
ATOM     28  C   UNL     1       4.135   4.582  18.342  0.00  0.00    +0.000 C 
ATOM     29  C   UNL     1       2.760   4.498  18.990  0.00  0.00    +0.000 C 
ATOM     30  C   UNL     1       2.357   5.833  19.628  0.00  0.00    +0.000 C 
ENDBRANCH  23  25
ENDBRANCH   1  22
BRANCH   5  31
ATOM     31  C   UNL     1       2.616  12.353  18.275  0.00  0.00    +0.000 C 
BRANCH  31  32
ATOM     32  O   UNL     1       2.328  13.084  17.103  0.00  0.00    +0.000 OA
ATOM     33  H   UNL     1       2.223  14.031  17.334  0.00  0.00    +0.000 HD
ENDBRANCH  31  32
ENDBRANCH   5  31
TORSDOF 6
ENDMDL
MODEL 5
REMARK VINA RESULT:      -6.5      3.627      8.142
REMARK  Name = 
REMARK  6 active torsions:
REMARK  status: ('A' for Active; 'I' for Inactive)
REMARK    1  A    between atoms: C_2  and  C_10
REMARK    2  A    between atoms: N_3  and  N_4
REMARK    3  A    between atoms: C_12  and  C_13
REMARK    4  A    between atoms: N_21  and  C_22
REMARK    5  A    between atoms: C_29  and  C_30
REMARK    6  A    between atoms: C_30  and  O_31
REMARK                            x       y       z     vdW  Elec       q    Type
REMARK                         _______ _______ _______ _____ _____    ______ ____
ROOT
ATOM      1  C   UNL     1      -2.092  12.483  20.831  0.00  0.00    +0.000 A 
ATOM      2  N   UNL     1      -1.545  11.233  20.592  0.00  0.00    +0.000 NA
ATOM      3  C   UNL     1      -0.284  11.410  20.210  0.00  0.00    +0.000 A 
ATOM      4  N   UNL     1       0.042  12.781  20.253  0.00  0.00    +0.000 N 
ATOM      5  C   UNL     1      -1.100  13.462  20.726  0.00  0.00    +0.000 A 
ENDROOT
BRANCH   3   6
ATOM      6  C   UNL     1       0.640  10.311  19.786  0.00  0.00    +0.000 A 
ATOM      7  C   UNL     1       1.053  10.201  18.439  0.00  0.00    +0.000 A 
ATOM      8  C   UNL     1       1.694   9.051  17.954  0.00  0.00    +0.000 A 
ATOM      9  C   UNL     1       2.037   8.033  18.830  0.00  0.00    +0.000 A 
ATOM     10 CL   UNL     1       2.778   6.601  18.233  0.00  0.00    +0.000 Cl
ATOM     11  C   UNL     1       1.768   8.167  20.188  0.00  0.00    +0.000 A 
ATOM     12  C   UNL     1       1.069   9.292  20.663  0.00  0.00    +0.000 A 
ATOM     13 CL   UNL     1       0.737   9.308  22.363  0.00  0.00    +0.000 Cl
ENDBRANCH   3   6
BRANCH   4  14
ATOM     14  C   UNL     1       1.266  13.401  19.835  0.00  0.00    +0.000 A 
ATOM     15  C   UNL     1       1.465  13.751  18.488  0.00  0.00    +0.000 A 
ATOM     16  C   UNL     1       2.703  14.242  18.057  0.00  0.00    +0.000 A 
ATOM     17  C   UNL     1       3.728  14.456  18.976  0.00  0.00    +0.000 A 
ATOM     18 CL   UNL     1       5.250  15.054  18.446  0.00  0.00    +0.000 Cl
ATOM     19  C   UNL     1       3.532  14.159  20.319  0.00  0.00    +0.000 A 
ATOM     20  C   UNL     1       2.321  13.599  20.740  0.00  0.00    +0.000 A 
ENDBRANCH   4  14
BRANCH   1  22
ATOM     21  O   UNL     1      -4.375  12.557  20.185  0.00  0.00    +0.000 OA
ATOM     22  C   UNL     1      -3.540  12.699  21.083  0.00  0.00    +0.000 C 
ATOM     23  N   UNL     1      -3.907  13.049  22.384  0.00  0.00    +0.000 N 
ATOM     24  H   UNL     1      -3.191  13.054  23.111  0.00  0.00    +0.000 HD
BRANCH  23  25
ATOM     25  N   UNL     1      -5.262  13.399  22.638  0.00  0.00    +0.000 NA
ATOM     26  C   UNL     1      -5.805  12.811  23.863  0.00  0.00    +0.000 C 
ATOM     27  C   UNL     1      -7.303  13.117  24.003  0.00  0.00    +0.000 C 
ATOM     28  C   UNL     1      -7.585  14.614  23.927  0.00  0.00    +0.000 C 
ATOM     29  C   UNL     1      -6.970  15.202  22.664  0.00  0.00    +0.000 C 
ATOM     30  C   UNL     1      -5.483  14.848  22.547  0.00  0.00    +0.000 C 
ENDBRANCH  23  25
ENDBRANCH   1  22
BRANCH   5  31
ATOM     31  C   UNL     1      -1.124  14.958  20.857  0.00  0.00    +0.000 C 
BRANCH  31  32
ATOM     32  O   UNL     1      -1.555  15.617  19.686  0.00  0.00    +0.000 OA
ATOM     33  H   UNL     1      -1.958  16.476  19.931  0.00  0.00    +0.000 HD
ENDBRANCH  31  32
ENDBRANCH   5  31
TORSDOF 6
ENDMDL
MODEL 6
REMARK VINA RESULT:      -6.4      1.099      1.432
REMARK  Name = 
REMARK  6 active torsions:
REMARK  status: ('A' for Active; 'I' for Inactive)
REMARK    1  A    between atoms: C_2  and  C_10
REMARK    2  A    between atoms: N_3  and  N_4
REMARK    3  A    between atoms: C_12  and  C_13
REMARK    4  A    between atoms: N_21  and  C_22
REMARK    5  A    between atoms: C_29  and  C_30
REMARK    6  A    between atoms: C_30  and  O_31
REMARK                            x       y       z     vdW  Elec       q    Type
REMARK                         _______ _______ _______ _____ _____    ______ ____
ROOT
ATOM      1  C   UNL     1       2.300  13.422  20.647  0.00  0.00    +0.000 A 
ATOM      2  N   UNL     1       1.328  13.647  21.608  0.00  0.00    +0.000 NA
ATOM      3  C   UNL     1       0.202  13.084  21.183  0.00  0.00    +0.000 A 
ATOM      4  N   UNL     1       0.430  12.420  19.961  0.00  0.00    +0.000 N 
ATOM      5  C   UNL     1       1.798  12.575  19.655  0.00  0.00    +0.000 A 
ENDROOT
BRANCH   3   6
ATOM      6  C   UNL     1      -1.111  13.160  21.898  0.00  0.00    +0.000 A 
ATOM      7  C   UNL     1      -1.461  12.188  22.863  0.00  0.00    +0.000 A 
ATOM      8  C   UNL     1      -2.769  12.073  23.355  0.00  0.00    +0.000 A 
ATOM      9  C   UNL     1      -3.730  12.998  22.979  0.00  0.00    +0.000 A 
ATOM     10 CL   UNL     1      -5.347  12.832  23.541  0.00  0.00    +0.000 Cl
ATOM     11  C   UNL     1      -3.388  14.050  22.137  0.00  0.00    +0.000 A 
ATOM     12  C   UNL     1      -2.092  14.128  21.594  0.00  0.00    +0.000 A 
ATOM     13 CL   UNL     1      -1.811  15.447  20.506  0.00  0.00    +0.000 Cl
ENDBRANCH   3   6
BRANCH   4  14
ATOM     14  C   UNL     1      -0.539  11.765  19.128  0.00  0.00    +0.000 A 
ATOM     15  C   UNL     1      -0.745  10.379  19.228  0.00  0.00    +0.000 A 
ATOM     16  C   UNL     1      -1.598   9.721  18.334  0.00  0.00    +0.000 A 
ATOM     17  C   UNL     1      -2.307  10.449  17.381  0.00  0.00    +0.000 A 
ATOM     18 CL   UNL     1      -3.350   9.642  16.280  0.00  0.00    +0.000 Cl
ATOM     19  C   UNL     1      -2.150  11.828  17.299  0.00  0.00    +0.000 A 
ATOM     20  C   UNL     1      -1.242  12.477  18.143  0.00  0.00    +0.000 A 
ENDBRANCH   4  14
BRANCH   1  22
ATOM     21  O   UNL     1       4.322  14.079  21.705  0.00  0.00    +0.000 OA
ATOM     22  C   UNL     1       3.636  14.072  20.678  0.00  0.00    +0.000 C 
ATOM     23  N   UNL     1       4.080  14.655  19.490  0.00  0.00    +0.000 N 
ATOM     24  H   UNL     1       3.520  14.534  18.645  0.00  0.00    +0.000 HD
BRANCH  23  25
ATOM     25  N   UNL     1       5.288  15.406  19.509  0.00  0.00    +0.000 NA
ATOM     26  C   UNL     1       6.206  15.080  18.418  0.00  0.00    +0.000 C 
ATOM     27  C   UNL     1       7.539  15.825  18.578  0.00  0.00    +0.000 C 
ATOM     28  C   UNL     1       7.333  17.331  18.707  0.00  0.00    +0.000 C 
ATOM     29  C   UNL     1       6.341  17.634  19.821  0.00  0.00    +0.000 C 
ATOM     30  C   UNL     1       5.038  16.847  19.641  0.00  0.00    +0.000 C 
ENDBRANCH  23  25
ENDBRANCH   1  22
BRANCH   5  31
ATOM     31  C   UNL     1       2.388  12.026  18.388  0.00  0.00    +0.000 C 
BRANCH  31  32
ATOM     32  O   UNL     1       2.477  12.979  17.351  0.00  0.00    +0.000 OA
ATOM     33  H   UNL     1       1.995  13.789  17.618  0.00  0.00    +0.000 HD
ENDBRANCH  31  32
ENDBRANCH   5  31
TORSDOF 6
ENDMDL
MODEL 7
REMARK VINA RESULT:      -6.4      1.551      1.829
REMARK  Name = 
REMARK  6 active torsions:
REMARK  status: ('A' for Active; 'I' for Inactive)
REMARK    1  A    between atoms: C_2  and  C_10
REMARK    2  A    between atoms: N_3  and  N_4
REMARK    3  A    between atoms: C_12  and  C_13
REMARK    4  A    between atoms: N_21  and  C_22
REMARK    5  A    between atoms: C_29  and  C_30
REMARK    6  A    between atoms: C_30  and  O_31
REMARK                            x       y       z     vdW  Elec       q    Type
REMARK                         _______ _______ _______ _____ _____    ______ ____
ROOT
ATOM      1  C   UNL     1       2.388  13.564  20.608  0.00  0.00    +0.000 A 
ATOM      2  N   UNL     1       1.427  13.544  21.605  0.00  0.00    +0.000 NA
ATOM      3  C   UNL     1       0.377  12.875  21.140  0.00  0.00    +0.000 A 
ATOM      4  N   UNL     1       0.654  12.386  19.847  0.00  0.00    +0.000 N 
ATOM      5  C   UNL     1       1.977  12.765  19.537  0.00  0.00    +0.000 A 
ENDROOT
BRANCH   3   6
ATOM      6  C   UNL     1      -0.909  12.686  21.882  0.00  0.00    +0.000 A 
ATOM      7  C   UNL     1      -1.860  13.731  21.948  0.00  0.00    +0.000 A 
ATOM      8  C   UNL     1      -2.941  13.692  22.840  0.00  0.00    +0.000 A 
ATOM      9  C   UNL     1      -3.161  12.556  23.605  0.00  0.00    +0.000 A 
ATOM     10 CL   UNL     1      -4.456  12.522  24.736  0.00  0.00    +0.000 Cl
ATOM     11  C   UNL     1      -2.324  11.454  23.466  0.00  0.00    +0.000 A 
ATOM     12  C   UNL     1      -1.204  11.520  22.619  0.00  0.00    +0.000 A 
ATOM     13 CL   UNL     1      -0.204  10.105  22.585  0.00  0.00    +0.000 Cl
ENDBRANCH   3   6
BRANCH   4  14
ATOM     14  C   UNL     1      -0.241  11.694  18.965  0.00  0.00    +0.000 A 
ATOM     15  C   UNL     1      -0.074  10.322  18.711  0.00  0.00    +0.000 A 
ATOM     16  C   UNL     1      -0.869   9.673  17.757  0.00  0.00    +0.000 A 
ATOM     17  C   UNL     1      -1.882  10.370  17.103  0.00  0.00    +0.000 A 
ATOM     18 CL   UNL     1      -2.853   9.576  15.928  0.00  0.00    +0.000 Cl
ATOM     19  C   UNL     1      -2.091  11.717  17.376  0.00  0.00    +0.000 A 
ATOM     20  C   UNL     1      -1.250  12.384  18.274  0.00  0.00    +0.000 A 
ENDBRANCH   4  14
BRANCH   1  22
ATOM     21  O   UNL     1       3.921  15.182  19.788  0.00  0.00    +0.000 OA
ATOM     22  C   UNL     1       3.621  14.390  20.687  0.00  0.00    +0.000 C 
ATOM     23  N   UNL     1       4.407  14.239  21.831  0.00  0.00    +0.000 N 
ATOM     24  H   UNL     1       4.063  13.648  22.588  0.00  0.00    +0.000 HD
BRANCH  23  25
ATOM     25  N   UNL     1       5.663  14.905  21.888  0.00  0.00    +0.000 NA
ATOM     26  C   UNL     1       5.690  16.039  22.812  0.00  0.00    +0.000 C 
ATOM     27  C   UNL     1       7.026  16.791  22.720  0.00  0.00    +0.000 C 
ATOM     28  C   UNL     1       8.215  15.861  22.939  0.00  0.00    +0.000 C 
ATOM     29  C   UNL     1       8.133  14.671  21.993  0.00  0.00    +0.000 C 
ATOM     30  C   UNL     1       6.774  13.968  22.092  0.00  0.00    +0.000 C 
ENDBRANCH  23  25
ENDBRANCH   1  22
BRANCH   5  31
ATOM     31  C   UNL     1       2.594  12.446  18.206  0.00  0.00    +0.000 C 
BRANCH  31  32
ATOM     32  O   UNL     1       2.310  13.404  17.210  0.00  0.00    +0.000 OA
ATOM     33  H   UNL     1       3.146  13.672  16.775  0.00  0.00    +0.000 HD
ENDBRANCH  31  32
ENDBRANCH   5  31
TORSDOF 6
ENDMDL
MODEL 8
REMARK VINA RESULT:      -6.4      3.704      6.074
REMARK  Name = 
REMARK  6 active torsions:
REMARK  status: ('A' for Active; 'I' for Inactive)
REMARK    1  A    between atoms: C_2  and  C_10
REMARK    2  A    between atoms: N_3  and  N_4
REMARK    3  A    between atoms: C_12  and  C_13
REMARK    4  A    between atoms: N_21  and  C_22
REMARK    5  A    between atoms: C_29  and  C_30
REMARK    6  A    between atoms: C_30  and  O_31
REMARK                            x       y       z     vdW  Elec       q    Type
REMARK                         _______ _______ _______ _____ _____    ______ ____
ROOT
ATOM      1  C   UNL     1       0.645  10.199  19.598  0.00  0.00    +0.000 A 
ATOM      2  N   UNL     1      -0.634  10.277  20.125  0.00  0.00    +0.000 NA
ATOM      3  C   UNL     1      -0.964  11.562  20.197  0.00  0.00    +0.000 A 
ATOM      4  N   UNL     1       0.071  12.353  19.657  0.00  0.00    +0.000 N 
ATOM      5  C   UNL     1       1.073  11.470  19.203  0.00  0.00    +0.000 A 
ENDROOT
BRANCH   3   6
ATOM      6  C   UNL     1      -2.241  12.082  20.779  0.00  0.00    +0.000 A 
ATOM      7  C   UNL     1      -3.275  12.551  19.937  0.00  0.00    +0.000 A 
ATOM      8  C   UNL     1      -4.363  13.280  20.437  0.00  0.00    +0.000 A 
ATOM      9  C   UNL     1      -4.499  13.461  21.805  0.00  0.00    +0.000 A 
ATOM     10 CL   UNL     1      -5.804  14.396  22.421  0.00  0.00    +0.000 Cl
ATOM     11  C   UNL     1      -3.573  12.896  22.675  0.00  0.00    +0.000 A 
ATOM     12  C   UNL     1      -2.448  12.219  22.168  0.00  0.00    +0.000 A 
ATOM     13 CL   UNL     1      -1.334  11.620  23.352  0.00  0.00    +0.000 Cl
ENDBRANCH   3   6
BRANCH   4  14
ATOM     14  C   UNL     1       0.150  13.786  19.627  0.00  0.00    +0.000 A 
ATOM     15  C   UNL     1       0.596  14.500  20.753  0.00  0.00    +0.000 A 
ATOM     16  C   UNL     1       0.556  15.899  20.768  0.00  0.00    +0.000 A 
ATOM     17  C   UNL     1       0.141  16.598  19.636  0.00  0.00    +0.000 A 
ATOM     18 CL   UNL     1       0.088  18.316  19.656  0.00  0.00    +0.000 Cl
ATOM     19  C   UNL     1      -0.258  15.908  18.498  0.00  0.00    +0.000 A 
ATOM     20  C   UNL     1      -0.290  14.509  18.507  0.00  0.00    +0.000 A 
ENDBRANCH   4  14
BRANCH   1  22
ATOM     21  O   UNL     1       1.624   8.268  20.574  0.00  0.00    +0.000 OA
ATOM     22  C   UNL     1       1.428   8.937  19.555  0.00  0.00    +0.000 C 
ATOM     23  N   UNL     1       1.912   8.539  18.306  0.00  0.00    +0.000 N 
ATOM     24  H   UNL     1       1.637   9.073  17.481  0.00  0.00    +0.000 HD
BRANCH  23  25
ATOM     25  N   UNL     1       2.780   7.414  18.239  0.00  0.00    +0.000 NA
ATOM     26  C   UNL     1       2.085   6.141  18.046  0.00  0.00    +0.000 C 
ATOM     27  C   UNL     1       3.066   4.963  18.119  0.00  0.00    +0.000 C 
ATOM     28  C   UNL     1       4.222   5.126  17.137  0.00  0.00    +0.000 C 
ATOM     29  C   UNL     1       4.895   6.477  17.336  0.00  0.00    +0.000 C 
ATOM     30  C   UNL     1       3.877   7.623  17.287  0.00  0.00    +0.000 C 
ENDBRANCH  23  25
ENDBRANCH   1  22
BRANCH   5  31
ATOM     31  C   UNL     1       2.354  11.975  18.605  0.00  0.00    +0.000 C 
BRANCH  31  32
ATOM     32  O   UNL     1       2.574  11.522  17.286  0.00  0.00    +0.000 OA
ATOM     33  H   UNL     1       3.091  10.690  17.315  0.00  0.00    +0.000 HD
ENDBRANCH  31  32
ENDBRANCH   5  31
TORSDOF 6
ENDMDL
MODEL 9
REMARK VINA RESULT:      -6.3      1.092      1.458
REMARK  Name = 
REMARK  6 active torsions:
REMARK  status: ('A' for Active; 'I' for Inactive)
REMARK    1  A    between atoms: C_2  and  C_10
REMARK    2  A    between atoms: N_3  and  N_4
REMARK    3  A    between atoms: C_12  and  C_13
REMARK    4  A    between atoms: N_21  and  C_22
REMARK    5  A    between atoms: C_29  and  C_30
REMARK    6  A    between atoms: C_30  and  O_31
REMARK                            x       y       z     vdW  Elec       q    Type
REMARK                         _______ _______ _______ _____ _____    ______ ____
ROOT
ATOM      1  C   UNL     1       2.346  14.143  20.638  0.00  0.00    +0.000 A 
ATOM      2  N   UNL     1       1.383  14.018  21.627  0.00  0.00    +0.000 NA
ATOM      3  C   UNL     1       0.413  13.245  21.151  0.00  0.00    +0.000 A 
ATOM      4  N   UNL     1       0.751  12.793  19.859  0.00  0.00    +0.000 N 
ATOM      5  C   UNL     1       2.029  13.310  19.561  0.00  0.00    +0.000 A 
ENDROOT
BRANCH   3   6
ATOM      6  C   UNL     1      -0.853  12.920  21.881  0.00  0.00    +0.000 A 
ATOM      7  C   UNL     1      -1.881  13.883  21.998  0.00  0.00    +0.000 A 
ATOM      8  C   UNL     1      -2.954  13.715  22.885  0.00  0.00    +0.000 A 
ATOM      9  C   UNL     1      -3.083  12.529  23.592  0.00  0.00    +0.000 A 
ATOM     10 CL   UNL     1      -4.369  12.337  24.717  0.00  0.00    +0.000 Cl
ATOM     11  C   UNL     1      -2.164  11.503  23.399  0.00  0.00    +0.000 A 
ATOM     12  C   UNL     1      -1.053  11.698  22.557  0.00  0.00    +0.000 A 
ATOM     13 CL   UNL     1       0.054  10.370  22.454  0.00  0.00    +0.000 Cl
ENDBRANCH   3   6
BRANCH   4  14
ATOM     14  C   UNL     1      -0.059  12.014  18.966  0.00  0.00    +0.000 A 
ATOM     15  C   UNL     1      -1.145  12.601  18.293  0.00  0.00    +0.000 A 
ATOM     16  C   UNL     1      -2.009  11.817  17.519  0.00  0.00    +0.000 A 
ATOM     17  C   UNL     1      -1.757  10.458  17.352  0.00  0.00    +0.000 A 
ATOM     18 CL   UNL     1      -2.820   9.494  16.407  0.00  0.00    +0.000 Cl
ATOM     19  C   UNL     1      -0.660   9.871  17.973  0.00  0.00    +0.000 A 
ATOM     20  C   UNL     1       0.162  10.637  18.806  0.00  0.00    +0.000 A 
ENDBRANCH   4  14
BRANCH   1  22
ATOM     21  O   UNL     1       3.333  16.232  21.185  0.00  0.00    +0.000 OA
ATOM     22  C   UNL     1       3.484  15.093  20.732  0.00  0.00    +0.000 C 
ATOM     23  N   UNL     1       4.728  14.630  20.299  0.00  0.00    +0.000 N 
ATOM     24  H   UNL     1       4.819  13.650  20.028  0.00  0.00    +0.000 HD
BRANCH  23  25
ATOM     25  N   UNL     1       5.814  15.546  20.241  0.00  0.00    +0.000 NA
ATOM     26  C   UNL     1       7.048  15.042  20.846  0.00  0.00    +0.000 C 
ATOM     27  C   UNL     1       8.133  16.128  20.870  0.00  0.00    +0.000 C 
ATOM     28  C   UNL     1       8.385  16.707  19.482  0.00  0.00    +0.000 C 
ATOM     29  C   UNL     1       7.077  17.183  18.864  0.00  0.00    +0.000 C 
ATOM     30  C   UNL     1       6.012  16.080  18.888  0.00  0.00    +0.000 C 
ENDBRANCH  23  25
ENDBRANCH   1  22
BRANCH   5  31
ATOM     31  C   UNL     1       2.688  13.062  18.235  0.00  0.00    +0.000 C 
BRANCH  31  32
ATOM     32  O   UNL     1       3.171  14.237  17.620  0.00  0.00    +0.000 OA
ATOM     33  H   UNL     1       2.430  14.870  17.512  0.00  0.00    +0.000 HD
ENDBRANCH  31  32
ENDBRANCH   5  31
TORSDOF 6
ENDMDL
