MODEL 1
REMARK VINA RESULT:      -8.1      0.000      0.000
REMARK  Name = 
REMARK  11 active torsions:
REMARK  status: ('A' for Active; 'I' for Inactive)
REMARK    1  A    between atoms: C_1  and  C_2
REMARK    2  A    between atoms: C_3  and  C_4
REMARK    3  A    between atoms: C_4  and  C_5
REMARK    4  A    between atoms: C_4  and  C_9
REMARK    5  A    between atoms: C_5  and  C_6
REMARK    6  A    between atoms: C_6  and  O_8
REMARK    7  A    between atoms: C_12  and  O_13
REMARK    8  A    between atoms: O_13  and  C_14
REMARK    9  A    between atoms: C_14  and  C_15
REMARK   10  A    between atoms: C_18  and  C_19
REMARK   11  A    between atoms: N_24  and  C_25
REMARK                            x       y       z     vdW  Elec       q    Type
REMARK                         _______ _______ _______ _____ _____    ______ ____
ROOT
ATOM      1  C   UNL     1       1.710  12.688  19.585  0.00  0.00    +0.000 A 
ATOM      2  C   UNL     1       1.834  12.994  18.271  0.00  0.00    +0.000 A 
ATOM      3  C   UNL     1       2.593  14.152  18.054  0.00  0.00    +0.000 A 
ATOM      4  C   UNL     1       3.002  14.800  19.206  0.00  0.00    +0.000 A 
ATOM      5  S   UNL     1       2.525  13.856  20.573  0.00  0.00    +0.000 S 
ENDROOT
BRANCH   4   6
ATOM      6  C   UNL     1       3.812  16.042  19.314  0.00  0.00    +0.000 C 
ATOM      7  O   UNL     1       3.416  17.061  19.877  0.00  0.00    +0.000 OA
ATOM      8  N   UNL     1       5.119  15.983  18.773  0.00  0.00    +0.000 N 
ATOM      9  C   UNL     1       6.098  17.067  18.952  0.00  0.00    +0.000 C 
ATOM     10  C   UNL     1       7.452  16.490  19.450  0.00  0.00    +0.000 C 
ATOM     11  N   UNL     1       7.888  15.435  18.517  0.00  0.00    +0.000 N 
ATOM     12  C   UNL     1       6.937  14.344  18.326  0.00  0.00    +0.000 C 
ATOM     13  C   UNL     1       5.612  14.953  17.852  0.00  0.00    +0.000 C 
BRANCH  11  14
ATOM     14  C   UNL     1       9.180  15.377  18.015  0.00  0.00    +0.000 A 
ATOM     15  C   UNL     1       9.768  16.454  17.386  0.00  0.00    +0.000 A 
ATOM     16  C   UNL     1      11.099  16.411  16.937  0.00  0.00    +0.000 A 
ATOM     17  C   UNL     1      11.789  15.214  17.124  0.00  0.00    +0.000 A 
ATOM     18  N   UNL     1      11.262  14.125  17.677  0.00  0.00    +0.000 NA
ATOM     19  C   UNL     1       9.969  14.221  18.111  0.00  0.00    +0.000 A 
ENDBRANCH  11  14
ENDBRANCH   4   6
BRANCH   1  20
ATOM     20  C   UNL     1       0.918  11.528  20.129  0.00  0.00    +0.000 C 
BRANCH  20  21
ATOM     21  O   UNL     1       0.635  10.608  19.068  0.00  0.00    +0.000 OA
BRANCH  21  25
ATOM     22  C   UNL     1       2.618   6.920  19.223  0.00  0.00    +0.000 A 
ATOM     23  C   UNL     1       2.536   7.659  18.043  0.00  0.00    +0.000 A 
ATOM     24  C   UNL     1       1.916   8.917  18.050  0.00  0.00    +0.000 A 
ATOM     25  C   UNL     1       1.261   9.390  19.192  0.00  0.00    +0.000 A 
ATOM     26  C   UNL     1       1.285   8.624  20.351  0.00  0.00    +0.000 A 
ATOM     27  C   UNL     1       1.947   7.400  20.361  0.00  0.00    +0.000 A 
BRANCH  22  28
ATOM     28  C   UNL     1       3.524   5.711  19.332  0.00  0.00    +0.000 C 
BRANCH  28  31
ATOM     29  C   UNL     1       1.401   2.685  21.614  0.00  0.00    +0.000 C 
ATOM     30  C   UNL     1       2.144   3.744  20.816  0.00  0.00    +0.000 C 
ATOM     31  C   UNL     1       2.781   4.652  20.131  0.00  0.00    +0.000 C 
ENDBRANCH  28  31
BRANCH  28  32
ATOM     32  C   UNL     1       3.910   5.118  17.966  0.00  0.00    +0.000 C 
BRANCH  32  33
ATOM     33  C   UNL     1       5.118   4.196  18.059  0.00  0.00    +0.000 C 
ATOM     34  O   UNL     1       5.920   4.212  18.972  0.00  0.00    +0.000 OA
BRANCH  33  35
ATOM     35  O   UNL     1       5.246   3.344  17.010  0.00  0.00    +0.000 OA
ATOM     36  H   UNL     1       5.775   3.673  16.259  0.00  0.00    +0.000 HD
ENDBRANCH  33  35
ENDBRANCH  32  33
ENDBRANCH  28  32
ENDBRANCH  22  28
ENDBRANCH  21  25
ENDBRANCH  20  21
ENDBRANCH   1  20
TORSDOF 10
ENDMDL
MODEL 2
REMARK VINA RESULT:      -7.8      6.277     10.161
REMARK  Name = 
REMARK  11 active torsions:
REMARK  status: ('A' for Active; 'I' for Inactive)
REMARK    1  A    between atoms: C_1  and  C_2
REMARK    2  A    between atoms: C_3  and  C_4
REMARK    3  A    between atoms: C_4  and  C_5
REMARK    4  A    between atoms: C_4  and  C_9
REMARK    5  A    between atoms: C_5  and  C_6
REMARK    6  A    between atoms: C_6  and  O_8
REMARK    7  A    between atoms: C_12  and  O_13
REMARK    8  A    between atoms: O_13  and  C_14
REMARK    9  A    between atoms: C_14  and  C_15
REMARK   10  A    between atoms: C_18  and  C_19
REMARK   11  A    between atoms: N_24  and  C_25
REMARK                            x       y       z     vdW  Elec       q    Type
REMARK                         _______ _______ _______ _____ _____    ______ ____
ROOT
ATOM      1  C   UNL     1       0.850   9.945  19.800  0.00  0.00    +0.000 A 
ATOM      2  C   UNL     1       0.874   9.675  21.128  0.00  0.00    +0.000 A 
ATOM      3  C   UNL     1       1.335   8.382  21.409  0.00  0.00    +0.000 A 
ATOM      4  C   UNL     1       1.603   7.607  20.295  0.00  0.00    +0.000 A 
ATOM      5  S   UNL     1       1.387   8.577  18.880  0.00  0.00    +0.000 S 
ENDROOT
BRANCH   4   6
ATOM      6  C   UNL     1       2.101   6.207  20.256  0.00  0.00    +0.000 C 
ATOM      7  O   UNL     1       1.640   5.305  20.954  0.00  0.00    +0.000 OA
ATOM      8  N   UNL     1       3.123   5.935  19.314  0.00  0.00    +0.000 N 
ATOM      9  C   UNL     1       3.598   4.570  19.038  0.00  0.00    +0.000 C 
ATOM     10  C   UNL     1       3.620   4.309  17.507  0.00  0.00    +0.000 C 
ATOM     11  N   UNL     1       4.417   5.366  16.859  0.00  0.00    +0.000 N 
ATOM     12  C   UNL     1       3.962   6.730  17.112  0.00  0.00    +0.000 C 
ATOM     13  C   UNL     1       3.939   6.943  18.630  0.00  0.00    +0.000 C 
BRANCH  11  14
ATOM     14  C   UNL     1       5.398   5.084  15.919  0.00  0.00    +0.000 A 
ATOM     15  C   UNL     1       5.179   4.209  14.876  0.00  0.00    +0.000 A 
ATOM     16  C   UNL     1       6.153   3.975  13.891  0.00  0.00    +0.000 A 
ATOM     17  C   UNL     1       7.369   4.643  14.034  0.00  0.00    +0.000 A 
ATOM     18  N   UNL     1       7.659   5.459  15.044  0.00  0.00    +0.000 NA
ATOM     19  C   UNL     1       6.673   5.666  15.969  0.00  0.00    +0.000 A 
ENDBRANCH  11  14
ENDBRANCH   4   6
BRANCH   1  20
ATOM     20  C   UNL     1       0.362  11.233  19.191  0.00  0.00    +0.000 C 
BRANCH  20  21
ATOM     21  O   UNL     1      -0.453  10.941  18.051  0.00  0.00    +0.000 OA
BRANCH  21  25
ATOM     22  C   UNL     1      -4.532  11.384  18.904  0.00  0.00    +0.000 A 
ATOM     23  C   UNL     1      -3.560  12.139  19.561  0.00  0.00    +0.000 A 
ATOM     24  C   UNL     1      -2.212  12.003  19.201  0.00  0.00    +0.000 A 
ATOM     25  C   UNL     1      -1.806  11.026  18.284  0.00  0.00    +0.000 A 
ATOM     26  C   UNL     1      -2.768  10.228  17.677  0.00  0.00    +0.000 A 
ATOM     27  C   UNL     1      -4.112  10.399  17.993  0.00  0.00    +0.000 A 
BRANCH  22  28
ATOM     28  C   UNL     1      -6.005  11.705  19.046  0.00  0.00    +0.000 C 
BRANCH  28  31
ATOM     29  C   UNL     1      -6.890  15.005  16.363  0.00  0.00    +0.000 C 
ATOM     30  C   UNL     1      -6.581  13.850  17.302  0.00  0.00    +0.000 C 
ATOM     31  C   UNL     1      -6.315  12.860  18.107  0.00  0.00    +0.000 C 
ENDBRANCH  28  31
BRANCH  28  32
ATOM     32  C   UNL     1      -6.921  10.521  18.690  0.00  0.00    +0.000 C 
BRANCH  32  33
ATOM     33  C   UNL     1      -7.216   9.638  19.895  0.00  0.00    +0.000 C 
ATOM     34  O   UNL     1      -7.452  10.061  21.009  0.00  0.00    +0.000 OA
BRANCH  33  35
ATOM     35  O   UNL     1      -7.177   8.307  19.629  0.00  0.00    +0.000 OA
ATOM     36  H   UNL     1      -7.991   7.929  19.247  0.00  0.00    +0.000 HD
ENDBRANCH  33  35
ENDBRANCH  32  33
ENDBRANCH  28  32
ENDBRANCH  22  28
ENDBRANCH  21  25
ENDBRANCH  20  21
ENDBRANCH   1  20
TORSDOF 10
ENDMDL
MODEL 3
REMARK VINA RESULT:      -7.7      1.857      3.162
REMARK  Name = 
REMARK  11 active torsions:
REMARK  status: ('A' for Active; 'I' for Inactive)
REMARK    1  A    between atoms: C_1  and  C_2
REMARK    2  A    between atoms: C_3  and  C_4
REMARK    3  A    between atoms: C_4  and  C_5
REMARK    4  A    between atoms: C_4  and  C_9
REMARK    5  A    between atoms: C_5  and  C_6
REMARK    6  A    between atoms: C_6  and  O_8
REMARK    7  A    between atoms: C_12  and  O_13
REMARK    8  A    between atoms: O_13  and  C_14
REMARK    9  A    between atoms: C_14  and  C_15
REMARK   10  A    between atoms: C_18  and  C_19
REMARK   11  A    between atoms: N_24  and  C_25
REMARK                            x       y       z     vdW  Elec       q    Type
REMARK                         _______ _______ _______ _____ _____    ______ ____
ROOT
ATOM      1  C   UNL     1       0.046  11.281  19.440  0.00  0.00    +0.000 A 
ATOM      2  C   UNL     1      -0.748  11.796  18.469  0.00  0.00    +0.000 A 
ATOM      3  C   UNL     1      -0.569  13.176  18.299  0.00  0.00    +0.000 A 
ATOM      4  C   UNL     1       0.313  13.759  19.190  0.00  0.00    +0.000 A 
ATOM      5  S   UNL     1       1.017  12.520  20.168  0.00  0.00    +0.000 S 
ENDROOT
BRANCH   4   6
ATOM      6  C   UNL     1       0.716  15.189  19.270  0.00  0.00    +0.000 C 
ATOM      7  O   UNL     1      -0.028  16.079  19.681  0.00  0.00    +0.000 OA
ATOM      8  N   UNL     1       2.048  15.484  18.894  0.00  0.00    +0.000 N 
ATOM      9  C   UNL     1       2.645  16.816  19.079  0.00  0.00    +0.000 C 
ATOM     10  C   UNL     1       4.023  16.693  19.785  0.00  0.00    +0.000 C 
ATOM     11  N   UNL     1       4.866  15.759  19.017  0.00  0.00    +0.000 N 
ATOM     12  C   UNL     1       4.299  14.427  18.824  0.00  0.00    +0.000 C 
ATOM     13  C   UNL     1       2.937  14.591  18.141  0.00  0.00    +0.000 C 
BRANCH  11  14
ATOM     14  C   UNL     1       6.179  16.052  18.677  0.00  0.00    +0.000 A 
ATOM     15  C   UNL     1       6.736  17.291  18.918  0.00  0.00    +0.000 A 
ATOM     16  C   UNL     1       8.083  17.563  18.632  0.00  0.00    +0.000 A 
ATOM     17  C   UNL     1       8.827  16.533  18.057  0.00  0.00    +0.000 A 
ATOM     18  N   UNL     1       8.335  15.335  17.754  0.00  0.00    +0.000 NA
ATOM     19  C   UNL     1       7.022  15.113  18.066  0.00  0.00    +0.000 A 
ENDBRANCH  11  14
ENDBRANCH   4   6
BRANCH   1  20
ATOM     20  C   UNL     1       0.046   9.841  19.879  0.00  0.00    +0.000 C 
BRANCH  20  21
ATOM     21  O   UNL     1       1.374   9.459  20.255  0.00  0.00    +0.000 OA
BRANCH  21  25
ATOM     22  C   UNL     1       2.529   5.681  18.858  0.00  0.00    +0.000 A 
ATOM     23  C   UNL     1       2.540   6.803  18.029  0.00  0.00    +0.000 A 
ATOM     24  C   UNL     1       2.204   8.059  18.554  0.00  0.00    +0.000 A 
ATOM     25  C   UNL     1       1.731   8.190  19.865  0.00  0.00    +0.000 A 
ATOM     26  C   UNL     1       1.658   7.061  20.672  0.00  0.00    +0.000 A 
ATOM     27  C   UNL     1       2.042   5.822  20.169  0.00  0.00    +0.000 A 
BRANCH  22  28
ATOM     28  C   UNL     1       3.160   4.375  18.421  0.00  0.00    +0.000 C 
BRANCH  28  31
ATOM     29  C   UNL     1       5.836   5.256  15.115  0.00  0.00    +0.000 C 
ATOM     30  C   UNL     1       4.899   4.947  16.272  0.00  0.00    +0.000 C 
ATOM     31  C   UNL     1       4.097   4.683  17.264  0.00  0.00    +0.000 C 
ENDBRANCH  28  31
BRANCH  28  32
ATOM     32  C   UNL     1       3.965   3.688  19.538  0.00  0.00    +0.000 C 
BRANCH  32  33
ATOM     33  C   UNL     1       4.057   2.181  19.338  0.00  0.00    +0.000 C 
ATOM     34  O   UNL     1       3.286   1.535  18.656  0.00  0.00    +0.000 OA
BRANCH  33  35
ATOM     35  O   UNL     1       5.081   1.595  20.010  0.00  0.00    +0.000 OA
ATOM     36  H   UNL     1       5.855   1.349  19.471  0.00  0.00    +0.000 HD
ENDBRANCH  33  35
ENDBRANCH  32  33
ENDBRANCH  28  32
ENDBRANCH  22  28
ENDBRANCH  21  25
ENDBRANCH  20  21
ENDBRANCH   1  20
TORSDOF 10
ENDMDL
MODEL 4
REMARK VINA RESULT:      -7.5      3.888      5.884
REMARK  Name = 
REMARK  11 active torsions:
REMARK  status: ('A' for Active; 'I' for Inactive)
REMARK    1  A    between atoms: C_1  and  C_2
REMARK    2  A    between atoms: C_3  and  C_4
REMARK    3  A    between atoms: C_4  and  C_5
REMARK    4  A    between atoms: C_4  and  C_9
REMARK    5  A    between atoms: C_5  and  C_6
REMARK    6  A    between atoms: C_6  and  O_8
REMARK    7  A    between atoms: C_12  and  O_13
REMARK    8  A    between atoms: O_13  and  C_14
REMARK    9  A    between atoms: C_14  and  C_15
REMARK   10  A    between atoms: C_18  and  C_19
REMARK   11  A    between atoms: N_24  and  C_25
REMARK                            x       y       z     vdW  Elec       q    Type
REMARK                         _______ _______ _______ _____ _____    ______ ____
ROOT
ATOM      1  C   UNL     1       1.410   8.420  20.234  0.00  0.00    +0.000 A 
ATOM      2  C   UNL     1       0.926   8.984  21.368  0.00  0.00    +0.000 A 
ATOM      3  C   UNL     1       0.329  10.232  21.140  0.00  0.00    +0.000 A 
ATOM      4  C   UNL     1       0.412  10.683  19.835  0.00  0.00    +0.000 A 
ATOM      5  S   UNL     1       1.143   9.452  18.867  0.00  0.00    +0.000 S 
ENDROOT
BRANCH   4   6
ATOM      6  C   UNL     1      -0.118  11.955  19.275  0.00  0.00    +0.000 C 
ATOM      7  O   UNL     1      -1.233  12.057  18.767  0.00  0.00    +0.000 OA
ATOM      8  N   UNL     1       0.718  13.090  19.406  0.00  0.00    +0.000 N 
ATOM      9  C   UNL     1       0.268  14.447  19.058  0.00  0.00    +0.000 C 
ATOM     10  C   UNL     1       0.587  15.431  20.217  0.00  0.00    +0.000 C 
ATOM     11  N   UNL     1       2.023  15.338  20.534  0.00  0.00    +0.000 N 
ATOM     12  C   UNL     1       2.494  14.002  20.890  0.00  0.00    +0.000 C 
ATOM     13  C   UNL     1       2.148  13.059  19.732  0.00  0.00    +0.000 C 
BRANCH  11  14
ATOM     14  C   UNL     1       2.824  16.461  20.683  0.00  0.00    +0.000 A 
ATOM     15  C   UNL     1       2.606  17.385  21.683  0.00  0.00    +0.000 A 
ATOM     16  C   UNL     1       3.458  18.487  21.870  0.00  0.00    +0.000 A 
ATOM     17  C   UNL     1       4.517  18.624  20.973  0.00  0.00    +0.000 A 
ATOM     18  N   UNL     1       4.750  17.796  19.959  0.00  0.00    +0.000 NA
ATOM     19  C   UNL     1       3.902  16.731  19.828  0.00  0.00    +0.000 A 
ENDBRANCH  11  14
ENDBRANCH   4   6
BRANCH   1  20
ATOM     20  C   UNL     1       2.142   7.106  20.170  0.00  0.00    +0.000 C 
BRANCH  20  21
ATOM     21  O   UNL     1       1.654   6.345  19.059  0.00  0.00    +0.000 OA
BRANCH  21  25
ATOM     22  C   UNL     1       4.737   4.677  16.763  0.00  0.00    +0.000 A 
ATOM     23  C   UNL     1       4.565   6.058  16.866  0.00  0.00    +0.000 A 
ATOM     24  C   UNL     1       3.558   6.574  17.694  0.00  0.00    +0.000 A 
ATOM     25  C   UNL     1       2.636   5.728  18.320  0.00  0.00    +0.000 A 
ATOM     26  C   UNL     1       2.767   4.353  18.164  0.00  0.00    +0.000 A 
ATOM     27  C   UNL     1       3.799   3.837  17.386  0.00  0.00    +0.000 A 
BRANCH  22  28
ATOM     28  C   UNL     1       5.978   4.086  16.127  0.00  0.00    +0.000 C 
BRANCH  28  31
ATOM     29  C   UNL     1       5.132   3.491  11.908  0.00  0.00    +0.000 C 
ATOM     30  C   UNL     1       5.428   3.699  13.384  0.00  0.00    +0.000 C 
ATOM     31  C   UNL     1       5.682   3.878  14.650  0.00  0.00    +0.000 C 
ENDBRANCH  28  31
BRANCH  28  32
ATOM     32  C   UNL     1       7.216   4.989  16.259  0.00  0.00    +0.000 C 
BRANCH  32  33
ATOM     33  C   UNL     1       7.594   5.239  17.713  0.00  0.00    +0.000 C 
ATOM     34  O   UNL     1       7.764   4.361  18.535  0.00  0.00    +0.000 OA
BRANCH  33  35
ATOM     35  O   UNL     1       7.714   6.553  18.035  0.00  0.00    +0.000 OA
ATOM     36  H   UNL     1       7.161   6.859  18.778  0.00  0.00    +0.000 HD
ENDBRANCH  33  35
ENDBRANCH  32  33
ENDBRANCH  28  32
ENDBRANCH  22  28
ENDBRANCH  21  25
ENDBRANCH  20  21
ENDBRANCH   1  20
TORSDOF 10
ENDMDL
MODEL 5
REMARK VINA RESULT:      -7.5      1.234      2.102
REMARK  Name = 
REMARK  11 active torsions:
REMARK  status: ('A' for Active; 'I' for Inactive)
REMARK    1  A    between atoms: C_1  and  C_2
REMARK    2  A    between atoms: C_3  and  C_4
REMARK    3  A    between atoms: C_4  and  C_5
REMARK    4  A    between atoms: C_4  and  C_9
REMARK    5  A    between atoms: C_5  and  C_6
REMARK    6  A    between atoms: C_6  and  O_8
REMARK    7  A    between atoms: C_12  and  O_13
REMARK    8  A    between atoms: O_13  and  C_14
REMARK    9  A    between atoms: C_14  and  C_15
REMARK   10  A    between atoms: C_18  and  C_19
REMARK   11  A    between atoms: N_24  and  C_25
REMARK                            x       y       z     vdW  Elec       q    Type
REMARK                         _______ _______ _______ _____ _____    ______ ____
ROOT
ATOM      1  C   UNL     1       2.145  12.975  19.795  0.00  0.00    +0.000 A 
ATOM      2  C   UNL     1       2.327  13.100  18.458  0.00  0.00    +0.000 A 
ATOM      3  C   UNL     1       3.135  14.195  18.122  0.00  0.00    +0.000 A 
ATOM      4  C   UNL     1       3.525  14.977  19.194  0.00  0.00    +0.000 A 
ATOM      5  S   UNL     1       2.966  14.239  20.653  0.00  0.00    +0.000 S 
ENDROOT
BRANCH   4   6
ATOM      6  C   UNL     1       4.376  16.197  19.170  0.00  0.00    +0.000 C 
ATOM      7  O   UNL     1       4.009  17.286  19.609  0.00  0.00    +0.000 OA
ATOM      8  N   UNL     1       5.686  16.033  18.657  0.00  0.00    +0.000 N 
ATOM      9  C   UNL     1       6.699  17.099  18.725  0.00  0.00    +0.000 C 
ATOM     10  C   UNL     1       8.027  16.539  19.303  0.00  0.00    +0.000 C 
ATOM     11  N   UNL     1       8.436  15.371  18.501  0.00  0.00    +0.000 N 
ATOM     12  C   UNL     1       7.451  14.296  18.424  0.00  0.00    +0.000 C 
ATOM     13  C   UNL     1       6.152  14.890  17.866  0.00  0.00    +0.000 C 
BRANCH  11  14
ATOM     14  C   UNL     1       9.731  15.214  18.026  0.00  0.00    +0.000 A 
ATOM     15  C   UNL     1      10.480  16.283  17.582  0.00  0.00    +0.000 A 
ATOM     16  C   UNL     1      11.812  16.128  17.163  0.00  0.00    +0.000 A 
ATOM     17  C   UNL     1      12.333  14.835  17.181  0.00  0.00    +0.000 A 
ATOM     18  N   UNL     1      11.646  13.757  17.550  0.00  0.00    +0.000 NA
ATOM     19  C   UNL     1      10.358  13.961  17.964  0.00  0.00    +0.000 A 
ENDBRANCH  11  14
ENDBRANCH   4   6
BRANCH   1  20
ATOM     20  C   UNL     1       1.292  11.923  20.454  0.00  0.00    +0.000 C 
BRANCH  20  21
ATOM     21  O   UNL     1       0.645  11.138  19.447  0.00  0.00    +0.000 OA
BRANCH  21  25
ATOM     22  C   UNL     1       2.284   7.346  18.741  0.00  0.00    +0.000 A 
ATOM     23  C   UNL     1       2.108   8.271  17.712  0.00  0.00    +0.000 A 
ATOM     24  C   UNL     1       1.612   9.550  18.002  0.00  0.00    +0.000 A 
ATOM     25  C   UNL     1       1.168   9.876  19.289  0.00  0.00    +0.000 A 
ATOM     26  C   UNL     1       1.283   8.931  20.302  0.00  0.00    +0.000 A 
ATOM     27  C   UNL     1       1.824   7.680  20.027  0.00  0.00    +0.000 A 
BRANCH  22  28
ATOM     28  C   UNL     1       3.082   6.076  18.528  0.00  0.00    +0.000 C 
BRANCH  28  31
ATOM     29  C   UNL     1       7.039   7.229  17.156  0.00  0.00    +0.000 C 
ATOM     30  C   UNL     1       5.654   6.826  17.636  0.00  0.00    +0.000 C 
ATOM     31  C   UNL     1       4.466   6.480  18.048  0.00  0.00    +0.000 C 
ENDBRANCH  28  31
BRANCH  28  32
ATOM     32  C   UNL     1       3.229   5.232  19.806  0.00  0.00    +0.000 C 
BRANCH  32  33
ATOM     33  C   UNL     1       3.095   3.741  19.530  0.00  0.00    +0.000 C 
ATOM     34  O   UNL     1       3.451   2.870  20.298  0.00  0.00    +0.000 OA
BRANCH  33  35
ATOM     35  O   UNL     1       2.548   3.449  18.322  0.00  0.00    +0.000 OA
ATOM     36  H   UNL     1       1.586   3.591  18.248  0.00  0.00    +0.000 HD
ENDBRANCH  33  35
ENDBRANCH  32  33
ENDBRANCH  28  32
ENDBRANCH  22  28
ENDBRANCH  21  25
ENDBRANCH  20  21
ENDBRANCH   1  20
TORSDOF 10
ENDMDL
MODEL 6
REMARK VINA RESULT:      -7.4      6.110     10.131
REMARK  Name = 
REMARK  11 active torsions:
REMARK  status: ('A' for Active; 'I' for Inactive)
REMARK    1  A    between atoms: C_1  and  C_2
REMARK    2  A    between atoms: C_3  and  C_4
REMARK    3  A    between atoms: C_4  and  C_5
REMARK    4  A    between atoms: C_4  and  C_9
REMARK    5  A    between atoms: C_5  and  C_6
REMARK    6  A    between atoms: C_6  and  O_8
REMARK    7  A    between atoms: C_12  and  O_13
REMARK    8  A    between atoms: O_13  and  C_14
REMARK    9  A    between atoms: C_14  and  C_15
REMARK   10  A    between atoms: C_18  and  C_19
REMARK   11  A    between atoms: N_24  and  C_25
REMARK                            x       y       z     vdW  Elec       q    Type
REMARK                         _______ _______ _______ _____ _____    ______ ____
ROOT
ATOM      1  C   UNL     1       0.882  10.334  20.028  0.00  0.00    +0.000 A 
ATOM      2  C   UNL     1       0.877  10.016  21.346  0.00  0.00    +0.000 A 
ATOM      3  C   UNL     1       1.223   8.678  21.580  0.00  0.00    +0.000 A 
ATOM      4  C   UNL     1       1.427   7.924  20.439  0.00  0.00    +0.000 A 
ATOM      5  S   UNL     1       1.301   8.958  19.060  0.00  0.00    +0.000 S 
ENDROOT
BRANCH   4   6
ATOM      6  C   UNL     1       1.802   6.487  20.351  0.00  0.00    +0.000 C 
ATOM      7  O   UNL     1       1.222   5.598  20.970  0.00  0.00    +0.000 OA
ATOM      8  N   UNL     1       2.852   6.172  19.455  0.00  0.00    +0.000 N 
ATOM      9  C   UNL     1       3.222   4.785  19.130  0.00  0.00    +0.000 C 
ATOM     10  C   UNL     1       3.314   4.601  17.590  0.00  0.00    +0.000 C 
ATOM     11  N   UNL     1       4.239   5.613  17.048  0.00  0.00    +0.000 N 
ATOM     12  C   UNL     1       3.891   6.998  17.351  0.00  0.00    +0.000 C 
ATOM     13  C   UNL     1       3.793   7.135  18.875  0.00  0.00    +0.000 C 
BRANCH  11  14
ATOM     14  C   UNL     1       5.248   5.290  16.151  0.00  0.00    +0.000 A 
ATOM     15  C   UNL     1       5.059   4.371  15.140  0.00  0.00    +0.000 A 
ATOM     16  C   UNL     1       6.062   4.096  14.196  0.00  0.00    +0.000 A 
ATOM     17  C   UNL     1       7.274   4.769  14.347  0.00  0.00    +0.000 A 
ATOM     18  N   UNL     1       7.534   5.628  15.329  0.00  0.00    +0.000 NA
ATOM     19  C   UNL     1       6.521   5.874  16.215  0.00  0.00    +0.000 A 
ENDBRANCH  11  14
ENDBRANCH   4   6
BRANCH   1  20
ATOM     20  C   UNL     1       0.510  11.681  19.466  0.00  0.00    +0.000 C 
BRANCH  20  21
ATOM     21  O   UNL     1      -0.363  11.503  18.345  0.00  0.00    +0.000 OA
BRANCH  21  25
ATOM     22  C   UNL     1      -4.475  11.911  19.040  0.00  0.00    +0.000 A 
ATOM     23  C   UNL     1      -3.983  11.150  17.979  0.00  0.00    +0.000 A 
ATOM     24  C   UNL     1      -2.600  10.990  17.819  0.00  0.00    +0.000 A 
ATOM     25  C   UNL     1      -1.695  11.687  18.629  0.00  0.00    +0.000 A 
ATOM     26  C   UNL     1      -2.186  12.498  19.646  0.00  0.00    +0.000 A 
ATOM     27  C   UNL     1      -3.558  12.615  19.840  0.00  0.00    +0.000 A 
BRANCH  22  28
ATOM     28  C   UNL     1      -5.940  11.869  19.425  0.00  0.00    +0.000 C 
BRANCH  28  31
ATOM     29  C   UNL     1      -7.755  15.575  18.066  0.00  0.00    +0.000 C 
ATOM     30  C   UNL     1      -7.119  14.278  18.542  0.00  0.00    +0.000 C 
ATOM     31  C   UNL     1      -6.575  13.166  18.949  0.00  0.00    +0.000 C 
ENDBRANCH  28  31
BRANCH  28  32
ATOM     32  C   UNL     1      -6.698  10.688  18.795  0.00  0.00    +0.000 C 
BRANCH  32  33
ATOM     33  C   UNL     1      -7.120   9.656  19.831  0.00  0.00    +0.000 C 
ATOM     34  O   UNL     1      -7.097   8.455  19.648  0.00  0.00    +0.000 OA
BRANCH  33  35
ATOM     35  O   UNL     1      -7.552  10.192  21.001  0.00  0.00    +0.000 OA
ATOM     36  H   UNL     1      -6.886  10.691  21.510  0.00  0.00    +0.000 HD
ENDBRANCH  33  35
ENDBRANCH  32  33
ENDBRANCH  28  32
ENDBRANCH  22  28
ENDBRANCH  21  25
ENDBRANCH  20  21
ENDBRANCH   1  20
TORSDOF 10
ENDMDL
MODEL 7
REMARK VINA RESULT:      -7.4      5.802      8.761
REMARK  Name = 
REMARK  11 active torsions:
REMARK  status: ('A' for Active; 'I' for Inactive)
REMARK    1  A    between atoms: C_1  and  C_2
REMARK    2  A    between atoms: C_3  and  C_4
REMARK    3  A    between atoms: C_4  and  C_5
REMARK    4  A    between atoms: C_4  and  C_9
REMARK    5  A    between atoms: C_5  and  C_6
REMARK    6  A    between atoms: C_6  and  O_8
REMARK    7  A    between atoms: C_12  and  O_13
REMARK    8  A    between atoms: O_13  and  C_14
REMARK    9  A    between atoms: C_14  and  C_15
REMARK   10  A    between atoms: C_18  and  C_19
REMARK   11  A    between atoms: N_24  and  C_25
REMARK                            x       y       z     vdW  Elec       q    Type
REMARK                         _______ _______ _______ _____ _____    ______ ____
ROOT
ATOM      1  C   UNL     1       1.572   4.299  19.511  0.00  0.00    +0.000 A 
ATOM      2  C   UNL     1       1.746   4.975  20.674  0.00  0.00    +0.000 A 
ATOM      3  C   UNL     1       1.915   6.352  20.478  0.00  0.00    +0.000 A 
ATOM      4  C   UNL     1       1.950   6.750  19.154  0.00  0.00    +0.000 A 
ATOM      5  S   UNL     1       1.637   5.375  18.154  0.00  0.00    +0.000 S 
ENDROOT
BRANCH   4   6
ATOM      6  C   UNL     1       2.115   8.128  18.620  0.00  0.00    +0.000 C 
ATOM      7  O   UNL     1       2.713   8.381  17.575  0.00  0.00    +0.000 OA
ATOM      8  N   UNL     1       1.490   9.161  19.358  0.00  0.00    +0.000 N 
ATOM      9  C   UNL     1       1.417  10.548  18.870  0.00  0.00    +0.000 C 
ATOM     10  C   UNL     1      -0.039  11.077  18.973  0.00  0.00    +0.000 C 
ATOM     11  N   UNL     1      -0.508  10.903  20.359  0.00  0.00    +0.000 N 
ATOM     12  C   UNL     1      -0.453   9.535  20.866  0.00  0.00    +0.000 C 
ATOM     13  C   UNL     1       0.993   9.044  20.733  0.00  0.00    +0.000 C 
BRANCH  11  14
ATOM     14  C   UNL     1      -1.142  11.919  21.061  0.00  0.00    +0.000 A 
ATOM     15  C   UNL     1      -2.212  12.611  20.535  0.00  0.00    +0.000 A 
ATOM     16  C   UNL     1      -2.891  13.595  21.274  0.00  0.00    +0.000 A 
ATOM     17  C   UNL     1      -2.410  13.866  22.554  0.00  0.00    +0.000 A 
ATOM     18  N   UNL     1      -1.353  13.270  23.098  0.00  0.00    +0.000 NA
ATOM     19  C   UNL     1      -0.735  12.309  22.345  0.00  0.00    +0.000 A 
ENDBRANCH  11  14
ENDBRANCH   4   6
BRANCH   1  20
ATOM     20  C   UNL     1       1.409   2.806  19.399  0.00  0.00    +0.000 C 
BRANCH  20  21
ATOM     21  O   UNL     1       2.688   2.177  19.541  0.00  0.00    +0.000 OA
BRANCH  21  25
ATOM     22  C   UNL     1       5.738   4.138  17.441  0.00  0.00    +0.000 A 
ATOM     23  C   UNL     1       4.780   3.363  16.788  0.00  0.00    +0.000 A 
ATOM     24  C   UNL     1       3.741   2.774  17.522  0.00  0.00    +0.000 A 
ATOM     25  C   UNL     1       3.719   2.841  18.920  0.00  0.00    +0.000 A 
ATOM     26  C   UNL     1       4.711   3.559  19.577  0.00  0.00    +0.000 A 
ATOM     27  C   UNL     1       5.713   4.189  18.846  0.00  0.00    +0.000 A 
BRANCH  22  28
ATOM     28  C   UNL     1       6.692   5.025  16.668  0.00  0.00    +0.000 C 
BRANCH  28  31
ATOM     29  C   UNL     1       6.495   3.836  12.495  0.00  0.00    +0.000 C 
ATOM     30  C   UNL     1       6.564   4.252  13.955  0.00  0.00    +0.000 C 
ATOM     31  C   UNL     1       6.623   4.609  15.208  0.00  0.00    +0.000 C 
ENDBRANCH  28  31
BRANCH  28  32
ATOM     32  C   UNL     1       6.348   6.521  16.773  0.00  0.00    +0.000 C 
BRANCH  32  33
ATOM     33  C   UNL     1       7.428   7.311  17.499  0.00  0.00    +0.000 C 
ATOM     34  O   UNL     1       7.790   8.426  17.179  0.00  0.00    +0.000 OA
BRANCH  33  35
ATOM     35  O   UNL     1       7.983   6.653  18.549  0.00  0.00    +0.000 OA
ATOM     36  H   UNL     1       8.926   6.422  18.452  0.00  0.00    +0.000 HD
ENDBRANCH  33  35
ENDBRANCH  32  33
ENDBRANCH  28  32
ENDBRANCH  22  28
ENDBRANCH  21  25
ENDBRANCH  20  21
ENDBRANCH   1  20
TORSDOF 10
ENDMDL
MODEL 8
REMARK VINA RESULT:      -7.3      5.984      9.293
REMARK  Name = 
REMARK  11 active torsions:
REMARK  status: ('A' for Active; 'I' for Inactive)
REMARK    1  A    between atoms: C_1  and  C_2
REMARK    2  A    between atoms: C_3  and  C_4
REMARK    3  A    between atoms: C_4  and  C_5
REMARK    4  A    between atoms: C_4  and  C_9
REMARK    5  A    between atoms: C_5  and  C_6
REMARK    6  A    between atoms: C_6  and  O_8
REMARK    7  A    between atoms: C_12  and  O_13
REMARK    8  A    between atoms: O_13  and  C_14
REMARK    9  A    between atoms: C_14  and  C_15
REMARK   10  A    between atoms: C_18  and  C_19
REMARK   11  A    between atoms: N_24  and  C_25
REMARK                            x       y       z     vdW  Elec       q    Type
REMARK                         _______ _______ _______ _____ _____    ______ ____
ROOT
ATOM      1  C   UNL     1       0.954  10.147  18.919  0.00  0.00    +0.000 A 
ATOM      2  C   UNL     1       0.217  11.114  18.320  0.00  0.00    +0.000 A 
ATOM      3  C   UNL     1      -0.080  12.180  19.181  0.00  0.00    +0.000 A 
ATOM      4  C   UNL     1       0.361  12.014  20.481  0.00  0.00    +0.000 A 
ATOM      5  S   UNL     1       1.271  10.547  20.576  0.00  0.00    +0.000 S 
ENDROOT
BRANCH   4   6
ATOM      6  C   UNL     1       0.207  12.954  21.623  0.00  0.00    +0.000 C 
ATOM      7  O   UNL     1       1.114  13.678  22.030  0.00  0.00    +0.000 OA
ATOM      8  N   UNL     1      -1.082  13.022  22.204  0.00  0.00    +0.000 N 
ATOM      9  C   UNL     1      -1.437  14.022  23.224  0.00  0.00    +0.000 C 
ATOM     10  C   UNL     1      -2.763  14.733  22.839  0.00  0.00    +0.000 C 
ATOM     11  N   UNL     1      -3.800  13.711  22.615  0.00  0.00    +0.000 N 
ATOM     12  C   UNL     1      -3.476  12.710  21.602  0.00  0.00    +0.000 C 
ATOM     13  C   UNL     1      -2.156  12.043  22.008  0.00  0.00    +0.000 C 
BRANCH  11  14
ATOM     14  C   UNL     1      -5.068  13.805  23.172  0.00  0.00    +0.000 A 
ATOM     15  C   UNL     1      -5.692  15.019  23.364  0.00  0.00    +0.000 A 
ATOM     16  C   UNL     1      -7.000  15.106  23.868  0.00  0.00    +0.000 A 
ATOM     17  C   UNL     1      -7.629  13.907  24.201  0.00  0.00    +0.000 A 
ATOM     18  N   UNL     1      -7.062  12.709  24.087  0.00  0.00    +0.000 NA
ATOM     19  C   UNL     1      -5.793  12.675  23.577  0.00  0.00    +0.000 A 
ENDBRANCH  11  14
ENDBRANCH   4   6
BRANCH   1  20
ATOM     20  C   UNL     1       1.387   8.863  18.262  0.00  0.00    +0.000 C 
BRANCH  20  21
ATOM     21  O   UNL     1       1.908   7.974  19.256  0.00  0.00    +0.000 OA
BRANCH  21  25
ATOM     22  C   UNL     1       5.031   5.421  18.119  0.00  0.00    +0.000 A 
ATOM     23  C   UNL     1       4.369   5.271  19.338  0.00  0.00    +0.000 A 
ATOM     24  C   UNL     1       3.289   6.108  19.652  0.00  0.00    +0.000 A 
ATOM     25  C   UNL     1       2.944   7.181  18.821  0.00  0.00    +0.000 A 
ATOM     26  C   UNL     1       3.646   7.371  17.637  0.00  0.00    +0.000 A 
ATOM     27  C   UNL     1       4.683   6.508  17.298  0.00  0.00    +0.000 A 
BRANCH  22  28
ATOM     28  C   UNL     1       5.993   4.367  17.613  0.00  0.00    +0.000 C 
BRANCH  28  31
ATOM     29  C   UNL     1       5.407   4.010  13.323  0.00  0.00    +0.000 C 
ATOM     30  C   UNL     1       5.612   4.135  14.824  0.00  0.00    +0.000 C 
ATOM     31  C   UNL     1       5.788   4.242  16.112  0.00  0.00    +0.000 C 
ENDBRANCH  28  31
BRANCH  28  32
ATOM     32  C   UNL     1       7.468   4.714  17.882  0.00  0.00    +0.000 C 
BRANCH  32  33
ATOM     33  C   UNL     1       7.618   5.893  18.833  0.00  0.00    +0.000 C 
ATOM     34  O   UNL     1       7.754   7.046  18.475  0.00  0.00    +0.000 OA
BRANCH  33  35
ATOM     35  O   UNL     1       7.603   5.550  20.147  0.00  0.00    +0.000 OA
ATOM     36  H   UNL     1       7.168   4.703  20.358  0.00  0.00    +0.000 HD
ENDBRANCH  33  35
ENDBRANCH  32  33
ENDBRANCH  28  32
ENDBRANCH  22  28
ENDBRANCH  21  25
ENDBRANCH  20  21
ENDBRANCH   1  20
TORSDOF 10
ENDMDL
MODEL 9
REMARK VINA RESULT:      -7.3      1.151      1.467
REMARK  Name = 
REMARK  11 active torsions:
REMARK  status: ('A' for Active; 'I' for Inactive)
REMARK    1  A    between atoms: C_1  and  C_2
REMARK    2  A    between atoms: C_3  and  C_4
REMARK    3  A    between atoms: C_4  and  C_5
REMARK    4  A    between atoms: C_4  and  C_9
REMARK    5  A    between atoms: C_5  and  C_6
REMARK    6  A    between atoms: C_6  and  O_8
REMARK    7  A    between atoms: C_12  and  O_13
REMARK    8  A    between atoms: O_13  and  C_14
REMARK    9  A    between atoms: C_14  and  C_15
REMARK   10  A    between atoms: C_18  and  C_19
REMARK   11  A    between atoms: N_24  and  C_25
REMARK                            x       y       z     vdW  Elec       q    Type
REMARK                         _______ _______ _______ _____ _____    ______ ____
ROOT
ATOM      1  C   UNL     1       0.812  12.549  19.878  0.00  0.00    +0.000 A 
ATOM      2  C   UNL     1       1.777  12.632  20.827  0.00  0.00    +0.000 A 
ATOM      3  C   UNL     1       2.523  13.816  20.737  0.00  0.00    +0.000 A 
ATOM      4  C   UNL     1       2.193  14.629  19.668  0.00  0.00    +0.000 A 
ATOM      5  S   UNL     1       0.836  13.942  18.846  0.00  0.00    +0.000 S 
ENDROOT
BRANCH   4   6
ATOM      6  C   UNL     1       2.793  15.939  19.300  0.00  0.00    +0.000 C 
ATOM      7  O   UNL     1       2.209  17.012  19.438  0.00  0.00    +0.000 OA
ATOM      8  N   UNL     1       4.125  15.902  18.822  0.00  0.00    +0.000 N 
ATOM      9  C   UNL     1       4.911  17.122  18.580  0.00  0.00    +0.000 C 
ATOM     10  C   UNL     1       6.303  17.007  19.258  0.00  0.00    +0.000 C 
ATOM     11  N   UNL     1       6.955  15.770  18.792  0.00  0.00    +0.000 N 
ATOM     12  C   UNL     1       6.199  14.543  19.026  0.00  0.00    +0.000 C 
ATOM     13  C   UNL     1       4.829  14.702  18.357  0.00  0.00    +0.000 C 
BRANCH  11  14
ATOM     14  C   UNL     1       8.270  15.746  18.349  0.00  0.00    +0.000 A 
ATOM     15  C   UNL     1       8.957  14.564  18.165  0.00  0.00    +0.000 A 
ATOM     16  C   UNL     1      10.266  14.542  17.656  0.00  0.00    +0.000 A 
ATOM     17  C   UNL     1      10.856  15.775  17.377  0.00  0.00    +0.000 A 
ATOM     18  N   UNL     1      10.265  16.949  17.580  0.00  0.00    +0.000 NA
ATOM     19  C   UNL     1       8.986  16.918  18.063  0.00  0.00    +0.000 A 
ENDBRANCH  11  14
ENDBRANCH   4   6
BRANCH   1  20
ATOM     20  C   UNL     1      -0.118  11.379  19.695  0.00  0.00    +0.000 C 
BRANCH  20  21
ATOM     21  O   UNL     1       0.290  10.623  18.549  0.00  0.00    +0.000 OA
BRANCH  21  25
ATOM     22  C   UNL     1       2.513   7.137  19.227  0.00  0.00    +0.000 A 
ATOM     23  C   UNL     1       2.408   7.703  17.957  0.00  0.00    +0.000 A 
ATOM     24  C   UNL     1       1.704   8.904  17.785  0.00  0.00    +0.000 A 
ATOM     25  C   UNL     1       0.993   9.480  18.844  0.00  0.00    +0.000 A 
ATOM     26  C   UNL     1       1.044   8.880  20.097  0.00  0.00    +0.000 A 
ATOM     27  C   UNL     1       1.786   7.717  20.281  0.00  0.00    +0.000 A 
BRANCH  22  28
ATOM     28  C   UNL     1       3.496   6.020  19.511  0.00  0.00    +0.000 C 
BRANCH  28  31
ATOM     29  C   UNL     1       1.325   2.848  21.535  0.00  0.00    +0.000 C 
ATOM     30  C   UNL     1       2.085   3.958  20.827  0.00  0.00    +0.000 C 
ATOM     31  C   UNL     1       2.736   4.910  20.219  0.00  0.00    +0.000 C 
ENDBRANCH  28  31
BRANCH  28  32
ATOM     32  C   UNL     1       4.140   5.443  18.239  0.00  0.00    +0.000 C 
BRANCH  32  33
ATOM     33  C   UNL     1       5.643   5.251  18.390  0.00  0.00    +0.000 C 
ATOM     34  O   UNL     1       6.156   4.326  18.990  0.00  0.00    +0.000 OA
BRANCH  33  35
ATOM     35  O   UNL     1       6.387   6.224  17.805  0.00  0.00    +0.000 OA
ATOM     36  H   UNL     1       6.437   6.190  16.831  0.00  0.00    +0.000 HD
ENDBRANCH  33  35
ENDBRANCH  32  33
ENDBRANCH  28  32
ENDBRANCH  22  28
ENDBRANCH  21  25
ENDBRANCH  20  21
ENDBRANCH   1  20
TORSDOF 10
ENDMDL
