MODEL 1
REMARK VINA RESULT:      -8.1      0.000      0.000
REMARK  Name = 
REMARK  5 active torsions:
REMARK  status: ('A' for Active; 'I' for Inactive)
REMARK    1  A    between atoms: S_2  and  C_4
REMARK    2  A    between atoms: S_2  and  N_10
REMARK    3  A    between atoms: N_10  and  C_11
REMARK    4  A    between atoms: N_10  and  C_19
REMARK    5  A    between atoms: C_11  and  C_12
REMARK                            x       y       z     vdW  Elec       q    Type
REMARK                         _______ _______ _______ _____ _____    ______ ____
ROOT
ATOM      1  N   UNL     1       3.887   4.650  17.332  0.00  0.00    +0.000 N 
ENDROOT
BRANCH   1   2
ATOM      2  C   UNL     1       4.849   4.709  16.256  0.00  0.00    +0.000 A 
ATOM      3  C   UNL     1       4.682   3.943  15.134  0.00  0.00    +0.000 A 
ATOM      4  C   UNL     1       5.675   4.177  14.133  0.00  0.00    +0.000 A 
ATOM      5  C   UNL     1       5.804   3.623  12.837  0.00  0.00    +0.000 A 
ATOM      6  C   UNL     1       6.900   3.936  12.035  0.00  0.00    +0.000 A 
ATOM      7  C   UNL     1       7.883   4.799  12.509  0.00  0.00    +0.000 A 
ATOM      8  C   UNL     1       7.764   5.395  13.773  0.00  0.00    +0.000 A 
ATOM      9  C   UNL     1       6.643   5.081  14.575  0.00  0.00    +0.000 A 
ATOM     10  S   UNL     1       6.226   5.705  16.139  0.00  0.00    +0.000 S 
ENDBRANCH   1   2
BRANCH   1  12
ATOM     11  O   UNL     1       4.471   2.157  17.617  0.00  0.00    +0.000 OA
ATOM     12  S   UNL     1       3.324   3.042  17.553  0.00  0.00    +0.000 S 
ATOM     13  O   UNL     1       2.233   2.785  16.635  0.00  0.00    +0.000 OA
BRANCH  12  14
ATOM     14  C   UNL     1       2.601   3.093  19.187  0.00  0.00    +0.000 A 
ATOM     15  C   UNL     1       1.274   3.510  19.341  0.00  0.00    +0.000 A 
ATOM     16  C   UNL     1       0.691   3.492  20.610  0.00  0.00    +0.000 A 
ATOM     17  C   UNL     1       1.427   3.059  21.714  0.00  0.00    +0.000 A 
ATOM     18  C   UNL     1       2.744   2.628  21.554  0.00  0.00    +0.000 A 
ATOM     19  C   UNL     1       3.329   2.630  20.289  0.00  0.00    +0.000 A 
ENDBRANCH  12  14
ENDBRANCH   1  12
BRANCH   1  20
ATOM     20  C   UNL     1       4.210   5.385  18.583  0.00  0.00    +0.000 C 
BRANCH  20  21
ATOM     21  C   UNL     1       3.339   6.618  18.776  0.00  0.00    +0.000 A 
ATOM     22  C   UNL     1       3.220   7.585  17.762  0.00  0.00    +0.000 A 
ATOM     23  C   UNL     1       2.327   8.652  17.896  0.00  0.00    +0.000 A 
ATOM     24  C   UNL     1       1.549   8.771  19.047  0.00  0.00    +0.000 A 
ATOM     25 CL   UNL     1       0.396  10.041  19.179  0.00  0.00    +0.000 Cl
ATOM     26  C   UNL     1       1.685   7.848  20.079  0.00  0.00    +0.000 A 
ATOM     27  C   UNL     1       2.578   6.781  19.946  0.00  0.00    +0.000 A 
ENDBRANCH  20  21
ENDBRANCH   1  20
TORSDOF 5
ENDMDL
MODEL 2
REMARK VINA RESULT:      -8.0      0.642      1.200
REMARK  Name = 
REMARK  5 active torsions:
REMARK  status: ('A' for Active; 'I' for Inactive)
REMARK    1  A    between atoms: S_2  and  C_4
REMARK    2  A    between atoms: S_2  and  N_10
REMARK    3  A    between atoms: N_10  and  C_11
REMARK    4  A    between atoms: N_10  and  C_19
REMARK    5  A    between atoms: C_11  and  C_12
REMARK                            x       y       z     vdW  Elec       q    Type
REMARK                         _______ _______ _______ _____ _____    ______ ____
ROOT
ATOM      1  N   UNL     1       4.414   4.680  17.759  0.00  0.00    +0.000 N 
ENDROOT
BRANCH   1   2
ATOM      2  C   UNL     1       5.204   4.706  16.550  0.00  0.00    +0.000 A 
ATOM      3  C   UNL     1       4.839   3.951  15.467  0.00  0.00    +0.000 A 
ATOM      4  C   UNL     1       5.678   4.150  14.328  0.00  0.00    +0.000 A 
ATOM      5  C   UNL     1       5.588   3.597  13.028  0.00  0.00    +0.000 A 
ATOM      6  C   UNL     1       6.563   3.870  12.070  0.00  0.00    +0.000 A 
ATOM      7  C   UNL     1       7.640   4.691  12.388  0.00  0.00    +0.000 A 
ATOM      8  C   UNL     1       7.736   5.286  13.655  0.00  0.00    +0.000 A 
ATOM      9  C   UNL     1       6.737   5.013  14.618  0.00  0.00    +0.000 A 
ATOM     10  S   UNL     1       6.586   5.647  16.225  0.00  0.00    +0.000 S 
ENDBRANCH   1   2
BRANCH   1  12
ATOM     11  O   UNL     1       5.580   2.940  19.259  0.00  0.00    +0.000 OA
ATOM     12  S   UNL     1       4.396   3.102  18.437  0.00  0.00    +0.000 S 
ATOM     13  O   UNL     1       4.067   2.139  17.405  0.00  0.00    +0.000 OA
BRANCH  12  14
ATOM     14  C   UNL     1       2.988   3.156  19.538  0.00  0.00    +0.000 A 
ATOM     15  C   UNL     1       1.719   3.437  19.020  0.00  0.00    +0.000 A 
ATOM     16  C   UNL     1       0.610   3.420  19.870  0.00  0.00    +0.000 A 
ATOM     17  C   UNL     1       0.770   3.120  21.224  0.00  0.00    +0.000 A 
ATOM     18  C   UNL     1       2.034   2.823  21.733  0.00  0.00    +0.000 A 
ATOM     19  C   UNL     1       3.144   2.825  20.889  0.00  0.00    +0.000 A 
ENDBRANCH  12  14
ENDBRANCH   1  12
BRANCH   1  20
ATOM     20  C   UNL     1       4.612   5.785  18.733  0.00  0.00    +0.000 C 
BRANCH  20  21
ATOM     21  C   UNL     1       3.454   6.773  18.738  0.00  0.00    +0.000 A 
ATOM     22  C   UNL     1       2.594   6.873  19.845  0.00  0.00    +0.000 A 
ATOM     23  C   UNL     1       1.607   7.862  19.895  0.00  0.00    +0.000 A 
ATOM     24  C   UNL     1       1.462   8.756  18.835  0.00  0.00    +0.000 A 
ATOM     25 CL   UNL     1       0.299  10.020  18.928  0.00  0.00    +0.000 Cl
ATOM     26  C   UNL     1       2.276   8.644  17.712  0.00  0.00    +0.000 A 
ATOM     27  C   UNL     1       3.262   7.656  17.662  0.00  0.00    +0.000 A 
ENDBRANCH  20  21
ENDBRANCH   1  20
TORSDOF 5
ENDMDL
MODEL 3
REMARK VINA RESULT:      -7.9      2.734      5.493
REMARK  Name = 
REMARK  5 active torsions:
REMARK  status: ('A' for Active; 'I' for Inactive)
REMARK    1  A    between atoms: S_2  and  C_4
REMARK    2  A    between atoms: S_2  and  N_10
REMARK    3  A    between atoms: N_10  and  C_11
REMARK    4  A    between atoms: N_10  and  C_19
REMARK    5  A    between atoms: C_11  and  C_12
REMARK                            x       y       z     vdW  Elec       q    Type
REMARK                         _______ _______ _______ _____ _____    ______ ____
ROOT
ATOM      1  N   UNL     1       4.403   4.603  17.941  0.00  0.00    +0.000 N 
ENDROOT
BRANCH   1   2
ATOM      2  C   UNL     1       3.621   5.799  18.152  0.00  0.00    +0.000 A 
ATOM      3  C   UNL     1       3.037   6.041  19.366  0.00  0.00    +0.000 A 
ATOM      4  C   UNL     1       2.367   7.302  19.433  0.00  0.00    +0.000 A 
ATOM      5  C   UNL     1       1.702   7.918  20.520  0.00  0.00    +0.000 A 
ATOM      6  C   UNL     1       1.045   9.136  20.353  0.00  0.00    +0.000 A 
ATOM      7  C   UNL     1       1.037   9.757  19.109  0.00  0.00    +0.000 A 
ATOM      8  C   UNL     1       1.721   9.191  18.022  0.00  0.00    +0.000 A 
ATOM      9  C   UNL     1       2.395   7.961  18.202  0.00  0.00    +0.000 A 
ATOM     10  S   UNL     1       3.348   7.075  17.056  0.00  0.00    +0.000 S 
ENDBRANCH   1   2
BRANCH   1  12
ATOM     11  O   UNL     1       4.209   2.098  17.369  0.00  0.00    +0.000 OA
ATOM     12  S   UNL     1       3.379   3.255  17.648  0.00  0.00    +0.000 S 
ATOM     13  O   UNL     1       2.316   3.646  16.744  0.00  0.00    +0.000 OA
BRANCH  12  14
ATOM     14  C   UNL     1       2.608   2.985  19.239  0.00  0.00    +0.000 A 
ATOM     15  C   UNL     1       3.405   2.677  20.347  0.00  0.00    +0.000 A 
ATOM     16  C   UNL     1       2.808   2.526  21.602  0.00  0.00    +0.000 A 
ATOM     17  C   UNL     1       1.429   2.684  21.745  0.00  0.00    +0.000 A 
ATOM     18  C   UNL     1       0.641   3.008  20.641  0.00  0.00    +0.000 A 
ATOM     19  C   UNL     1       1.230   3.174  19.388  0.00  0.00    +0.000 A 
ENDBRANCH  12  14
ENDBRANCH   1  12
BRANCH   1  20
ATOM     20  C   UNL     1       5.587   4.704  17.048  0.00  0.00    +0.000 C 
BRANCH  20  21
ATOM     21  C   UNL     1       6.562   5.785  17.494  0.00  0.00    +0.000 A 
ATOM     22  C   UNL     1       6.655   7.004  16.800  0.00  0.00    +0.000 A 
ATOM     23  C   UNL     1       7.463   8.039  17.282  0.00  0.00    +0.000 A 
ATOM     24  C   UNL     1       8.194   7.864  18.456  0.00  0.00    +0.000 A 
ATOM     25 CL   UNL     1       9.128   9.162  19.090  0.00  0.00    +0.000 Cl
ATOM     26  C   UNL     1       8.147   6.648  19.133  0.00  0.00    +0.000 A 
ATOM     27  C   UNL     1       7.340   5.614  18.651  0.00  0.00    +0.000 A 
ENDBRANCH  20  21
ENDBRANCH   1  20
TORSDOF 5
ENDMDL
MODEL 4
REMARK VINA RESULT:      -7.9      2.777      5.432
REMARK  Name = 
REMARK  5 active torsions:
REMARK  status: ('A' for Active; 'I' for Inactive)
REMARK    1  A    between atoms: S_2  and  C_4
REMARK    2  A    between atoms: S_2  and  N_10
REMARK    3  A    between atoms: N_10  and  C_11
REMARK    4  A    between atoms: N_10  and  C_19
REMARK    5  A    between atoms: C_11  and  C_12
REMARK                            x       y       z     vdW  Elec       q    Type
REMARK                         _______ _______ _______ _____ _____    ______ ____
ROOT
ATOM      1  N   UNL     1       4.338   4.547  17.989  0.00  0.00    +0.000 N 
ENDROOT
BRANCH   1   2
ATOM      2  C   UNL     1       3.571   5.678  18.455  0.00  0.00    +0.000 A 
ATOM      3  C   UNL     1       3.169   6.652  17.579  0.00  0.00    +0.000 A 
ATOM      4  C   UNL     1       2.353   7.658  18.183  0.00  0.00    +0.000 A 
ATOM      5  C   UNL     1       1.714   8.778  17.599  0.00  0.00    +0.000 A 
ATOM      6  C   UNL     1       1.013   9.688  18.388  0.00  0.00    +0.000 A 
ATOM      7  C   UNL     1       0.938   9.501  19.764  0.00  0.00    +0.000 A 
ATOM      8  C   UNL     1       1.526   8.379  20.367  0.00  0.00    +0.000 A 
ATOM      9  C   UNL     1       2.226   7.454  19.559  0.00  0.00    +0.000 A 
ATOM     10  S   UNL     1       2.997   5.974  20.031  0.00  0.00    +0.000 S 
ENDBRANCH   1   2
BRANCH   1  12
ATOM     11  O   UNL     1       4.140   2.053  17.373  0.00  0.00    +0.000 OA
ATOM     12  S   UNL     1       3.312   3.204  17.680  0.00  0.00    +0.000 S 
ATOM     13  O   UNL     1       2.242   3.612  16.792  0.00  0.00    +0.000 OA
BRANCH  12  14
ATOM     14  C   UNL     1       2.554   2.906  19.271  0.00  0.00    +0.000 A 
ATOM     15  C   UNL     1       3.358   2.570  20.366  0.00  0.00    +0.000 A 
ATOM     16  C   UNL     1       2.772   2.395  21.622  0.00  0.00    +0.000 A 
ATOM     17  C   UNL     1       1.396   2.560  21.782  0.00  0.00    +0.000 A 
ATOM     18  C   UNL     1       0.599   2.913  20.692  0.00  0.00    +0.000 A 
ATOM     19  C   UNL     1       1.178   3.101  19.437  0.00  0.00    +0.000 A 
ENDBRANCH  12  14
ENDBRANCH   1  12
BRANCH   1  20
ATOM     20  C   UNL     1       5.377   4.800  16.956  0.00  0.00    +0.000 C 
BRANCH  20  21
ATOM     21  C   UNL     1       6.397   5.841  17.398  0.00  0.00    +0.000 A 
ATOM     22  C   UNL     1       6.459   7.101  16.777  0.00  0.00    +0.000 A 
ATOM     23  C   UNL     1       7.313   8.094  17.265  0.00  0.00    +0.000 A 
ATOM     24  C   UNL     1       8.122   7.838  18.371  0.00  0.00    +0.000 A 
ATOM     25 CL   UNL     1       9.118   9.083  19.017  0.00  0.00    +0.000 Cl
ATOM     26  C   UNL     1       8.106   6.582  18.971  0.00  0.00    +0.000 A 
ATOM     27  C   UNL     1       7.252   5.589  18.484  0.00  0.00    +0.000 A 
ENDBRANCH  20  21
ENDBRANCH   1  20
TORSDOF 5
ENDMDL
MODEL 5
REMARK VINA RESULT:      -7.7      6.261      9.343
REMARK  Name = 
REMARK  5 active torsions:
REMARK  status: ('A' for Active; 'I' for Inactive)
REMARK    1  A    between atoms: S_2  and  C_4
REMARK    2  A    between atoms: S_2  and  N_10
REMARK    3  A    between atoms: N_10  and  C_11
REMARK    4  A    between atoms: N_10  and  C_19
REMARK    5  A    between atoms: C_11  and  C_12
REMARK                            x       y       z     vdW  Elec       q    Type
REMARK                         _______ _______ _______ _____ _____    ______ ____
ROOT
ATOM      1  N   UNL     1      -0.426  11.596  19.522  0.00  0.00    +0.000 N 
ENDROOT
BRANCH   1   2
ATOM      2  C   UNL     1       0.221  12.878  19.368  0.00  0.00    +0.000 A 
ATOM      3  C   UNL     1       1.388  12.985  18.660  0.00  0.00    +0.000 A 
ATOM      4  C   UNL     1       1.855  14.330  18.535  0.00  0.00    +0.000 A 
ATOM      5  C   UNL     1       2.978  14.839  17.841  0.00  0.00    +0.000 A 
ATOM      6  C   UNL     1       3.300  16.194  17.905  0.00  0.00    +0.000 A 
ATOM      7  C   UNL     1       2.515  17.060  18.658  0.00  0.00    +0.000 A 
ATOM      8  C   UNL     1       1.373  16.593  19.326  0.00  0.00    +0.000 A 
ATOM      9  C   UNL     1       1.046  15.220  19.247  0.00  0.00    +0.000 A 
ATOM     10  S   UNL     1      -0.320  14.394  19.925  0.00  0.00    +0.000 S 
ENDBRANCH   1   2
BRANCH   1  12
ATOM     11  O   UNL     1      -0.708  10.088  21.592  0.00  0.00    +0.000 OA
ATOM     12  S   UNL     1       0.327  10.683  20.768  0.00  0.00    +0.000 S 
ATOM     13  O   UNL     1       1.394  11.465  21.359  0.00  0.00    +0.000 OA
BRANCH  12  14
ATOM     14  C   UNL     1       1.119   9.356  19.869  0.00  0.00    +0.000 A 
ATOM     15  C   UNL     1       1.415   9.523  18.512  0.00  0.00    +0.000 A 
ATOM     16  C   UNL     1       2.087   8.510  17.824  0.00  0.00    +0.000 A 
ATOM     17  C   UNL     1       2.463   7.342  18.490  0.00  0.00    +0.000 A 
ATOM     18  C   UNL     1       2.182   7.186  19.847  0.00  0.00    +0.000 A 
ATOM     19  C   UNL     1       1.522   8.198  20.544  0.00  0.00    +0.000 A 
ENDBRANCH  12  14
ENDBRANCH   1  12
BRANCH   1  20
ATOM     20  C   UNL     1      -1.912  11.572  19.531  0.00  0.00    +0.000 C 
BRANCH  20  21
ATOM     21  C   UNL     1      -2.495  11.094  18.209  0.00  0.00    +0.000 A 
ATOM     22  C   UNL     1      -3.712  11.607  17.727  0.00  0.00    +0.000 A 
ATOM     23  C   UNL     1      -4.182  11.254  16.458  0.00  0.00    +0.000 A 
ATOM     24  C   UNL     1      -3.448  10.378  15.661  0.00  0.00    +0.000 A 
ATOM     25 CL   UNL     1      -3.988  10.002  14.071  0.00  0.00    +0.000 Cl
ATOM     26  C   UNL     1      -2.263   9.825  16.139  0.00  0.00    +0.000 A 
ATOM     27  C   UNL     1      -1.793  10.178  17.407  0.00  0.00    +0.000 A 
ENDBRANCH  20  21
ENDBRANCH   1  20
TORSDOF 5
ENDMDL
MODEL 6
REMARK VINA RESULT:      -7.5      5.598      8.218
REMARK  Name = 
REMARK  5 active torsions:
REMARK  status: ('A' for Active; 'I' for Inactive)
REMARK    1  A    between atoms: S_2  and  C_4
REMARK    2  A    between atoms: S_2  and  N_10
REMARK    3  A    between atoms: N_10  and  C_11
REMARK    4  A    between atoms: N_10  and  C_19
REMARK    5  A    between atoms: C_11  and  C_12
REMARK                            x       y       z     vdW  Elec       q    Type
REMARK                         _______ _______ _______ _____ _____    ______ ____
ROOT
ATOM      1  N   UNL     1       0.242  10.352  20.053  0.00  0.00    +0.000 N 
ENDROOT
BRANCH   1   2
ATOM      2  C   UNL     1       1.029   9.180  19.750  0.00  0.00    +0.000 A 
ATOM      3  C   UNL     1       1.720   9.095  18.571  0.00  0.00    +0.000 A 
ATOM      4  C   UNL     1       2.511   7.909  18.461  0.00  0.00    +0.000 A 
ATOM      5  C   UNL     1       3.390   7.498  17.430  0.00  0.00    +0.000 A 
ATOM      6  C   UNL     1       4.019   6.255  17.485  0.00  0.00    +0.000 A 
ATOM      7  C   UNL     1       3.783   5.405  18.560  0.00  0.00    +0.000 A 
ATOM      8  C   UNL     1       2.949   5.799  19.616  0.00  0.00    +0.000 A 
ATOM      9  C   UNL     1       2.324   7.066  19.559  0.00  0.00    +0.000 A 
ATOM     10  S   UNL     1       1.296   7.817  20.736  0.00  0.00    +0.000 S 
ENDBRANCH   1   2
BRANCH   1  12
ATOM     11  O   UNL     1       1.826  12.142  21.015  0.00  0.00    +0.000 OA
ATOM     12  S   UNL     1       0.856  11.152  21.444  0.00  0.00    +0.000 S 
ATOM     13  O   UNL     1       1.190  10.169  22.455  0.00  0.00    +0.000 OA
BRANCH  12  14
ATOM     14  C   UNL     1      -0.571  12.037  22.059  0.00  0.00    +0.000 A 
ATOM     15  C   UNL     1      -1.577  11.338  22.734  0.00  0.00    +0.000 A 
ATOM     16  C   UNL     1      -2.662  12.038  23.266  0.00  0.00    +0.000 A 
ATOM     17  C   UNL     1      -2.737  13.425  23.128  0.00  0.00    +0.000 A 
ATOM     18  C   UNL     1      -1.724  14.121  22.470  0.00  0.00    +0.000 A 
ATOM     19  C   UNL     1      -0.631  13.431  21.946  0.00  0.00    +0.000 A 
ENDBRANCH  12  14
ENDBRANCH   1  12
BRANCH   1  20
ATOM     20  C   UNL     1      -0.126  11.243  18.922  0.00  0.00    +0.000 C 
BRANCH  20  21
ATOM     21  C   UNL     1      -1.612  11.189  18.597  0.00  0.00    +0.000 A 
ATOM     22  C   UNL     1      -2.140  10.161  17.796  0.00  0.00    +0.000 A 
ATOM     23  C   UNL     1      -3.520  10.047  17.600  0.00  0.00    +0.000 A 
ATOM     24  C   UNL     1      -4.387  10.963  18.193  0.00  0.00    +0.000 A 
ATOM     25 CL   UNL     1      -6.088  10.779  18.014  0.00  0.00    +0.000 Cl
ATOM     26  C   UNL     1      -3.879  12.012  18.953  0.00  0.00    +0.000 A 
ATOM     27  C   UNL     1      -2.500  12.127  19.150  0.00  0.00    +0.000 A 
ENDBRANCH  20  21
ENDBRANCH   1  20
TORSDOF 5
ENDMDL
MODEL 7
REMARK VINA RESULT:      -7.4      6.391      9.792
REMARK  Name = 
REMARK  5 active torsions:
REMARK  status: ('A' for Active; 'I' for Inactive)
REMARK    1  A    between atoms: S_2  and  C_4
REMARK    2  A    between atoms: S_2  and  N_10
REMARK    3  A    between atoms: N_10  and  C_11
REMARK    4  A    between atoms: N_10  and  C_19
REMARK    5  A    between atoms: C_11  and  C_12
REMARK                            x       y       z     vdW  Elec       q    Type
REMARK                         _______ _______ _______ _____ _____    ______ ____
ROOT
ATOM      1  N   UNL     1      -0.488  11.653  19.454  0.00  0.00    +0.000 N 
ENDROOT
BRANCH   1   2
ATOM      2  C   UNL     1       0.060  12.973  19.249  0.00  0.00    +0.000 A 
ATOM      3  C   UNL     1      -0.592  14.078  19.729  0.00  0.00    +0.000 A 
ATOM      4  C   UNL     1       0.121  15.297  19.513  0.00  0.00    +0.000 A 
ATOM      5  C   UNL     1      -0.201  16.618  19.907  0.00  0.00    +0.000 A 
ATOM      6  C   UNL     1       0.606  17.690  19.529  0.00  0.00    +0.000 A 
ATOM      7  C   UNL     1       1.739  17.467  18.754  0.00  0.00    +0.000 A 
ATOM      8  C   UNL     1       2.106  16.166  18.380  0.00  0.00    +0.000 A 
ATOM      9  C   UNL     1       1.290  15.082  18.778  0.00  0.00    +0.000 A 
ATOM     10  S   UNL     1       1.533  13.388  18.499  0.00  0.00    +0.000 S 
ENDBRANCH   1   2
BRANCH   1  12
ATOM     11  O   UNL     1      -0.630  10.281  21.630  0.00  0.00    +0.000 OA
ATOM     12  S   UNL     1       0.347  10.839  20.715  0.00  0.00    +0.000 S 
ATOM     13  O   UNL     1       1.426  11.678  21.197  0.00  0.00    +0.000 OA
BRANCH  12  14
ATOM     14  C   UNL     1       1.121   9.470  19.864  0.00  0.00    +0.000 A 
ATOM     15  C   UNL     1       1.463   9.603  18.514  0.00  0.00    +0.000 A 
ATOM     16  C   UNL     1       2.122   8.556  17.865  0.00  0.00    +0.000 A 
ATOM     17  C   UNL     1       2.438   7.389  18.561  0.00  0.00    +0.000 A 
ATOM     18  C   UNL     1       2.110   7.266  19.912  0.00  0.00    +0.000 A 
ATOM     19  C   UNL     1       1.464   8.312  20.570  0.00  0.00    +0.000 A 
ENDBRANCH  12  14
ENDBRANCH   1  12
BRANCH   1  20
ATOM     20  C   UNL     1      -1.969  11.523  19.489  0.00  0.00    +0.000 C 
BRANCH  20  21
ATOM     21  C   UNL     1      -2.544  11.060  18.158  0.00  0.00    +0.000 A 
ATOM     22  C   UNL     1      -3.739  11.606  17.658  0.00  0.00    +0.000 A 
ATOM     23  C   UNL     1      -4.200  11.266  16.382  0.00  0.00    +0.000 A 
ATOM     24  C   UNL     1      -3.478  10.370  15.596  0.00  0.00    +0.000 A 
ATOM     25 CL   UNL     1      -4.003  10.009  13.998  0.00  0.00    +0.000 Cl
ATOM     26  C   UNL     1      -2.316   9.786  16.092  0.00  0.00    +0.000 A 
ATOM     27  C   UNL     1      -1.855  10.125  17.367  0.00  0.00    +0.000 A 
ENDBRANCH  20  21
ENDBRANCH   1  20
TORSDOF 5
ENDMDL
MODEL 8
REMARK VINA RESULT:      -7.4      5.740      8.393
REMARK  Name = 
REMARK  5 active torsions:
REMARK  status: ('A' for Active; 'I' for Inactive)
REMARK    1  A    between atoms: S_2  and  C_4
REMARK    2  A    between atoms: S_2  and  N_10
REMARK    3  A    between atoms: N_10  and  C_11
REMARK    4  A    between atoms: N_10  and  C_19
REMARK    5  A    between atoms: C_11  and  C_12
REMARK                            x       y       z     vdW  Elec       q    Type
REMARK                         _______ _______ _______ _____ _____    ______ ____
ROOT
ATOM      1  N   UNL     1       0.162  10.605  20.021  0.00  0.00    +0.000 N 
ENDROOT
BRANCH   1   2
ATOM      2  C   UNL     1       1.035   9.586  19.488  0.00  0.00    +0.000 A 
ATOM      3  C   UNL     1       1.260   8.430  20.188  0.00  0.00    +0.000 A 
ATOM      4  C   UNL     1       2.082   7.494  19.489  0.00  0.00    +0.000 A 
ATOM      5  C   UNL     1       2.485   6.188  19.858  0.00  0.00    +0.000 A 
ATOM      6  C   UNL     1       3.358   5.459  19.053  0.00  0.00    +0.000 A 
ATOM      7  C   UNL     1       3.844   6.014  17.875  0.00  0.00    +0.000 A 
ATOM      8  C   UNL     1       3.433   7.290  17.461  0.00  0.00    +0.000 A 
ATOM      9  C   UNL     1       2.538   8.019  18.277  0.00  0.00    +0.000 A 
ATOM     10  S   UNL     1       1.836   9.578  17.985  0.00  0.00    +0.000 S 
ENDBRANCH   1   2
BRANCH   1  12
ATOM     11  O   UNL     1       1.785  12.315  21.060  0.00  0.00    +0.000 OA
ATOM     12  S   UNL     1       0.832  11.292  21.446  0.00  0.00    +0.000 S 
ATOM     13  O   UNL     1       1.204  10.232  22.361  0.00  0.00    +0.000 OA
BRANCH  12  14
ATOM     14  C   UNL     1      -0.568  12.122  22.186  0.00  0.00    +0.000 A 
ATOM     15  C   UNL     1      -0.666  13.515  22.104  0.00  0.00    +0.000 A 
ATOM     16  C   UNL     1      -1.790  14.158  22.630  0.00  0.00    +0.000 A 
ATOM     17  C   UNL     1      -2.807  13.413  23.228  0.00  0.00    +0.000 A 
ATOM     18  C   UNL     1      -2.715  12.023  23.292  0.00  0.00    +0.000 A 
ATOM     19  C   UNL     1      -1.602  11.373  22.759  0.00  0.00    +0.000 A 
ENDBRANCH  12  14
ENDBRANCH   1  12
BRANCH   1  20
ATOM     20  C   UNL     1      -0.421  11.580  19.063  0.00  0.00    +0.000 C 
BRANCH  20  21
ATOM     21  C   UNL     1      -1.918  11.381  18.867  0.00  0.00    +0.000 A 
ATOM     22  C   UNL     1      -2.847  12.245  19.472  0.00  0.00    +0.000 A 
ATOM     23  C   UNL     1      -4.213  12.132  19.193  0.00  0.00    +0.000 A 
ATOM     24  C   UNL     1      -4.666  11.149  18.315  0.00  0.00    +0.000 A 
ATOM     25 CL   UNL     1      -6.336  11.058  17.913  0.00  0.00    +0.000 Cl
ATOM     26  C   UNL     1      -3.765  10.257  17.740  0.00  0.00    +0.000 A 
ATOM     27  C   UNL     1      -2.400  10.370  18.019  0.00  0.00    +0.000 A 
ENDBRANCH  20  21
ENDBRANCH   1  20
TORSDOF 5
ENDMDL
MODEL 9
REMARK VINA RESULT:      -7.3      6.211      9.523
REMARK  Name = 
REMARK  5 active torsions:
REMARK  status: ('A' for Active; 'I' for Inactive)
REMARK    1  A    between atoms: S_2  and  C_4
REMARK    2  A    between atoms: S_2  and  N_10
REMARK    3  A    between atoms: N_10  and  C_11
REMARK    4  A    between atoms: N_10  and  C_19
REMARK    5  A    between atoms: C_11  and  C_12
REMARK                            x       y       z     vdW  Elec       q    Type
REMARK                         _______ _______ _______ _____ _____    ______ ____
ROOT
ATOM      1  N   UNL     1      -0.405  11.369  19.330  0.00  0.00    +0.000 N 
ENDROOT
BRANCH   1   2
ATOM      2  C   UNL     1       0.205  12.657  19.101  0.00  0.00    +0.000 A 
ATOM      3  C   UNL     1      -0.499  13.809  19.332  0.00  0.00    +0.000 A 
ATOM      4  C   UNL     1       0.272  14.996  19.133  0.00  0.00    +0.000 A 
ATOM      5  C   UNL     1      -0.086  16.352  19.322  0.00  0.00    +0.000 A 
ATOM      6  C   UNL     1       0.804  17.374  18.998  0.00  0.00    +0.000 A 
ATOM      7  C   UNL     1       2.058  17.066  18.482  0.00  0.00    +0.000 A 
ATOM      8  C   UNL     1       2.457  15.731  18.320  0.00  0.00    +0.000 A 
ATOM      9  C   UNL     1       1.553  14.699  18.661  0.00  0.00    +0.000 A 
ATOM     10  S   UNL     1       1.803  12.984  18.609  0.00  0.00    +0.000 S 
ENDBRANCH   1   2
BRANCH   1  12
ATOM     11  O   UNL     1      -0.714   9.992  21.486  0.00  0.00    +0.000 OA
ATOM     12  S   UNL     1       0.330  10.580  20.668  0.00  0.00    +0.000 S 
ATOM     13  O   UNL     1       1.331  11.451  21.249  0.00  0.00    +0.000 OA
BRANCH  12  14
ATOM     14  C   UNL     1       1.223   9.236  19.898  0.00  0.00    +0.000 A 
ATOM     15  C   UNL     1       1.540   8.099  20.649  0.00  0.00    +0.000 A 
ATOM     16  C   UNL     1       2.184   7.024  20.032  0.00  0.00    +0.000 A 
ATOM     17  C   UNL     1       2.505   7.085  18.675  0.00  0.00    +0.000 A 
ATOM     18  C   UNL     1       2.171   8.212  17.925  0.00  0.00    +0.000 A 
ATOM     19  C   UNL     1       1.516   9.285  18.531  0.00  0.00    +0.000 A 
ENDBRANCH  12  14
ENDBRANCH   1  12
BRANCH   1  20
ATOM     20  C   UNL     1      -1.889  11.294  19.289  0.00  0.00    +0.000 C 
BRANCH  20  21
ATOM     21  C   UNL     1      -2.420  11.013  17.891  0.00  0.00    +0.000 A 
ATOM     22  C   UNL     1      -1.778  10.091  17.045  0.00  0.00    +0.000 A 
ATOM     23  C   UNL     1      -2.336   9.748  15.810  0.00  0.00    +0.000 A 
ATOM     24  C   UNL     1      -3.536  10.327  15.401  0.00  0.00    +0.000 A 
ATOM     25 CL   UNL     1      -4.261   9.848  13.916  0.00  0.00    +0.000 Cl
ATOM     26  C   UNL     1      -4.163  11.274  16.206  0.00  0.00    +0.000 A 
ATOM     27  C   UNL     1      -3.605  11.618  17.440  0.00  0.00    +0.000 A 
ENDBRANCH  20  21
ENDBRANCH   1  20
TORSDOF 5
ENDMDL
