MODEL 1
REMARK VINA RESULT:      -8.9      0.000      0.000
REMARK  Name = 
REMARK  8 active torsions:
REMARK  status: ('A' for Active; 'I' for Inactive)
REMARK    1  A    between atoms: C_1  and  O_2
REMARK    2  A    between atoms: O_2  and  C_3
REMARK    3  A    between atoms: C_6  and  C_7
REMARK    4  A    between atoms: C_7  and  N_8
REMARK    5  A    between atoms: C_9  and  C_11
REMARK    6  A    between atoms: C_11  and  N_12
REMARK    7  A    between atoms: C_20  and  S_21
REMARK    8  A    between atoms: S_21  and  N_24
REMARK                            x       y       z     vdW  Elec       q    Type
REMARK                         _______ _______ _______ _____ _____    ______ ____
ROOT
ATOM      1  N   UNL     1      -0.175  10.727  20.796  0.00  0.00    +0.000 N 
ATOM      2  C   UNL     1       0.168  10.242  22.085  0.00  0.00    +0.000 C 
ATOM      3  O   UNL     1       0.902   9.437  22.605  0.00  0.00    +0.000 OA
ATOM      4  C   UNL     1      -0.854  10.913  22.698  0.00  0.00    +0.000 C 
ATOM      5  O   UNL     1      -1.787  11.493  23.323  0.00  0.00    +0.000 OA
ATOM      6  C   UNL     1      -2.080  12.300  22.093  0.00  0.00    +0.000 A 
ATOM      7  C   UNL     1      -2.877  13.167  23.051  0.00  0.00    +0.000 A 
ATOM      8  C   UNL     1      -3.978  13.799  22.702  0.00  0.00    +0.000 A 
ATOM      9  C   UNL     1      -4.193  13.590  21.375  0.00  0.00    +0.000 A 
ATOM     10  C   UNL     1      -3.086  12.626  20.419  0.00  0.00    +0.000 A 
ATOM     11  C   UNL     1      -1.716  11.730  20.576  0.00  0.00    +0.000 A 
ENDROOT
BRANCH   9  12
ATOM     12  S   UNL     1      -5.811  14.767  21.254  0.00  0.00    +0.000 S 
ATOM     13  O   UNL     1      -6.824  14.221  22.146  0.00  0.00    +0.000 OA
ATOM     14  O   UNL     1      -5.339  16.120  21.512  0.00  0.00    +0.000 OA
BRANCH  12  15
ATOM     15  N   UNL     1      -6.468  14.744  19.723  0.00  0.00    +0.000 NA
ATOM     16  C   UNL     1      -6.067  15.906  18.937  0.00  0.00    +0.000 C 
ATOM     17  C   UNL     1      -7.062  16.354  17.889  0.00  0.00    +0.000 C 
ATOM     18  C   UNL     1      -7.036  15.499  16.636  0.00  0.00    +0.000 C 
ATOM     19  C   UNL     1      -7.420  14.046  16.875  0.00  0.00    +0.000 C 
ATOM     20  C   UNL     1      -6.377  13.287  17.684  0.00  0.00    +0.000 C 
ATOM     21  C   UNL     1      -6.571  13.384  19.174  0.00  0.00    +0.000 C 
ENDBRANCH  12  15
ENDBRANCH   9  12
BRANCH   1  22
ATOM     22  C   UNL     1       1.099   9.689  20.014  0.00  0.00    +0.000 C 
BRANCH  22  24
ATOM     23  N   UNL     1       2.378   6.913  20.357  0.00  0.00    +0.000 N 
ATOM     24  C   UNL     1       1.899   8.058  19.510  0.00  0.00    +0.000 C 
ATOM     25  O   UNL     1       2.008   7.865  18.278  0.00  0.00    +0.000 OA
ATOM     26  H   UNL     1       2.483   6.962  21.366  0.00  0.00    +0.000 HD
BRANCH  23  27
ATOM     27  C   UNL     1       3.001   5.565  19.705  0.00  0.00    +0.000 C 
BRANCH  27  31
ATOM     28  C   UNL     1       6.490   5.062  16.853  0.00  0.00    +0.000 A 
ATOM     29  C   UNL     1       5.212   5.337  16.379  0.00  0.00    +0.000 A 
ATOM     30  C   UNL     1       4.130   5.551  17.298  0.00  0.00    +0.000 A 
ATOM     31  C   UNL     1       4.266   5.438  18.731  0.00  0.00    +0.000 A 
ATOM     32  C   UNL     1       5.581   5.235  19.151  0.00  0.00    +0.000 A 
ATOM     33  C   UNL     1       6.663   5.049  18.237  0.00  0.00    +0.000 A 
BRANCH  28  35
ATOM     34  C   UNL     1       7.085   4.791  14.566  0.00  0.00    +0.000 C 
ATOM     35  O   UNL     1       7.497   4.895  15.935  0.00  0.00    +0.000 OA
ENDBRANCH  28  35
ENDBRANCH  27  31
ENDBRANCH  23  27
ENDBRANCH  22  24
ENDBRANCH   1  22
TORSDOF 7
ENDMDL
MODEL 2
REMARK VINA RESULT:      -8.8      2.687      3.534
REMARK  Name = 
REMARK  8 active torsions:
REMARK  status: ('A' for Active; 'I' for Inactive)
REMARK    1  A    between atoms: C_1  and  O_2
REMARK    2  A    between atoms: O_2  and  C_3
REMARK    3  A    between atoms: C_6  and  C_7
REMARK    4  A    between atoms: C_7  and  N_8
REMARK    5  A    between atoms: C_9  and  C_11
REMARK    6  A    between atoms: C_11  and  N_12
REMARK    7  A    between atoms: C_20  and  S_21
REMARK    8  A    between atoms: S_21  and  N_24
REMARK                            x       y       z     vdW  Elec       q    Type
REMARK                         _______ _______ _______ _____ _____    ______ ____
ROOT
ATOM      1  N   UNL     1       0.477   8.912  20.897  0.00  0.00    +0.000 N 
ATOM      2  C   UNL     1       0.906   9.380  19.627  0.00  0.00    +0.000 C 
ATOM      3  O   UNL     1       1.636   9.058  18.721  0.00  0.00    +0.000 OA
ATOM      4  C   UNL     1       0.311  10.601  19.786  0.00  0.00    +0.000 C 
ATOM      5  O   UNL     1      -0.201  11.753  19.876  0.00  0.00    +0.000 OA
ATOM      6  C   UNL     1      -0.956  11.298  21.090  0.00  0.00    +0.000 A 
ATOM      7  C   UNL     1      -1.771  12.557  20.851  0.00  0.00    +0.000 A 
ATOM      8  C   UNL     1      -2.302  13.264  21.826  0.00  0.00    +0.000 A 
ATOM      9  C   UNL     1      -2.050  12.633  23.005  0.00  0.00    +0.000 A 
ATOM     10  C   UNL     1      -1.164  11.124  23.052  0.00  0.00    +0.000 A 
ATOM     11  C   UNL     1      -0.389  10.070  22.053  0.00  0.00    +0.000 A 
ENDROOT
BRANCH   9  12
ATOM     12  S   UNL     1      -3.084  13.922  24.139  0.00  0.00    +0.000 S 
ATOM     13  O   UNL     1      -4.027  13.153  24.938  0.00  0.00    +0.000 OA
ATOM     14  O   UNL     1      -2.089  14.718  24.844  0.00  0.00    +0.000 OA
BRANCH  12  15
ATOM     15  N   UNL     1      -3.993  14.961  23.206  0.00  0.00    +0.000 NA
ATOM     16  C   UNL     1      -5.401  14.578  23.172  0.00  0.00    +0.000 C 
ATOM     17  C   UNL     1      -6.145  14.957  21.911  0.00  0.00    +0.000 C 
ATOM     18  C   UNL     1      -6.543  16.420  21.867  0.00  0.00    +0.000 C 
ATOM     19  C   UNL     1      -5.361  17.378  21.869  0.00  0.00    +0.000 C 
ATOM     20  C   UNL     1      -4.614  17.390  23.196  0.00  0.00    +0.000 C 
ATOM     21  C   UNL     1      -3.528  16.352  23.294  0.00  0.00    +0.000 C 
ENDBRANCH  12  15
ENDBRANCH   9  12
BRANCH   1  22
ATOM     22  C   UNL     1       1.420   7.368  20.700  0.00  0.00    +0.000 C 
BRANCH  22  24
ATOM     23  N   UNL     1       3.797   5.507  20.114  0.00  0.00    +0.000 N 
ATOM     24  C   UNL     1       2.471   6.118  19.759  0.00  0.00    +0.000 C 
ATOM     25  O   UNL     1       1.974   5.682  18.695  0.00  0.00    +0.000 OA
ATOM     26  H   UNL     1       4.391   5.844  20.866  0.00  0.00    +0.000 HD
BRANCH  23  27
ATOM     27  C   UNL     1       4.512   4.398  19.171  0.00  0.00    +0.000 C 
BRANCH  27  31
ATOM     28  C   UNL     1       6.860   5.195  15.373  0.00  0.00    +0.000 A 
ATOM     29  C   UNL     1       7.476   4.651  16.495  0.00  0.00    +0.000 A 
ATOM     30  C   UNL     1       6.707   4.350  17.669  0.00  0.00    +0.000 A 
ATOM     31  C   UNL     1       5.297   4.639  17.796  0.00  0.00    +0.000 A 
ATOM     32  C   UNL     1       4.719   5.113  16.617  0.00  0.00    +0.000 A 
ATOM     33  C   UNL     1       5.480   5.387  15.439  0.00  0.00    +0.000 A 
BRANCH  28  35
ATOM     34  C   UNL     1       7.278   4.709  13.083  0.00  0.00    +0.000 C 
ATOM     35  O   UNL     1       7.634   5.437  14.265  0.00  0.00    +0.000 OA
ENDBRANCH  28  35
ENDBRANCH  27  31
ENDBRANCH  23  27
ENDBRANCH  22  24
ENDBRANCH   1  22
TORSDOF 7
ENDMDL
MODEL 3
REMARK VINA RESULT:      -8.7      9.551     11.480
REMARK  Name = 
REMARK  8 active torsions:
REMARK  status: ('A' for Active; 'I' for Inactive)
REMARK    1  A    between atoms: C_1  and  O_2
REMARK    2  A    between atoms: O_2  and  C_3
REMARK    3  A    between atoms: C_6  and  C_7
REMARK    4  A    between atoms: C_7  and  N_8
REMARK    5  A    between atoms: C_9  and  C_11
REMARK    6  A    between atoms: C_11  and  N_12
REMARK    7  A    between atoms: C_20  and  S_21
REMARK    8  A    between atoms: S_21  and  N_24
REMARK                            x       y       z     vdW  Elec       q    Type
REMARK                         _______ _______ _______ _____ _____    ______ ____
ROOT
ATOM      1  N   UNL     1       9.214  11.361  19.461  0.00  0.00    +0.000 N 
ATOM      2  C   UNL     1      10.367  11.679  18.697  0.00  0.00    +0.000 C 
ATOM      3  O   UNL     1      11.022  11.239  17.784  0.00  0.00    +0.000 OA
ATOM      4  C   UNL     1      10.723  12.715  19.517  0.00  0.00    +0.000 C 
ATOM      5  O   UNL     1      11.116  13.672  20.242  0.00  0.00    +0.000 OA
ATOM      6  C   UNL     1       9.800  13.639  20.961  0.00  0.00    +0.000 A 
ATOM      7  C   UNL     1      10.232  15.002  21.473  0.00  0.00    +0.000 A 
ATOM      8  C   UNL     1       9.914  15.454  22.667  0.00  0.00    +0.000 A 
ATOM      9  C   UNL     1       9.109  14.541  23.275  0.00  0.00    +0.000 A 
ATOM     10  C   UNL     1       8.648  13.060  22.464  0.00  0.00    +0.000 A 
ATOM     11  C   UNL     1       8.900  12.246  21.057  0.00  0.00    +0.000 A 
ENDROOT
BRANCH   9  12
ATOM     12  S   UNL     1       8.789  15.635  24.925  0.00  0.00    +0.000 S 
ATOM     13  O   UNL     1      10.061  15.775  25.618  0.00  0.00    +0.000 OA
ATOM     14  O   UNL     1       8.125  16.849  24.473  0.00  0.00    +0.000 OA
BRANCH  12  15
ATOM     15  N   UNL     1       7.759  14.857  25.979  0.00  0.00    +0.000 NA
ATOM     16  C   UNL     1       6.360  15.015  25.595  0.00  0.00    +0.000 C 
ATOM     17  C   UNL     1       5.367  14.986  26.736  0.00  0.00    +0.000 C 
ATOM     18  C   UNL     1       5.072  13.585  27.237  0.00  0.00    +0.000 C 
ATOM     19  C   UNL     1       6.284  12.872  27.818  0.00  0.00    +0.000 C 
ATOM     20  C   UNL     1       7.321  12.516  26.761  0.00  0.00    +0.000 C 
ATOM     21  C   UNL     1       8.326  13.606  26.502  0.00  0.00    +0.000 C 
ENDBRANCH  12  15
ENDBRANCH   9  12
BRANCH   1  22
ATOM     22  C   UNL     1       8.878   9.898  18.432  0.00  0.00    +0.000 C 
BRANCH  22  24
ATOM     23  N   UNL     1       7.306   7.730  16.920  0.00  0.00    +0.000 N 
ATOM     24  C   UNL     1       8.155   8.195  18.069  0.00  0.00    +0.000 C 
ATOM     25  O   UNL     1       8.465   7.290  18.876  0.00  0.00    +0.000 OA
ATOM     26  H   UNL     1       6.860   8.357  16.257  0.00  0.00    +0.000 HD
BRANCH  23  27
ATOM     27  C   UNL     1       6.827   6.187  16.775  0.00  0.00    +0.000 C 
BRANCH  27  31
ATOM     28  C   UNL     1       3.395   3.994  18.772  0.00  0.00    +0.000 A 
ATOM     29  C   UNL     1       4.698   3.861  19.238  0.00  0.00    +0.000 A 
ATOM     30  C   UNL     1       5.765   4.607  18.632  0.00  0.00    +0.000 A 
ATOM     31  C   UNL     1       5.584   5.474  17.491  0.00  0.00    +0.000 A 
ATOM     32  C   UNL     1       4.249   5.627  17.115  0.00  0.00    +0.000 A 
ATOM     33  C   UNL     1       3.184   4.904  17.736  0.00  0.00    +0.000 A 
BRANCH  28  35
ATOM     34  C   UNL     1       1.747   2.287  18.612  0.00  0.00    +0.000 C 
ATOM     35  O   UNL     1       2.407   3.282  19.404  0.00  0.00    +0.000 OA
ENDBRANCH  28  35
ENDBRANCH  27  31
ENDBRANCH  23  27
ENDBRANCH  22  24
ENDBRANCH   1  22
TORSDOF 7
ENDMDL
MODEL 4
REMARK VINA RESULT:      -8.6      3.019      3.963
REMARK  Name = 
REMARK  8 active torsions:
REMARK  status: ('A' for Active; 'I' for Inactive)
REMARK    1  A    between atoms: C_1  and  O_2
REMARK    2  A    between atoms: O_2  and  C_3
REMARK    3  A    between atoms: C_6  and  C_7
REMARK    4  A    between atoms: C_7  and  N_8
REMARK    5  A    between atoms: C_9  and  C_11
REMARK    6  A    between atoms: C_11  and  N_12
REMARK    7  A    between atoms: C_20  and  S_21
REMARK    8  A    between atoms: S_21  and  N_24
REMARK                            x       y       z     vdW  Elec       q    Type
REMARK                         _______ _______ _______ _____ _____    ______ ____
ROOT
ATOM      1  N   UNL     1       0.968   8.988  20.238  0.00  0.00    +0.000 N 
ATOM      2  C   UNL     1       1.301   9.255  18.884  0.00  0.00    +0.000 C 
ATOM      3  O   UNL     1       1.948   8.783  17.981  0.00  0.00    +0.000 OA
ATOM      4  C   UNL     1       0.750  10.506  18.911  0.00  0.00    +0.000 C 
ATOM      5  O   UNL     1       0.273  11.676  18.873  0.00  0.00    +0.000 OA
ATOM      6  C   UNL     1      -0.391  11.425  20.195  0.00  0.00    +0.000 A 
ATOM      7  C   UNL     1      -1.194  12.664  19.841  0.00  0.00    +0.000 A 
ATOM      8  C   UNL     1      -1.626  13.521  20.741  0.00  0.00    +0.000 A 
ATOM      9  C   UNL     1      -1.293  13.056  21.975  0.00  0.00    +0.000 A 
ATOM     10  C   UNL     1      -0.440  11.539  22.171  0.00  0.00    +0.000 A 
ATOM     11  C   UNL     1       0.226  10.328  21.278  0.00  0.00    +0.000 A 
ENDROOT
BRANCH   9  12
ATOM     12  S   UNL     1      -2.202  14.528  22.988  0.00  0.00    +0.000 S 
ATOM     13  O   UNL     1      -1.798  14.422  24.382  0.00  0.00    +0.000 OA
ATOM     14  O   UNL     1      -1.876  15.757  22.280  0.00  0.00    +0.000 OA
BRANCH  12  15
ATOM     15  N   UNL     1      -3.859  14.353  22.961  0.00  0.00    +0.000 NA
ATOM     16  C   UNL     1      -4.354  13.647  24.138  0.00  0.00    +0.000 C 
ATOM     17  C   UNL     1      -5.624  12.851  23.930  0.00  0.00    +0.000 C 
ATOM     18  C   UNL     1      -6.874  13.709  23.918  0.00  0.00    +0.000 C 
ATOM     19  C   UNL     1      -6.913  14.722  22.783  0.00  0.00    +0.000 C 
ATOM     20  C   UNL     1      -5.883  15.832  22.947  0.00  0.00    +0.000 C 
ATOM     21  C   UNL     1      -4.538  15.506  22.355  0.00  0.00    +0.000 C 
ENDBRANCH  12  15
ENDBRANCH   9  12
BRANCH   1  22
ATOM     22  C   UNL     1       1.856   7.401  20.194  0.00  0.00    +0.000 C 
BRANCH  22  24
ATOM     23  N   UNL     1       4.384   5.724  19.687  0.00  0.00    +0.000 N 
ATOM     24  C   UNL     1       2.949   6.077  19.414  0.00  0.00    +0.000 C 
ATOM     25  O   UNL     1       2.390   5.336  18.575  0.00  0.00    +0.000 OA
ATOM     26  H   UNL     1       5.014   6.303  20.234  0.00  0.00    +0.000 HD
BRANCH  23  27
ATOM     27  C   UNL     1       5.127   4.500  18.926  0.00  0.00    +0.000 C 
BRANCH  27  31
ATOM     28  C   UNL     1       6.485   4.485  14.598  0.00  0.00    +0.000 A 
ATOM     29  C   UNL     1       7.380   4.748  15.629  0.00  0.00    +0.000 A 
ATOM     30  C   UNL     1       6.948   4.691  16.997  0.00  0.00    +0.000 A 
ATOM     31  C   UNL     1       5.584   4.429  17.392  0.00  0.00    +0.000 A 
ATOM     32  C   UNL     1       4.748   4.100  16.323  0.00  0.00    +0.000 A 
ATOM     33  C   UNL     1       5.186   4.130  14.963  0.00  0.00    +0.000 A 
BRANCH  28  35
ATOM     34  C   UNL     1       8.055   5.409  13.070  0.00  0.00    +0.000 C 
ATOM     35  O   UNL     1       6.955   4.522  13.309  0.00  0.00    +0.000 OA
ENDBRANCH  28  35
ENDBRANCH  27  31
ENDBRANCH  23  27
ENDBRANCH  22  24
ENDBRANCH   1  22
TORSDOF 7
ENDMDL
MODEL 5
REMARK VINA RESULT:      -8.6      3.492      4.681
REMARK  Name = 
REMARK  8 active torsions:
REMARK  status: ('A' for Active; 'I' for Inactive)
REMARK    1  A    between atoms: C_1  and  O_2
REMARK    2  A    between atoms: O_2  and  C_3
REMARK    3  A    between atoms: C_6  and  C_7
REMARK    4  A    between atoms: C_7  and  N_8
REMARK    5  A    between atoms: C_9  and  C_11
REMARK    6  A    between atoms: C_11  and  N_12
REMARK    7  A    between atoms: C_20  and  S_21
REMARK    8  A    between atoms: S_21  and  N_24
REMARK                            x       y       z     vdW  Elec       q    Type
REMARK                         _______ _______ _______ _____ _____    ______ ____
ROOT
ATOM      1  N   UNL     1       1.469   8.871  19.617  0.00  0.00    +0.000 N 
ATOM      2  C   UNL     1       1.632   7.786  20.517  0.00  0.00    +0.000 C 
ATOM      3  O   UNL     1       2.152   6.697  20.568  0.00  0.00    +0.000 OA
ATOM      4  C   UNL     1       0.740   8.295  21.420  0.00  0.00    +0.000 C 
ATOM      5  O   UNL     1      -0.084   8.701  22.288  0.00  0.00    +0.000 OA
ATOM      6  C   UNL     1      -0.134  10.027  21.587  0.00  0.00    +0.000 A 
ATOM      7  C   UNL     1      -0.785  10.497  22.876  0.00  0.00    +0.000 A 
ATOM      8  C   UNL     1      -1.709  11.434  22.913  0.00  0.00    +0.000 A 
ATOM      9  C   UNL     1      -1.890  11.913  21.653  0.00  0.00    +0.000 A 
ATOM     10  C   UNL     1      -0.958  11.293  20.306  0.00  0.00    +0.000 A 
ATOM     11  C   UNL     1       0.185  10.160  19.963  0.00  0.00    +0.000 A 
ENDROOT
BRANCH   9  12
ATOM     12  S   UNL     1      -3.218  13.323  22.171  0.00  0.00    +0.000 S 
ATOM     13  O   UNL     1      -3.500  14.122  20.988  0.00  0.00    +0.000 OA
ATOM     14  O   UNL     1      -4.328  12.613  22.790  0.00  0.00    +0.000 OA
BRANCH  12  15
ATOM     15  N   UNL     1      -2.587  14.365  23.307  0.00  0.00    +0.000 NA
ATOM     16  C   UNL     1      -1.779  15.416  22.698  0.00  0.00    +0.000 C 
ATOM     17  C   UNL     1      -0.659  15.954  23.561  0.00  0.00    +0.000 C 
ATOM     18  C   UNL     1      -1.134  16.933  24.617  0.00  0.00    +0.000 C 
ATOM     19  C   UNL     1      -2.089  16.324  25.634  0.00  0.00    +0.000 C 
ATOM     20  C   UNL     1      -3.443  15.970  25.034  0.00  0.00    +0.000 C 
ATOM     21  C   UNL     1      -3.502  14.589  24.436  0.00  0.00    +0.000 C 
ENDBRANCH  12  15
ENDBRANCH   9  12
BRANCH   1  22
ATOM     22  C   UNL     1       2.538   8.071  18.382  0.00  0.00    +0.000 C 
BRANCH  22  24
ATOM     23  N   UNL     1       4.663   5.852  18.541  0.00  0.00    +0.000 N 
ATOM     24  C   UNL     1       3.938   6.945  17.808  0.00  0.00    +0.000 C 
ATOM     25  O   UNL     1       4.292   7.086  16.615  0.00  0.00    +0.000 OA
ATOM     26  H   UNL     1       4.591   5.700  19.543  0.00  0.00    +0.000 HD
BRANCH  23  27
ATOM     27  C   UNL     1       5.819   4.963  17.832  0.00  0.00    +0.000 C 
BRANCH  27  31
ATOM     28  C   UNL     1       6.399   4.017  13.435  0.00  0.00    +0.000 A 
ATOM     29  C   UNL     1       5.244   3.630  14.104  0.00  0.00    +0.000 A 
ATOM     30  C   UNL     1       5.049   3.988  15.480  0.00  0.00    +0.000 A 
ATOM     31  C   UNL     1       6.031   4.697  16.267  0.00  0.00    +0.000 A 
ATOM     32  C   UNL     1       7.134   5.124  15.526  0.00  0.00    +0.000 A 
ATOM     33  C   UNL     1       7.315   4.791  14.148  0.00  0.00    +0.000 A 
BRANCH  28  35
ATOM     34  C   UNL     1       5.715   2.579  11.669  0.00  0.00    +0.000 C 
ATOM     35  O   UNL     1       6.524   3.676  12.111  0.00  0.00    +0.000 OA
ENDBRANCH  28  35
ENDBRANCH  27  31
ENDBRANCH  23  27
ENDBRANCH  22  24
ENDBRANCH   1  22
TORSDOF 7
ENDMDL
MODEL 6
REMARK VINA RESULT:      -8.5      9.566     11.360
REMARK  Name = 
REMARK  8 active torsions:
REMARK  status: ('A' for Active; 'I' for Inactive)
REMARK    1  A    between atoms: C_1  and  O_2
REMARK    2  A    between atoms: O_2  and  C_3
REMARK    3  A    between atoms: C_6  and  C_7
REMARK    4  A    between atoms: C_7  and  N_8
REMARK    5  A    between atoms: C_9  and  C_11
REMARK    6  A    between atoms: C_11  and  N_12
REMARK    7  A    between atoms: C_20  and  S_21
REMARK    8  A    between atoms: S_21  and  N_24
REMARK                            x       y       z     vdW  Elec       q    Type
REMARK                         _______ _______ _______ _____ _____    ______ ____
ROOT
ATOM      1  N   UNL     1       8.993  11.072  19.692  0.00  0.00    +0.000 N 
ATOM      2  C   UNL     1      10.121  11.522  18.956  0.00  0.00    +0.000 C 
ATOM      3  O   UNL     1      10.807  11.190  18.021  0.00  0.00    +0.000 OA
ATOM      4  C   UNL     1      10.401  12.525  19.844  0.00  0.00    +0.000 C 
ATOM      5  O   UNL     1      10.723  13.459  20.631  0.00  0.00    +0.000 OA
ATOM      6  C   UNL     1       9.412  13.284  21.340  0.00  0.00    +0.000 A 
ATOM      7  C   UNL     1       9.744  14.638  21.941  0.00  0.00    +0.000 A 
ATOM      8  C   UNL     1       9.393  14.988  23.161  0.00  0.00    +0.000 A 
ATOM      9  C   UNL     1       8.656  13.982  23.703  0.00  0.00    +0.000 A 
ATOM     10  C   UNL     1       8.303  12.527  22.796  0.00  0.00    +0.000 A 
ATOM     11  C   UNL     1       8.615  11.827  21.339  0.00  0.00    +0.000 A 
ENDROOT
BRANCH   9  12
ATOM     12  S   UNL     1       8.256  14.939  25.419  0.00  0.00    +0.000 S 
ATOM     13  O   UNL     1       9.473  14.946  26.217  0.00  0.00    +0.000 OA
ATOM     14  O   UNL     1       7.690  16.224  25.033  0.00  0.00    +0.000 OA
BRANCH  12  15
ATOM     15  N   UNL     1       7.108  14.129  26.315  0.00  0.00    +0.000 NA
ATOM     16  C   UNL     1       7.656  12.942  26.962  0.00  0.00    +0.000 C 
ATOM     17  C   UNL     1       6.671  11.817  27.192  0.00  0.00    +0.000 C 
ATOM     18  C   UNL     1       5.764  12.049  28.385  0.00  0.00    +0.000 C 
ATOM     19  C   UNL     1       4.866  13.269  28.247  0.00  0.00    +0.000 C 
ATOM     20  C   UNL     1       5.639  14.580  28.296  0.00  0.00    +0.000 C 
ATOM     21  C   UNL     1       6.147  15.039  26.955  0.00  0.00    +0.000 C 
ENDBRANCH  12  15
ENDBRANCH   9  12
BRANCH   1  22
ATOM     22  C   UNL     1       8.765   9.659  18.568  0.00  0.00    +0.000 C 
BRANCH  22  24
ATOM     23  N   UNL     1       7.353   7.533  16.851  0.00  0.00    +0.000 N 
ATOM     24  C   UNL     1       8.119   7.959  18.072  0.00  0.00    +0.000 C 
ATOM     25  O   UNL     1       8.411   7.020  18.847  0.00  0.00    +0.000 OA
ATOM     26  H   UNL     1       6.926   8.183  16.197  0.00  0.00    +0.000 HD
BRANCH  23  27
ATOM     27  C   UNL     1       6.933   5.988  16.597  0.00  0.00    +0.000 C 
BRANCH  27  31
ATOM     28  C   UNL     1       3.597   3.754  18.706  0.00  0.00    +0.000 A 
ATOM     29  C   UNL     1       3.401   4.311  17.447  0.00  0.00    +0.000 A 
ATOM     30  C   UNL     1       4.484   4.964  16.768  0.00  0.00    +0.000 A 
ATOM     31  C   UNL     1       5.796   5.143  17.345  0.00  0.00    +0.000 A 
ATOM     32  C   UNL     1       5.956   4.501  18.574  0.00  0.00    +0.000 A 
ATOM     33  C   UNL     1       4.884   3.827  19.237  0.00  0.00    +0.000 A 
BRANCH  28  35
ATOM     34  C   UNL     1       1.235   3.566  18.910  0.00  0.00    +0.000 C 
ATOM     35  O   UNL     1       2.538   3.114  19.300  0.00  0.00    +0.000 OA
ENDBRANCH  28  35
ENDBRANCH  27  31
ENDBRANCH  23  27
ENDBRANCH  22  24
ENDBRANCH   1  22
TORSDOF 7
ENDMDL
MODEL 7
REMARK VINA RESULT:      -8.3      2.741      3.365
REMARK  Name = 
REMARK  8 active torsions:
REMARK  status: ('A' for Active; 'I' for Inactive)
REMARK    1  A    between atoms: C_1  and  O_2
REMARK    2  A    between atoms: O_2  and  C_3
REMARK    3  A    between atoms: C_6  and  C_7
REMARK    4  A    between atoms: C_7  and  N_8
REMARK    5  A    between atoms: C_9  and  C_11
REMARK    6  A    between atoms: C_11  and  N_12
REMARK    7  A    between atoms: C_20  and  S_21
REMARK    8  A    between atoms: S_21  and  N_24
REMARK                            x       y       z     vdW  Elec       q    Type
REMARK                         _______ _______ _______ _____ _____    ______ ____
ROOT
ATOM      1  N   UNL     1       0.201   9.289  21.207  0.00  0.00    +0.000 N 
ATOM      2  C   UNL     1       0.701   9.650  19.929  0.00  0.00    +0.000 C 
ATOM      3  O   UNL     1       1.455   9.237  19.081  0.00  0.00    +0.000 OA
ATOM      4  C   UNL     1       0.151  10.901  19.977  0.00  0.00    +0.000 C 
ATOM      5  O   UNL     1      -0.317  12.075  19.964  0.00  0.00    +0.000 OA
ATOM      6  C   UNL     1      -1.140  11.736  21.172  0.00  0.00    +0.000 A 
ATOM      7  C   UNL     1      -1.893  13.004  20.811  0.00  0.00    +0.000 A 
ATOM      8  C   UNL     1      -2.434  13.798  21.710  0.00  0.00    +0.000 A 
ATOM      9  C   UNL     1      -2.258  13.243  22.939  0.00  0.00    +0.000 A 
ATOM     10  C   UNL     1      -1.436  11.708  23.130  0.00  0.00    +0.000 A 
ATOM     11  C   UNL     1      -0.664  10.558  22.242  0.00  0.00    +0.000 A 
ENDROOT
BRANCH   9  12
ATOM     12  S   UNL     1      -3.285  14.647  23.935  0.00  0.00    +0.000 S 
ATOM     13  O   UNL     1      -3.572  14.128  25.264  0.00  0.00    +0.000 OA
ATOM     14  O   UNL     1      -2.490  15.863  23.839  0.00  0.00    +0.000 OA
BRANCH  12  15
ATOM     15  N   UNL     1      -4.758  14.948  23.217  0.00  0.00    +0.000 NA
ATOM     16  C   UNL     1      -5.766  13.967  23.604  0.00  0.00    +0.000 C 
ATOM     17  C   UNL     1      -6.844  13.705  22.575  0.00  0.00    +0.000 C 
ATOM     18  C   UNL     1      -7.909  14.785  22.535  0.00  0.00    +0.000 C 
ATOM     19  C   UNL     1      -7.381  16.155  22.138  0.00  0.00    +0.000 C 
ATOM     20  C   UNL     1      -6.480  16.770  23.201  0.00  0.00    +0.000 C 
ATOM     21  C   UNL     1      -5.031  16.384  23.069  0.00  0.00    +0.000 C 
ENDBRANCH  12  15
ENDBRANCH   9  12
BRANCH   1  22
ATOM     22  C   UNL     1       1.088   7.701  21.160  0.00  0.00    +0.000 C 
BRANCH  22  24
ATOM     23  N   UNL     1       3.438   6.569  19.530  0.00  0.00    +0.000 N 
ATOM     24  C   UNL     1       2.225   6.402  20.401  0.00  0.00    +0.000 C 
ATOM     25  O   UNL     1       1.970   5.215  20.705  0.00  0.00    +0.000 OA
ATOM     26  H   UNL     1       3.700   7.445  19.088  0.00  0.00    +0.000 HD
BRANCH  23  27
ATOM     27  C   UNL     1       4.310   5.300  19.021  0.00  0.00    +0.000 C 
BRANCH  27  31
ATOM     28  C   UNL     1       6.348   4.813  14.999  0.00  0.00    +0.000 A 
ATOM     29  C   UNL     1       5.370   5.782  15.194  0.00  0.00    +0.000 A 
ATOM     30  C   UNL     1       4.776   5.962  16.488  0.00  0.00    +0.000 A 
ATOM     31  C   UNL     1       5.091   5.139  17.632  0.00  0.00    +0.000 A 
ATOM     32  C   UNL     1       6.129   4.235  17.399  0.00  0.00    +0.000 A 
ATOM     33  C   UNL     1       6.739   4.075  16.116  0.00  0.00    +0.000 A 
BRANCH  28  35
ATOM     34  C   UNL     1       6.306   3.733  12.881  0.00  0.00    +0.000 C 
ATOM     35  O   UNL     1       6.906   4.701  13.750  0.00  0.00    +0.000 OA
ENDBRANCH  28  35
ENDBRANCH  27  31
ENDBRANCH  23  27
ENDBRANCH  22  24
ENDBRANCH   1  22
TORSDOF 7
ENDMDL
MODEL 8
REMARK VINA RESULT:      -8.2      3.910     12.735
REMARK  Name = 
REMARK  8 active torsions:
REMARK  status: ('A' for Active; 'I' for Inactive)
REMARK    1  A    between atoms: C_1  and  O_2
REMARK    2  A    between atoms: O_2  and  C_3
REMARK    3  A    between atoms: C_6  and  C_7
REMARK    4  A    between atoms: C_7  and  N_8
REMARK    5  A    between atoms: C_9  and  C_11
REMARK    6  A    between atoms: C_11  and  N_12
REMARK    7  A    between atoms: C_20  and  S_21
REMARK    8  A    between atoms: S_21  and  N_24
REMARK                            x       y       z     vdW  Elec       q    Type
REMARK                         _______ _______ _______ _____ _____    ______ ____
ROOT
ATOM      1  N   UNL     1       1.005   9.739  19.535  0.00  0.00    +0.000 N 
ATOM      2  C   UNL     1       0.552   9.796  20.879  0.00  0.00    +0.000 C 
ATOM      3  O   UNL     1       0.086  10.584  21.666  0.00  0.00    +0.000 OA
ATOM      4  C   UNL     1       1.025   8.547  21.176  0.00  0.00    +0.000 C 
ATOM      5  O   UNL     1       1.450   7.408  21.519  0.00  0.00    +0.000 OA
ATOM      6  C   UNL     1       1.716   7.096  20.076  0.00  0.00    +0.000 A 
ATOM      7  C   UNL     1       1.822   5.666  20.575  0.00  0.00    +0.000 A 
ATOM      8  C   UNL     1       2.634   4.778  20.042  0.00  0.00    +0.000 A 
ATOM      9  C   UNL     1       3.258   5.347  18.975  0.00  0.00    +0.000 A 
ATOM     10  C   UNL     1       2.918   7.000  18.505  0.00  0.00    +0.000 A 
ATOM     11  C   UNL     1       2.023   8.299  18.973  0.00  0.00    +0.000 A 
ENDROOT
BRANCH   9  12
ATOM     12  S   UNL     1       4.250   3.694  18.426  0.00  0.00    +0.000 S 
ATOM     13  O   UNL     1       5.004   3.226  19.579  0.00  0.00    +0.000 OA
ATOM     14  O   UNL     1       3.249   2.801  17.861  0.00  0.00    +0.000 OA
BRANCH  12  15
ATOM     15  N   UNL     1       5.366   4.023  17.232  0.00  0.00    +0.000 NA
ATOM     16  C   UNL     1       4.738   4.182  15.925  0.00  0.00    +0.000 C 
ATOM     17  C   UNL     1       5.601   3.801  14.742  0.00  0.00    +0.000 C 
ATOM     18  C   UNL     1       6.624   4.860  14.380  0.00  0.00    +0.000 C 
ATOM     19  C   UNL     1       7.644   5.129  15.476  0.00  0.00    +0.000 C 
ATOM     20  C   UNL     1       7.036   5.813  16.693  0.00  0.00    +0.000 C 
ATOM     21  C   UNL     1       6.476   4.858  17.712  0.00  0.00    +0.000 C 
ENDBRANCH  12  15
ENDBRANCH   9  12
BRANCH   1  22
ATOM     22  C   UNL     1       0.501  11.463  19.243  0.00  0.00    +0.000 C 
BRANCH  22  24
ATOM     23  N   UNL     1      -0.186  14.366  19.994  0.00  0.00    +0.000 N 
ATOM     24  C   UNL     1      -0.563  12.998  19.499  0.00  0.00    +0.000 C 
ATOM     25  O   UNL     1      -1.763  12.889  19.159  0.00  0.00    +0.000 OA
ATOM     26  H   UNL     1       0.705  14.582  20.431  0.00  0.00    +0.000 HD
BRANCH  23  27
ATOM     27  C   UNL     1      -1.266  15.571  20.092  0.00  0.00    +0.000 C 
BRANCH  27  31
ATOM     28  C   UNL     1      -5.032  15.556  22.619  0.00  0.00    +0.000 A 
ATOM     29  C   UNL     1      -3.943  14.758  22.952  0.00  0.00    +0.000 A 
ATOM     30  C   UNL     1      -2.737  14.817  22.175  0.00  0.00    +0.000 A 
ATOM     31  C   UNL     1      -2.588  15.634  20.994  0.00  0.00    +0.000 A 
ATOM     32  C   UNL     1      -3.682  16.467  20.752  0.00  0.00    +0.000 A 
ATOM     33  C   UNL     1      -4.872  16.427  21.541  0.00  0.00    +0.000 A 
BRANCH  28  35
ATOM     34  C   UNL     1      -6.613  14.163  23.723  0.00  0.00    +0.000 C 
ATOM     35  O   UNL     1      -6.151  15.484  23.410  0.00  0.00    +0.000 OA
ENDBRANCH  28  35
ENDBRANCH  27  31
ENDBRANCH  23  27
ENDBRANCH  22  24
ENDBRANCH   1  22
TORSDOF 7
ENDMDL
MODEL 9
REMARK VINA RESULT:      -8.2      2.728      4.287
REMARK  Name = 
REMARK  8 active torsions:
REMARK  status: ('A' for Active; 'I' for Inactive)
REMARK    1  A    between atoms: C_1  and  O_2
REMARK    2  A    between atoms: O_2  and  C_3
REMARK    3  A    between atoms: C_6  and  C_7
REMARK    4  A    between atoms: C_7  and  N_8
REMARK    5  A    between atoms: C_9  and  C_11
REMARK    6  A    between atoms: C_11  and  N_12
REMARK    7  A    between atoms: C_20  and  S_21
REMARK    8  A    between atoms: S_21  and  N_24
REMARK                            x       y       z     vdW  Elec       q    Type
REMARK                         _______ _______ _______ _____ _____    ______ ____
ROOT
ATOM      1  N   UNL     1       0.526   9.443  20.100  0.00  0.00    +0.000 N 
ATOM      2  C   UNL     1       0.659   9.585  18.694  0.00  0.00    +0.000 C 
ATOM      3  O   UNL     1       1.352   9.192  17.786  0.00  0.00    +0.000 OA
ATOM      4  C   UNL     1      -0.249  10.605  18.629  0.00  0.00    +0.000 C 
ATOM      5  O   UNL     1      -1.067  11.561  18.502  0.00  0.00    +0.000 OA
ATOM      6  C   UNL     1      -1.520  11.332  19.914  0.00  0.00    +0.000 A 
ATOM      7  C   UNL     1      -2.692  12.207  19.505  0.00  0.00    +0.000 A 
ATOM      8  C   UNL     1      -3.300  13.026  20.337  0.00  0.00    +0.000 A 
ATOM      9  C   UNL     1      -2.749  12.876  21.571  0.00  0.00    +0.000 A 
ATOM     10  C   UNL     1      -1.456  11.729  21.852  0.00  0.00    +0.000 A 
ATOM     11  C   UNL     1      -0.516  10.647  21.045  0.00  0.00    +0.000 A 
ENDROOT
BRANCH   9  12
ATOM     12  S   UNL     1      -3.992  14.151  22.493  0.00  0.00    +0.000 S 
ATOM     13  O   UNL     1      -4.679  14.921  21.467  0.00  0.00    +0.000 OA
ATOM     14  O   UNL     1      -4.802  13.339  23.388  0.00  0.00    +0.000 OA
BRANCH  12  15
ATOM     15  N   UNL     1      -3.154  15.250  23.426  0.00  0.00    +0.000 NA
ATOM     16  C   UNL     1      -3.885  16.502  23.586  0.00  0.00    +0.000 C 
ATOM     17  C   UNL     1      -3.027  17.733  23.776  0.00  0.00    +0.000 C 
ATOM     18  C   UNL     1      -2.482  17.871  25.185  0.00  0.00    +0.000 C 
ATOM     19  C   UNL     1      -1.555  16.738  25.599  0.00  0.00    +0.000 C 
ATOM     20  C   UNL     1      -2.283  15.413  25.771  0.00  0.00    +0.000 C 
ATOM     21  C   UNL     1      -2.390  14.607  24.504  0.00  0.00    +0.000 C 
ENDBRANCH  12  15
ENDBRANCH   9  12
BRANCH   1  22
ATOM     22  C   UNL     1       1.857   8.203  20.149  0.00  0.00    +0.000 C 
BRANCH  22  24
ATOM     23  N   UNL     1       3.162   5.419  20.215  0.00  0.00    +0.000 N 
ATOM     24  C   UNL     1       2.823   6.710  19.524  0.00  0.00    +0.000 C 
ATOM     25  O   UNL     1       3.204   6.769  18.333  0.00  0.00    +0.000 OA
ATOM     26  H   UNL     1       3.045   5.265  21.213  0.00  0.00    +0.000 HD
BRANCH  23  27
ATOM     27  C   UNL     1       3.973   4.232  19.466  0.00  0.00    +0.000 C 
BRANCH  27  31
ATOM     28  C   UNL     1       6.472   4.359  15.684  0.00  0.00    +0.000 A 
ATOM     29  C   UNL     1       5.096   4.169  15.627  0.00  0.00    +0.000 A 
ATOM     30  C   UNL     1       4.311   4.190  16.829  0.00  0.00    +0.000 A 
ATOM     31  C   UNL     1       4.877   4.340  18.149  0.00  0.00    +0.000 A 
ATOM     32  C   UNL     1       6.249   4.600  18.140  0.00  0.00    +0.000 A 
ATOM     33  C   UNL     1       7.025   4.607  16.940  0.00  0.00    +0.000 A 
BRANCH  28  35
ATOM     34  C   UNL     1       6.433   3.986  13.336  0.00  0.00    +0.000 C 
ATOM     35  O   UNL     1       7.174   4.360  14.504  0.00  0.00    +0.000 OA
ENDBRANCH  28  35
ENDBRANCH  27  31
ENDBRANCH  23  27
ENDBRANCH  22  24
ENDBRANCH   1  22
TORSDOF 7
ENDMDL
