MODEL 1
REMARK VINA RESULT:      -7.2      0.000      0.000
REMARK  Name = 
REMARK  4 active torsions:
REMARK  status: ('A' for Active; 'I' for Inactive)
REMARK    1  A    between atoms: C_1  and  C_2
REMARK    2  A    between atoms: C_2  and  N_3
REMARK    3  A    between atoms: N_9  and  C_10
REMARK    4  A    between atoms: C_10  and  C_11
REMARK                            x       y       z     vdW  Elec       q    Type
REMARK                         _______ _______ _______ _____ _____    ______ ____
ROOT
ATOM      1  C   UNL     1       2.453   6.052  18.287  0.00  0.00    +0.000 C 
ENDROOT
BRANCH   1   2
ATOM      2  C   UNL     1       2.055   6.865  19.538  0.00  0.00    +0.000 C 
ATOM      3  O   UNL     1       1.897   6.275  20.612  0.00  0.00    +0.000 OA
ATOM      4  N   UNL     1       1.919   8.248  19.455  0.00  0.00    +0.000 N 
ATOM      5  C   UNL     1       1.455   9.003  20.623  0.00  0.00    +0.000 C 
ATOM      6  C   UNL     1       0.032   9.517  20.393  0.00  0.00    +0.000 C 
ATOM      7  C   UNL     1      -0.067  10.289  19.073  0.00  0.00    +0.000 C 
ATOM      8  C   UNL     1       0.496   9.465  17.912  0.00  0.00    +0.000 C 
ATOM      9  C   UNL     1       1.921   9.036  18.224  0.00  0.00    +0.000 C 
ATOM     10  O   UNL     1       0.671  11.521  19.191  0.00  0.00    +0.000 OA
ATOM     11  C   UNL     1      -0.163  12.503  18.582  0.00  0.00    +0.000 C 
ATOM     12  C   UNL     1      -1.550  12.010  18.887  0.00  0.00    +0.000 C 
ATOM     13  O   UNL     1      -1.442  10.590  18.781  0.00  0.00    +0.000 OA
ENDBRANCH   1   2
BRANCH   1  20
ATOM     14  N   UNL     1       6.100   5.982  17.640  0.00  0.00    +0.000 N 
ATOM     15  C   UNL     1       6.534   4.823  18.243  0.00  0.00    +0.000 A 
ATOM     16  O   UNL     1       7.684   4.395  18.197  0.00  0.00    +0.000 OA
ATOM     17  C   UNL     1       5.532   4.067  18.996  0.00  0.00    +0.000 A 
ATOM     18  C   UNL     1       4.273   4.502  19.024  0.00  0.00    +0.000 A 
ATOM     19 CL   UNL     1       3.124   3.608  19.946  0.00  0.00    +0.000 Cl
ATOM     20  N   UNL     1       3.857   5.608  18.312  0.00  0.00    +0.000 N 
ATOM     21  C   UNL     1       4.761   6.356  17.554  0.00  0.00    +0.000 A 
ATOM     22  O   UNL     1       4.401   7.290  16.835  0.00  0.00    +0.000 OA
BRANCH  14  24
ATOM     23  C   UNL     1       7.776   7.802  17.909  0.00  0.00    +0.000 C 
ATOM     24  C   UNL     1       7.093   6.816  16.970  0.00  0.00    +0.000 C 
ENDBRANCH  14  24
ENDBRANCH   1  20
TORSDOF 3
ENDMDL
MODEL 2
REMARK VINA RESULT:      -6.9      2.620      4.084
REMARK  Name = 
REMARK  4 active torsions:
REMARK  status: ('A' for Active; 'I' for Inactive)
REMARK    1  A    between atoms: C_1  and  C_2
REMARK    2  A    between atoms: C_2  and  N_3
REMARK    3  A    between atoms: N_9  and  C_10
REMARK    4  A    between atoms: C_10  and  C_11
REMARK                            x       y       z     vdW  Elec       q    Type
REMARK                         _______ _______ _______ _____ _____    ______ ____
ROOT
ATOM      1  C   UNL     1       3.092   7.411  19.245  0.00  0.00    +0.000 C 
ENDROOT
BRANCH   1   2
ATOM      2  C   UNL     1       2.108   8.403  18.588  0.00  0.00    +0.000 C 
ATOM      3  O   UNL     1       2.241   8.677  17.391  0.00  0.00    +0.000 OA
ATOM      4  N   UNL     1       1.063   8.941  19.334  0.00  0.00    +0.000 N 
ATOM      5  C   UNL     1       0.185   9.949  18.731  0.00  0.00    +0.000 C 
ATOM      6  C   UNL     1       0.450  11.323  19.348  0.00  0.00    +0.000 C 
ATOM      7  C   UNL     1       0.372  11.264  20.878  0.00  0.00    +0.000 C 
ATOM      8  C   UNL     1       1.261  10.148  21.430  0.00  0.00    +0.000 C 
ATOM      9  C   UNL     1       0.894   8.822  20.781  0.00  0.00    +0.000 C 
ATOM     10  O   UNL     1      -0.994  11.029  21.271  0.00  0.00    +0.000 OA
ATOM     11  C   UNL     1      -1.213  11.911  22.369  0.00  0.00    +0.000 C 
ATOM     12  C   UNL     1      -0.344  13.091  22.037  0.00  0.00    +0.000 C 
ATOM     13  O   UNL     1       0.816  12.509  21.442  0.00  0.00    +0.000 OA
ENDBRANCH   1   2
BRANCH   1  20
ATOM     14  N   UNL     1       1.795   3.942  19.154  0.00  0.00    +0.000 N 
ATOM     15  C   UNL     1       2.464   3.351  18.106  0.00  0.00    +0.000 A 
ATOM     16  O   UNL     1       2.368   2.170  17.786  0.00  0.00    +0.000 OA
ATOM     17  C   UNL     1       3.346   4.222  17.325  0.00  0.00    +0.000 A 
ATOM     18  C   UNL     1       3.487   5.496  17.683  0.00  0.00    +0.000 A 
ATOM     19 CL   UNL     1       4.505   6.503  16.724  0.00  0.00    +0.000 Cl
ATOM     20  N   UNL     1       2.884   6.019  18.809  0.00  0.00    +0.000 N 
ATOM     21  C   UNL     1       2.053   5.232  19.609  0.00  0.00    +0.000 A 
ATOM     22  O   UNL     1       1.578   5.646  20.669  0.00  0.00    +0.000 OA
BRANCH  14  24
ATOM     23  C   UNL     1       1.399   2.540  21.172  0.00  0.00    +0.000 C 
ATOM     24  C   UNL     1       0.828   3.132  19.889  0.00  0.00    +0.000 C 
ENDBRANCH  14  24
ENDBRANCH   1  20
TORSDOF 3
ENDMDL
MODEL 3
REMARK VINA RESULT:      -6.5      3.206      7.652
REMARK  Name = 
REMARK  4 active torsions:
REMARK  status: ('A' for Active; 'I' for Inactive)
REMARK    1  A    between atoms: C_1  and  C_2
REMARK    2  A    between atoms: C_2  and  N_3
REMARK    3  A    between atoms: N_9  and  C_10
REMARK    4  A    between atoms: C_10  and  C_11
REMARK                            x       y       z     vdW  Elec       q    Type
REMARK                         _______ _______ _______ _____ _____    ______ ____
ROOT
ATOM      1  C   UNL     1       0.475   9.518  19.938  0.00  0.00    +0.000 C 
ENDROOT
BRANCH   1   2
ATOM      2  C   UNL     1       1.478   8.804  19.006  0.00  0.00    +0.000 C 
ATOM      3  O   UNL     1       1.686   9.268  17.880  0.00  0.00    +0.000 OA
ATOM      4  N   UNL     1       2.163   7.678  19.455  0.00  0.00    +0.000 N 
ATOM      5  C   UNL     1       3.046   6.953  18.536  0.00  0.00    +0.000 C 
ATOM      6  C   UNL     1       2.429   5.606  18.156  0.00  0.00    +0.000 C 
ATOM      7  C   UNL     1       2.038   4.808  19.405  0.00  0.00    +0.000 C 
ATOM      8  C   UNL     1       1.173   5.650  20.346  0.00  0.00    +0.000 C 
ATOM      9  C   UNL     1       1.891   6.946  20.690  0.00  0.00    +0.000 C 
ATOM     10  O   UNL     1       3.234   4.394  20.093  0.00  0.00    +0.000 OA
ATOM     11  C   UNL     1       2.988   3.041  20.469  0.00  0.00    +0.000 C 
ATOM     12  C   UNL     1       2.119   2.531  19.353  0.00  0.00    +0.000 C 
ATOM     13  O   UNL     1       1.285   3.643  19.028  0.00  0.00    +0.000 OA
ENDBRANCH   1   2
BRANCH   1  20
ATOM     14  N   UNL     1       0.829  13.205  19.844  0.00  0.00    +0.000 N 
ATOM     15  C   UNL     1      -0.155  13.623  18.977  0.00  0.00    +0.000 A 
ATOM     16  O   UNL     1      -0.419  14.796  18.725  0.00  0.00    +0.000 OA
ATOM     17  C   UNL     1      -0.928  12.571  18.314  0.00  0.00    +0.000 A 
ATOM     18  C   UNL     1      -0.676  11.296  18.606  0.00  0.00    +0.000 A 
ATOM     19 CL   UNL     1      -1.579  10.080  17.783  0.00  0.00    +0.000 Cl
ATOM     20  N   UNL     1       0.243  10.924  19.565  0.00  0.00    +0.000 N 
ATOM     21  C   UNL     1       0.992  11.883  20.251  0.00  0.00    +0.000 A 
ATOM     22  O   UNL     1       1.750  11.586  21.177  0.00  0.00    +0.000 OA
BRANCH  14  24
ATOM     23  C   UNL     1       2.965  14.468  19.649  0.00  0.00    +0.000 C 
ATOM     24  C   UNL     1       1.688  14.222  20.443  0.00  0.00    +0.000 C 
ENDBRANCH  14  24
ENDBRANCH   1  20
TORSDOF 3
ENDMDL
MODEL 4
REMARK VINA RESULT:      -6.4      2.145      3.237
REMARK  Name = 
REMARK  4 active torsions:
REMARK  status: ('A' for Active; 'I' for Inactive)
REMARK    1  A    between atoms: C_1  and  C_2
REMARK    2  A    between atoms: C_2  and  N_3
REMARK    3  A    between atoms: N_9  and  C_10
REMARK    4  A    between atoms: C_10  and  C_11
REMARK                            x       y       z     vdW  Elec       q    Type
REMARK                         _______ _______ _______ _____ _____    ______ ____
ROOT
ATOM      1  C   UNL     1       2.431   6.671  18.291  0.00  0.00    +0.000 C 
ENDROOT
BRANCH   1   2
ATOM      2  C   UNL     1       2.065   7.614  19.458  0.00  0.00    +0.000 C 
ATOM      3  O   UNL     1       2.170   7.202  20.618  0.00  0.00    +0.000 OA
ATOM      4  N   UNL     1       1.665   8.921  19.195  0.00  0.00    +0.000 N 
ATOM      5  C   UNL     1       1.234   9.784  20.301  0.00  0.00    +0.000 C 
ATOM      6  C   UNL     1      -0.277  10.014  20.239  0.00  0.00    +0.000 C 
ATOM      7  C   UNL     1      -0.700  10.518  18.854  0.00  0.00    +0.000 C 
ATOM      8  C   UNL     1      -0.160   9.607  17.750  0.00  0.00    +0.000 C 
ATOM      9  C   UNL     1       1.350   9.473  17.879  0.00  0.00    +0.000 C 
ATOM     10  O   UNL     1      -0.195  11.854  18.665  0.00  0.00    +0.000 OA
ATOM     11  C   UNL     1      -1.274  12.569  18.066  0.00  0.00    +0.000 C 
ATOM     12  C   UNL     1      -2.488  11.919  18.668  0.00  0.00    +0.000 C 
ATOM     13  O   UNL     1      -2.134  10.539  18.755  0.00  0.00    +0.000 OA
ENDBRANCH   1   2
BRANCH   1  20
ATOM     14  N   UNL     1       2.949   3.270  19.665  0.00  0.00    +0.000 N 
ATOM     15  C   UNL     1       4.315   3.101  19.659  0.00  0.00    +0.000 A 
ATOM     16  O   UNL     1       4.905   2.121  20.107  0.00  0.00    +0.000 OA
ATOM     17  C   UNL     1       5.102   4.183  19.063  0.00  0.00    +0.000 A 
ATOM     18  C   UNL     1       4.477   5.267  18.606  0.00  0.00    +0.000 A 
ATOM     19 CL   UNL     1       5.427   6.508  17.880  0.00  0.00    +0.000 Cl
ATOM     20  N   UNL     1       3.115   5.445  18.734  0.00  0.00    +0.000 N 
ATOM     21  C   UNL     1       2.314   4.460  19.317  0.00  0.00    +0.000 A 
ATOM     22  O   UNL     1       1.112   4.631  19.529  0.00  0.00    +0.000 OA
BRANCH  14  24
ATOM     23  C   UNL     1       1.726   2.328  21.616  0.00  0.00    +0.000 C 
ATOM     24  C   UNL     1       2.127   2.168  20.155  0.00  0.00    +0.000 C 
ENDBRANCH  14  24
ENDBRANCH   1  20
TORSDOF 3
ENDMDL
MODEL 5
REMARK VINA RESULT:      -6.4      1.614      1.689
REMARK  Name = 
REMARK  4 active torsions:
REMARK  status: ('A' for Active; 'I' for Inactive)
REMARK    1  A    between atoms: C_1  and  C_2
REMARK    2  A    between atoms: C_2  and  N_3
REMARK    3  A    between atoms: N_9  and  C_10
REMARK    4  A    between atoms: C_10  and  C_11
REMARK                            x       y       z     vdW  Elec       q    Type
REMARK                         _______ _______ _______ _____ _____    ______ ____
ROOT
ATOM      1  C   UNL     1       1.857   6.453  18.209  0.00  0.00    +0.000 C 
ENDROOT
BRANCH   1   2
ATOM      2  C   UNL     1       1.851   6.769  19.720  0.00  0.00    +0.000 C 
ATOM      3  O   UNL     1       1.865   5.835  20.529  0.00  0.00    +0.000 OA
ATOM      4  N   UNL     1       1.873   8.092  20.153  0.00  0.00    +0.000 N 
ATOM      5  C   UNL     1       1.778   8.388  21.587  0.00  0.00    +0.000 C 
ATOM      6  C   UNL     1       0.415   9.000  21.915  0.00  0.00    +0.000 C 
ATOM      7  C   UNL     1       0.121  10.202  21.010  0.00  0.00    +0.000 C 
ATOM      8  C   UNL     1       0.304   9.837  19.535  0.00  0.00    +0.000 C 
ATOM      9  C   UNL     1       1.698   9.273  19.310  0.00  0.00    +0.000 C 
ATOM     10  O   UNL     1       1.013  11.280  21.353  0.00  0.00    +0.000 OA
ATOM     11  C   UNL     1       0.192  12.446  21.350  0.00  0.00    +0.000 C 
ATOM     12  C   UNL     1      -1.142  11.924  21.807  0.00  0.00    +0.000 C 
ATOM     13  O   UNL     1      -1.237  10.637  21.197  0.00  0.00    +0.000 OA
ENDBRANCH   1   2
BRANCH   1  20
ATOM     14  N   UNL     1       5.342   5.775  17.152  0.00  0.00    +0.000 N 
ATOM     15  C   UNL     1       5.370   4.421  16.904  0.00  0.00    +0.000 A 
ATOM     16  O   UNL     1       6.337   3.807  16.462  0.00  0.00    +0.000 OA
ATOM     17  C   UNL     1       4.143   3.680  17.206  0.00  0.00    +0.000 A 
ATOM     18  C   UNL     1       3.076   4.340  17.652  0.00  0.00    +0.000 A 
ATOM     19 CL   UNL     1       1.659   3.436  18.030  0.00  0.00    +0.000 Cl
ATOM     20  N   UNL     1       3.057   5.714  17.780  0.00  0.00    +0.000 N 
ATOM     21  C   UNL     1       4.187   6.479  17.482  0.00  0.00    +0.000 A 
ATOM     22  O   UNL     1       4.169   7.712  17.497  0.00  0.00    +0.000 OA
BRANCH  14  24
ATOM     23  C   UNL     1       7.479   6.517  18.192  0.00  0.00    +0.000 C 
ATOM     24  C   UNL     1       6.578   6.529  16.963  0.00  0.00    +0.000 C 
ENDBRANCH  14  24
ENDBRANCH   1  20
TORSDOF 3
ENDMDL
MODEL 6
REMARK VINA RESULT:      -6.3      1.513      1.710
REMARK  Name = 
REMARK  4 active torsions:
REMARK  status: ('A' for Active; 'I' for Inactive)
REMARK    1  A    between atoms: C_1  and  C_2
REMARK    2  A    between atoms: C_2  and  N_3
REMARK    3  A    between atoms: N_9  and  C_10
REMARK    4  A    between atoms: C_10  and  C_11
REMARK                            x       y       z     vdW  Elec       q    Type
REMARK                         _______ _______ _______ _____ _____    ______ ____
ROOT
ATOM      1  C   UNL     1       1.880   6.607  18.615  0.00  0.00    +0.000 C 
ENDROOT
BRANCH   1   2
ATOM      2  C   UNL     1       1.721   7.612  19.777  0.00  0.00    +0.000 C 
ATOM      3  O   UNL     1       1.804   7.203  20.940  0.00  0.00    +0.000 OA
ATOM      4  N   UNL     1       1.531   8.964  19.505  0.00  0.00    +0.000 N 
ATOM      5  C   UNL     1       1.292   9.900  20.609  0.00  0.00    +0.000 C 
ATOM      6  C   UNL     1      -0.162  10.375  20.599  0.00  0.00    +0.000 C 
ATOM      7  C   UNL     1      -0.551  10.925  19.223  0.00  0.00    +0.000 C 
ATOM      8  C   UNL     1      -0.213   9.923  18.116  0.00  0.00    +0.000 C 
ATOM      9  C   UNL     1       1.258   9.544  18.191  0.00  0.00    +0.000 C 
ATOM     10  O   UNL     1       0.159  12.157  18.989  0.00  0.00    +0.000 OA
ATOM     11  C   UNL     1      -0.811  13.032  18.418  0.00  0.00    +0.000 C 
ATOM     12  C   UNL     1      -2.091  12.599  19.077  0.00  0.00    +0.000 C 
ATOM     13  O   UNL     1      -1.965  11.180  19.177  0.00  0.00    +0.000 OA
ENDBRANCH   1   2
BRANCH   1  20
ATOM     14  N   UNL     1       4.973   4.581  18.831  0.00  0.00    +0.000 N 
ATOM     15  C   UNL     1       4.577   3.413  19.443  0.00  0.00    +0.000 A 
ATOM     16  O   UNL     1       5.302   2.440  19.638  0.00  0.00    +0.000 OA
ATOM     17  C   UNL     1       3.185   3.354  19.892  0.00  0.00    +0.000 A 
ATOM     18  C   UNL     1       2.379   4.387  19.654  0.00  0.00    +0.000 A 
ATOM     19 CL   UNL     1       0.755   4.301  20.224  0.00  0.00    +0.000 Cl
ATOM     20  N   UNL     1       2.787   5.493  18.937  0.00  0.00    +0.000 N 
ATOM     21  C   UNL     1       4.096   5.597  18.460  0.00  0.00    +0.000 A 
ATOM     22  O   UNL     1       4.460   6.527  17.738  0.00  0.00    +0.000 OA
BRANCH  14  24
ATOM     23  C   UNL     1       7.184   5.524  19.476  0.00  0.00    +0.000 C 
ATOM     24  C   UNL     1       6.380   4.717  18.465  0.00  0.00    +0.000 C 
ENDBRANCH  14  24
ENDBRANCH   1  20
TORSDOF 3
ENDMDL
MODEL 7
REMARK VINA RESULT:      -6.1      2.278      3.119
REMARK  Name = 
REMARK  4 active torsions:
REMARK  status: ('A' for Active; 'I' for Inactive)
REMARK    1  A    between atoms: C_1  and  C_2
REMARK    2  A    between atoms: C_2  and  N_3
REMARK    3  A    between atoms: N_9  and  C_10
REMARK    4  A    between atoms: C_10  and  C_11
REMARK                            x       y       z     vdW  Elec       q    Type
REMARK                         _______ _______ _______ _____ _____    ______ ____
ROOT
ATOM      1  C   UNL     1       2.957   7.441  19.329  0.00  0.00    +0.000 C 
ENDROOT
BRANCH   1   2
ATOM      2  C   UNL     1       1.987   8.452  18.680  0.00  0.00    +0.000 C 
ATOM      3  O   UNL     1       2.126   8.736  17.486  0.00  0.00    +0.000 OA
ATOM      4  N   UNL     1       0.947   8.996  19.429  0.00  0.00    +0.000 N 
ATOM      5  C   UNL     1       0.083  10.021  18.834  0.00  0.00    +0.000 C 
ATOM      6  C   UNL     1       0.365  11.386  19.465  0.00  0.00    +0.000 C 
ATOM      7  C   UNL     1       0.282  11.312  20.994  0.00  0.00    +0.000 C 
ATOM      8  C   UNL     1       1.156  10.179  21.537  0.00  0.00    +0.000 C 
ATOM      9  C   UNL     1       0.773   8.865  20.874  0.00  0.00    +0.000 C 
ATOM     10  O   UNL     1      -1.088  11.090  21.382  0.00  0.00    +0.000 OA
ATOM     11  C   UNL     1      -1.298  11.964  22.488  0.00  0.00    +0.000 C 
ATOM     12  C   UNL     1      -0.413  13.137  22.170  0.00  0.00    +0.000 C 
ATOM     13  O   UNL     1       0.741  12.546  21.572  0.00  0.00    +0.000 OA
ENDBRANCH   1   2
BRANCH   1  20
ATOM     14  N   UNL     1       3.698   4.585  17.088  0.00  0.00    +0.000 N 
ATOM     15  C   UNL     1       2.791   3.616  17.453  0.00  0.00    +0.000 A 
ATOM     16  O   UNL     1       2.660   2.529  16.897  0.00  0.00    +0.000 OA
ATOM     17  C   UNL     1       1.933   3.928  18.598  0.00  0.00    +0.000 A 
ATOM     18  C   UNL     1       2.040   5.117  19.188  0.00  0.00    +0.000 A 
ATOM     19 CL   UNL     1       1.040   5.440  20.554  0.00  0.00    +0.000 Cl
ATOM     20  N   UNL     1       2.885   6.101  18.719  0.00  0.00    +0.000 N 
ATOM     21  C   UNL     1       3.709   5.874  17.615  0.00  0.00    +0.000 A 
ATOM     22  O   UNL     1       4.403   6.764  17.118  0.00  0.00    +0.000 OA
BRANCH  14  24
ATOM     23  C   UNL     1       6.051   3.996  16.527  0.00  0.00    +0.000 C 
ATOM     24  C   UNL     1       4.641   4.269  16.019  0.00  0.00    +0.000 C 
ENDBRANCH  14  24
ENDBRANCH   1  20
TORSDOF 3
ENDMDL
MODEL 8
REMARK VINA RESULT:      -6.1      2.770      7.876
REMARK  Name = 
REMARK  4 active torsions:
REMARK  status: ('A' for Active; 'I' for Inactive)
REMARK    1  A    between atoms: C_1  and  C_2
REMARK    2  A    between atoms: C_2  and  N_3
REMARK    3  A    between atoms: N_9  and  C_10
REMARK    4  A    between atoms: C_10  and  C_11
REMARK                            x       y       z     vdW  Elec       q    Type
REMARK                         _______ _______ _______ _____ _____    ______ ____
ROOT
ATOM      1  C   UNL     1       1.481  10.013  19.011  0.00  0.00    +0.000 C 
ENDROOT
BRANCH   1   2
ATOM      2  C   UNL     1       1.608   8.642  19.708  0.00  0.00    +0.000 C 
ATOM      3  O   UNL     1       1.368   8.558  20.917  0.00  0.00    +0.000 OA
ATOM      4  N   UNL     1       1.947   7.514  18.967  0.00  0.00    +0.000 N 
ATOM      5  C   UNL     1       2.153   6.231  19.649  0.00  0.00    +0.000 C 
ATOM      6  C   UNL     1       3.637   5.860  19.649  0.00  0.00    +0.000 C 
ATOM      7  C   UNL     1       4.216   5.911  18.231  0.00  0.00    +0.000 C 
ATOM      8  C   UNL     1       3.906   7.251  17.559  0.00  0.00    +0.000 C 
ATOM      9  C   UNL     1       2.407   7.507  17.580  0.00  0.00    +0.000 C 
ATOM     10  O   UNL     1       3.650   4.840  17.452  0.00  0.00    +0.000 OA
ATOM     11  C   UNL     1       4.749   4.301  16.722  0.00  0.00    +0.000 C 
ATOM     12  C   UNL     1       5.909   4.496  17.659  0.00  0.00    +0.000 C 
ATOM     13  O   UNL     1       5.645   5.755  18.278  0.00  0.00    +0.000 OA
ENDBRANCH   1   2
BRANCH   1  20
ATOM     14  N   UNL     1      -2.102  10.622  18.292  0.00  0.00    +0.000 N 
ATOM     15  C   UNL     1      -2.457  11.638  19.150  0.00  0.00    +0.000 A 
ATOM     16  O   UNL     1      -3.557  12.184  19.177  0.00  0.00    +0.000 OA
ATOM     17  C   UNL     1      -1.430  12.079  20.096  0.00  0.00    +0.000 A 
ATOM     18  C   UNL     1      -0.222  11.520  20.053  0.00  0.00    +0.000 A 
ATOM     19 CL   UNL     1       0.954  12.037  21.202  0.00  0.00    +0.000 Cl
ATOM     20  N   UNL     1       0.126  10.583  19.103  0.00  0.00    +0.000 N 
ATOM     21  C   UNL     1      -0.802  10.141  18.157  0.00  0.00    +0.000 A 
ATOM     22  O   UNL     1      -0.492   9.378  17.240  0.00  0.00    +0.000 OA
BRANCH  14  24
ATOM     23  C   UNL     1      -3.215  10.821  16.075  0.00  0.00    +0.000 C 
ATOM     24  C   UNL     1      -3.131  10.085  17.407  0.00  0.00    +0.000 C 
ENDBRANCH  14  24
ENDBRANCH   1  20
TORSDOF 3
ENDMDL
MODEL 9
REMARK VINA RESULT:      -6.1      1.939      2.513
REMARK  Name = 
REMARK  4 active torsions:
REMARK  status: ('A' for Active; 'I' for Inactive)
REMARK    1  A    between atoms: C_1  and  C_2
REMARK    2  A    between atoms: C_2  and  N_3
REMARK    3  A    between atoms: N_9  and  C_10
REMARK    4  A    between atoms: C_10  and  C_11
REMARK                            x       y       z     vdW  Elec       q    Type
REMARK                         _______ _______ _______ _____ _____    ______ ____
ROOT
ATOM      1  C   UNL     1       3.043   6.821  19.137  0.00  0.00    +0.000 C 
ENDROOT
BRANCH   1   2
ATOM      2  C   UNL     1       2.342   7.975  18.387  0.00  0.00    +0.000 C 
ATOM      3  O   UNL     1       2.708   8.256  17.241  0.00  0.00    +0.000 OA
ATOM      4  N   UNL     1       1.285   8.653  18.988  0.00  0.00    +0.000 N 
ATOM      5  C   UNL     1       0.682   9.805  18.308  0.00  0.00    +0.000 C 
ATOM      6  C   UNL     1       1.052  11.102  19.029  0.00  0.00    +0.000 C 
ATOM      7  C   UNL     1       0.719  11.016  20.522  0.00  0.00    +0.000 C 
ATOM      8  C   UNL     1       1.325   9.758  21.148  0.00  0.00    +0.000 C 
ATOM      9  C   UNL     1       0.868   8.526  20.383  0.00  0.00    +0.000 C 
ATOM     10  O   UNL     1      -0.712  10.992  20.685  0.00  0.00    +0.000 OA
ATOM     11  C   UNL     1      -0.968  11.869  21.780  0.00  0.00    +0.000 C 
ATOM     12  C   UNL     1       0.114  12.904  21.648  0.00  0.00    +0.000 C 
ATOM     13  O   UNL     1       1.252  12.160  21.212  0.00  0.00    +0.000 OA
ENDBRANCH   1   2
BRANCH   1  20
ATOM     14  N   UNL     1       5.608   5.124  17.073  0.00  0.00    +0.000 N 
ATOM     15  C   UNL     1       4.936   4.080  16.478  0.00  0.00    +0.000 A 
ATOM     16  O   UNL     1       5.421   3.309  15.654  0.00  0.00    +0.000 OA
ATOM     17  C   UNL     1       3.541   3.892  16.881  0.00  0.00    +0.000 A 
ATOM     18  C   UNL     1       2.992   4.742  17.746  0.00  0.00    +0.000 A 
ATOM     19 CL   UNL     1       1.359   4.474  18.227  0.00  0.00    +0.000 Cl
ATOM     20  N   UNL     1       3.669   5.842  18.232  0.00  0.00    +0.000 N 
ATOM     21  C   UNL     1       4.993   6.090  17.865  0.00  0.00    +0.000 A 
ATOM     22  O   UNL     1       5.590   7.113  18.208  0.00  0.00    +0.000 OA
BRANCH  14  24
ATOM     23  C   UNL     1       7.929   4.559  17.773  0.00  0.00    +0.000 C 
ATOM     24  C   UNL     1       7.029   5.278  16.775  0.00  0.00    +0.000 C 
ENDBRANCH  14  24
ENDBRANCH   1  20
TORSDOF 3
ENDMDL
