MODEL 1
REMARK VINA RESULT:      -8.3      0.000      0.000
REMARK  Name = 
REMARK  6 active torsions:
REMARK  status: ('A' for Active; 'I' for Inactive)
REMARK    1  A    between atoms: C_1  and  O_2
REMARK    2  A    between atoms: O_2  and  C_3
REMARK    3  A    between atoms: C_8  and  C_9
REMARK    4  A    between atoms: C_9  and  C_10
REMARK    5  A    between atoms: C_10  and  N_11
REMARK    6  A    between atoms: C_12  and  C_14
REMARK                            x       y       z     vdW  Elec       q    Type
REMARK                         _______ _______ _______ _____ _____    ______ ____
ROOT
ATOM      1  C   UNL     1       6.936   5.772  15.996  0.00  0.00    +0.000 A 
ATOM      2  C   UNL     1       7.545   5.586  14.764  0.00  0.00    +0.000 A 
ATOM      3  C   UNL     1       6.785   4.645  14.036  0.00  0.00    +0.000 A 
ATOM      4  C   UNL     1       5.714   4.297  14.823  0.00  0.00    +0.000 A 
ATOM      5  N   UNL     1       5.739   5.039  15.998  0.00  0.00    +0.000 N 
ATOM      6  C   UNL     1       4.742   5.054  16.987  0.00  0.00    +0.000 A 
ATOM      7  N   UNL     1       4.481   6.085  17.755  0.00  0.00    +0.000 NA
ATOM      8  N   UNL     1       3.499   5.779  18.678  0.00  0.00    +0.000 NA
ATOM      9  C   UNL     1       3.124   4.513  18.644  0.00  0.00    +0.000 A 
ATOM     10  N   UNL     1       2.276   3.905  19.533  0.00  0.00    +0.000 N 
ATOM     11  C   UNL     1       1.700   4.729  20.607  0.00  0.00    +0.000 C 
ATOM     12  C   UNL     1       2.149   4.047  21.892  0.00  0.00    +0.000 C 
ATOM     13  C   UNL     1       2.135   2.580  21.509  0.00  0.00    +0.000 C 
ATOM     14  C   UNL     1       2.660   2.592  20.075  0.00  0.00    +0.000 C 
ATOM     15  S   UNL     1       3.805   3.667  17.285  0.00  0.00    +0.000 S 
ENDROOT
BRANCH   1  17
ATOM     16  N   UNL     1       7.815   7.770  17.044  0.00  0.00    +0.000 N 
ATOM     17  C   UNL     1       7.455   6.437  17.174  0.00  0.00    +0.000 C 
ATOM     18  O   UNL     1       7.633   5.847  18.237  0.00  0.00    +0.000 OA
ATOM     19  H   UNL     1       7.699   8.262  16.170  0.00  0.00    +0.000 HD
BRANCH  16  20
ATOM     20  C   UNL     1       8.245   8.454  18.251  0.00  0.00    +0.000 C 
BRANCH  20  21
ATOM     21  C   UNL     1       8.076   9.970  18.272  0.00  0.00    +0.000 C 
BRANCH  21  27
ATOM     22  C   UNL     1       9.734  10.933  19.971  0.00  0.00    +0.000 A 
ATOM     23  C   UNL     1      10.964  11.536  20.257  0.00  0.00    +0.000 A 
ATOM     24  C   UNL     1      11.816  11.926  19.225  0.00  0.00    +0.000 A 
ATOM     25  C   UNL     1      11.461  11.681  17.902  0.00  0.00    +0.000 A 
ATOM     26  C   UNL     1      10.274  11.009  17.612  0.00  0.00    +0.000 A 
ATOM     27  C   UNL     1       9.403  10.611  18.642  0.00  0.00    +0.000 A 
BRANCH  22  29
ATOM     28  C   UNL     1       8.554  11.676  21.883  0.00  0.00    +0.000 C 
ATOM     29  O   UNL     1       8.806  10.637  20.936  0.00  0.00    +0.000 OA
ENDBRANCH  22  29
ENDBRANCH  21  27
ENDBRANCH  20  21
ENDBRANCH  16  20
ENDBRANCH   1  17
TORSDOF 5
ENDMDL
MODEL 2
REMARK VINA RESULT:      -7.9      1.314      1.564
REMARK  Name = 
REMARK  6 active torsions:
REMARK  status: ('A' for Active; 'I' for Inactive)
REMARK    1  A    between atoms: C_1  and  O_2
REMARK    2  A    between atoms: O_2  and  C_3
REMARK    3  A    between atoms: C_8  and  C_9
REMARK    4  A    between atoms: C_9  and  C_10
REMARK    5  A    between atoms: C_10  and  N_11
REMARK    6  A    between atoms: C_12  and  C_14
REMARK                            x       y       z     vdW  Elec       q    Type
REMARK                         _______ _______ _______ _____ _____    ______ ____
ROOT
ATOM      1  C   UNL     1       6.840   5.570  15.863  0.00  0.00    +0.000 A 
ATOM      2  C   UNL     1       7.464   5.322  14.650  0.00  0.00    +0.000 A 
ATOM      3  C   UNL     1       6.736   4.314  13.979  0.00  0.00    +0.000 A 
ATOM      4  C   UNL     1       5.669   3.988  14.782  0.00  0.00    +0.000 A 
ATOM      5  N   UNL     1       5.665   4.804  15.906  0.00  0.00    +0.000 N 
ATOM      6  C   UNL     1       4.660   4.855  16.885  0.00  0.00    +0.000 A 
ATOM      7  N   UNL     1       4.364   5.925  17.584  0.00  0.00    +0.000 NA
ATOM      8  N   UNL     1       3.384   5.652  18.519  0.00  0.00    +0.000 NA
ATOM      9  C   UNL     1       3.045   4.377  18.566  0.00  0.00    +0.000 A 
ATOM     10  N   UNL     1       2.208   3.803  19.487  0.00  0.00    +0.000 N 
ATOM     11  C   UNL     1       1.601   4.678  20.502  0.00  0.00    +0.000 C 
ATOM     12  C   UNL     1       2.059   4.094  21.831  0.00  0.00    +0.000 C 
ATOM     13  C   UNL     1       2.089   2.606  21.544  0.00  0.00    +0.000 C 
ATOM     14  C   UNL     1       2.625   2.540  20.115  0.00  0.00    +0.000 C 
ATOM     15  S   UNL     1       3.760   3.464  17.268  0.00  0.00    +0.000 S 
ENDROOT
BRANCH   1  17
ATOM     16  N   UNL     1       7.687   7.646  16.777  0.00  0.00    +0.000 N 
ATOM     17  C   UNL     1       7.332   6.324  16.998  0.00  0.00    +0.000 C 
ATOM     18  O   UNL     1       7.491   5.816  18.106  0.00  0.00    +0.000 OA
ATOM     19  H   UNL     1       7.586   8.071  15.866  0.00  0.00    +0.000 HD
BRANCH  16  20
ATOM     20  C   UNL     1       8.087   8.422  17.937  0.00  0.00    +0.000 C 
BRANCH  20  21
ATOM     21  C   UNL     1       7.569   9.854  18.012  0.00  0.00    +0.000 C 
BRANCH  21  27
ATOM     22  C   UNL     1       8.768  12.110  17.810  0.00  0.00    +0.000 A 
ATOM     23  C   UNL     1       9.872  12.925  18.084  0.00  0.00    +0.000 A 
ATOM     24  C   UNL     1      10.991  12.403  18.731  0.00  0.00    +0.000 A 
ATOM     25  C   UNL     1      10.998  11.075  19.143  0.00  0.00    +0.000 A 
ATOM     26  C   UNL     1       9.870  10.278  18.946  0.00  0.00    +0.000 A 
ATOM     27  C   UNL     1       8.735  10.788  18.293  0.00  0.00    +0.000 A 
BRANCH  22  29
ATOM     28  C   UNL     1       7.150  13.799  17.456  0.00  0.00    +0.000 C 
ATOM     29  O   UNL     1       7.691  12.534  17.074  0.00  0.00    +0.000 OA
ENDBRANCH  22  29
ENDBRANCH  21  27
ENDBRANCH  20  21
ENDBRANCH  16  20
ENDBRANCH   1  17
TORSDOF 5
ENDMDL
MODEL 3
REMARK VINA RESULT:      -7.7      4.703      7.156
REMARK  Name = 
REMARK  6 active torsions:
REMARK  status: ('A' for Active; 'I' for Inactive)
REMARK    1  A    between atoms: C_1  and  O_2
REMARK    2  A    between atoms: O_2  and  C_3
REMARK    3  A    between atoms: C_8  and  C_9
REMARK    4  A    between atoms: C_9  and  C_10
REMARK    5  A    between atoms: C_10  and  N_11
REMARK    6  A    between atoms: C_12  and  C_14
REMARK                            x       y       z     vdW  Elec       q    Type
REMARK                         _______ _______ _______ _____ _____    ______ ____
ROOT
ATOM      1  C   UNL     1       2.028   5.261  19.882  0.00  0.00    +0.000 A 
ATOM      2  C   UNL     1       1.037   4.711  20.680  0.00  0.00    +0.000 A 
ATOM      3  C   UNL     1       1.052   3.310  20.497  0.00  0.00    +0.000 A 
ATOM      4  C   UNL     1       2.068   3.031  19.615  0.00  0.00    +0.000 A 
ATOM      5  N   UNL     1       2.736   4.205  19.287  0.00  0.00    +0.000 N 
ATOM      6  C   UNL     1       3.906   4.301  18.518  0.00  0.00    +0.000 A 
ATOM      7  N   UNL     1       4.808   5.242  18.661  0.00  0.00    +0.000 NA
ATOM      8  N   UNL     1       5.809   5.118  17.717  0.00  0.00    +0.000 NA
ATOM      9  C   UNL     1       5.585   4.159  16.838  0.00  0.00    +0.000 A 
ATOM     10  N   UNL     1       6.334   3.906  15.719  0.00  0.00    +0.000 N 
ATOM     11  C   UNL     1       7.515   4.750  15.477  0.00  0.00    +0.000 C 
ATOM     12  C   UNL     1       7.261   5.379  14.114  0.00  0.00    +0.000 C 
ATOM     13  C   UNL     1       6.532   4.275  13.372  0.00  0.00    +0.000 C 
ATOM     14  C   UNL     1       5.631   3.673  14.448  0.00  0.00    +0.000 C 
ATOM     15  S   UNL     1       4.214   3.180  17.276  0.00  0.00    +0.000 S 
ENDROOT
BRANCH   1  17
ATOM     16  N   UNL     1       2.372   6.955  18.187  0.00  0.00    +0.000 N 
ATOM     17  C   UNL     1       2.245   6.650  19.534  0.00  0.00    +0.000 C 
ATOM     18  O   UNL     1       2.376   7.528  20.384  0.00  0.00    +0.000 OA
ATOM     19  H   UNL     1       2.293   6.241  17.477  0.00  0.00    +0.000 HD
BRANCH  16  20
ATOM     20  C   UNL     1       2.494   8.361  17.841  0.00  0.00    +0.000 C 
BRANCH  20  21
ATOM     21  C   UNL     1       1.199   9.165  17.789  0.00  0.00    +0.000 C 
BRANCH  21  27
ATOM     22  C   UNL     1       0.660  10.697  19.770  0.00  0.00    +0.000 A 
ATOM     23  C   UNL     1       0.852  11.899  20.461  0.00  0.00    +0.000 A 
ATOM     24  C   UNL     1       1.663  12.899  19.925  0.00  0.00    +0.000 A 
ATOM     25  C   UNL     1       2.317  12.689  18.716  0.00  0.00    +0.000 A 
ATOM     26  C   UNL     1       2.195  11.463  18.061  0.00  0.00    +0.000 A 
ATOM     27  C   UNL     1       1.380  10.446  18.587  0.00  0.00    +0.000 A 
BRANCH  22  29
ATOM     28  C   UNL     1      -0.197   9.449  21.588  0.00  0.00    +0.000 C 
ATOM     29  O   UNL     1      -0.216   9.729  20.188  0.00  0.00    +0.000 OA
ENDBRANCH  22  29
ENDBRANCH  21  27
ENDBRANCH  20  21
ENDBRANCH  16  20
ENDBRANCH   1  17
TORSDOF 5
ENDMDL
MODEL 4
REMARK VINA RESULT:      -7.6      4.739      7.922
REMARK  Name = 
REMARK  6 active torsions:
REMARK  status: ('A' for Active; 'I' for Inactive)
REMARK    1  A    between atoms: C_1  and  O_2
REMARK    2  A    between atoms: O_2  and  C_3
REMARK    3  A    between atoms: C_8  and  C_9
REMARK    4  A    between atoms: C_9  and  C_10
REMARK    5  A    between atoms: C_10  and  N_11
REMARK    6  A    between atoms: C_12  and  C_14
REMARK                            x       y       z     vdW  Elec       q    Type
REMARK                         _______ _______ _______ _____ _____    ______ ____
ROOT
ATOM      1  C   UNL     1       1.952   5.089  19.982  0.00  0.00    +0.000 A 
ATOM      2  C   UNL     1       0.945   4.505  20.735  0.00  0.00    +0.000 A 
ATOM      3  C   UNL     1       0.955   3.115  20.480  0.00  0.00    +0.000 A 
ATOM      4  C   UNL     1       1.984   2.876  19.601  0.00  0.00    +0.000 A 
ATOM      5  N   UNL     1       2.663   4.060  19.345  0.00  0.00    +0.000 N 
ATOM      6  C   UNL     1       3.846   4.189  18.600  0.00  0.00    +0.000 A 
ATOM      7  N   UNL     1       4.751   5.116  18.807  0.00  0.00    +0.000 NA
ATOM      8  N   UNL     1       5.767   5.034  17.873  0.00  0.00    +0.000 NA
ATOM      9  C   UNL     1       5.552   4.123  16.942  0.00  0.00    +0.000 A 
ATOM     10  N   UNL     1       6.318   3.925  15.823  0.00  0.00    +0.000 N 
ATOM     11  C   UNL     1       7.507   4.772  15.645  0.00  0.00    +0.000 C 
ATOM     12  C   UNL     1       7.278   5.473  14.313  0.00  0.00    +0.000 C 
ATOM     13  C   UNL     1       6.556   4.414  13.503  0.00  0.00    +0.000 C 
ATOM     14  C   UNL     1       5.633   3.762  14.531  0.00  0.00    +0.000 C 
ATOM     15  S   UNL     1       4.168   3.133  17.307  0.00  0.00    +0.000 S 
ENDROOT
BRANCH   1  17
ATOM     16  N   UNL     1       2.310   6.871  18.383  0.00  0.00    +0.000 N 
ATOM     17  C   UNL     1       2.183   6.493  19.711  0.00  0.00    +0.000 C 
ATOM     18  O   UNL     1       2.324   7.321  20.608  0.00  0.00    +0.000 OA
ATOM     19  H   UNL     1       2.222   6.197  17.635  0.00  0.00    +0.000 HD
BRANCH  16  20
ATOM     20  C   UNL     1       2.445   8.291  18.114  0.00  0.00    +0.000 C 
BRANCH  20  21
ATOM     21  C   UNL     1       1.268   8.970  17.421  0.00  0.00    +0.000 C 
BRANCH  21  27
ATOM     22  C   UNL     1      -0.802  10.224  18.263  0.00  0.00    +0.000 A 
ATOM     23  C   UNL     1      -1.416  11.053  19.208  0.00  0.00    +0.000 A 
ATOM     24  C   UNL     1      -0.671  11.613  20.246  0.00  0.00    +0.000 A 
ATOM     25  C   UNL     1       0.682  11.315  20.368  0.00  0.00    +0.000 A 
ATOM     26  C   UNL     1       1.283  10.426  19.477  0.00  0.00    +0.000 A 
ATOM     27  C   UNL     1       0.547   9.855  18.425  0.00  0.00    +0.000 A 
BRANCH  22  29
ATOM     28  C   UNL     1      -2.871   9.924  17.155  0.00  0.00    +0.000 C 
ATOM     29  O   UNL     1      -1.454   9.742  17.158  0.00  0.00    +0.000 OA
ENDBRANCH  22  29
ENDBRANCH  21  27
ENDBRANCH  20  21
ENDBRANCH  16  20
ENDBRANCH   1  17
TORSDOF 5
ENDMDL
MODEL 5
REMARK VINA RESULT:      -7.5      4.656      7.325
REMARK  Name = 
REMARK  6 active torsions:
REMARK  status: ('A' for Active; 'I' for Inactive)
REMARK    1  A    between atoms: C_1  and  O_2
REMARK    2  A    between atoms: O_2  and  C_3
REMARK    3  A    between atoms: C_8  and  C_9
REMARK    4  A    between atoms: C_9  and  C_10
REMARK    5  A    between atoms: C_10  and  N_11
REMARK    6  A    between atoms: C_12  and  C_14
REMARK                            x       y       z     vdW  Elec       q    Type
REMARK                         _______ _______ _______ _____ _____    ______ ____
ROOT
ATOM      1  C   UNL     1       2.004   5.130  19.892  0.00  0.00    +0.000 A 
ATOM      2  C   UNL     1       0.983   4.570  20.645  0.00  0.00    +0.000 A 
ATOM      3  C   UNL     1       0.944   3.185  20.370  0.00  0.00    +0.000 A 
ATOM      4  C   UNL     1       1.958   2.923  19.480  0.00  0.00    +0.000 A 
ATOM      5  N   UNL     1       2.675   4.088  19.236  0.00  0.00    +0.000 N 
ATOM      6  C   UNL     1       3.857   4.186  18.483  0.00  0.00    +0.000 A 
ATOM      7  N   UNL     1       4.794   5.079  18.696  0.00  0.00    +0.000 NA
ATOM      8  N   UNL     1       5.800   4.976  17.753  0.00  0.00    +0.000 NA
ATOM      9  C   UNL     1       5.547   4.086  16.812  0.00  0.00    +0.000 A 
ATOM     10  N   UNL     1       6.298   3.877  15.685  0.00  0.00    +0.000 N 
ATOM     11  C   UNL     1       7.513   4.686  15.509  0.00  0.00    +0.000 C 
ATOM     12  C   UNL     1       7.300   5.413  14.188  0.00  0.00    +0.000 C 
ATOM     13  C   UNL     1       6.536   4.390  13.369  0.00  0.00    +0.000 C 
ATOM     14  C   UNL     1       5.599   3.755  14.395  0.00  0.00    +0.000 C 
ATOM     15  S   UNL     1       4.134   3.138  17.174  0.00  0.00    +0.000 S 
ENDROOT
BRANCH   1  17
ATOM     16  N   UNL     1       2.273   6.948  18.316  0.00  0.00    +0.000 N 
ATOM     17  C   UNL     1       2.280   6.529  19.638  0.00  0.00    +0.000 C 
ATOM     18  O   UNL     1       2.571   7.316  20.537  0.00  0.00    +0.000 OA
ATOM     19  H   UNL     1       2.062   6.308  17.564  0.00  0.00    +0.000 HD
BRANCH  16  20
ATOM     20  C   UNL     1       2.457   8.369  18.076  0.00  0.00    +0.000 C 
BRANCH  20  21
ATOM     21  C   UNL     1       1.203   9.172  17.743  0.00  0.00    +0.000 C 
BRANCH  21  27
ATOM     22  C   UNL     1       1.393  11.387  19.017  0.00  0.00    +0.000 A 
ATOM     23  C   UNL     1       1.071  12.180  20.124  0.00  0.00    +0.000 A 
ATOM     24  C   UNL     1       0.334  11.650  21.182  0.00  0.00    +0.000 A 
ATOM     25  C   UNL     1      -0.119  10.336  21.123  0.00  0.00    +0.000 A 
ATOM     26  C   UNL     1       0.130   9.564  19.988  0.00  0.00    +0.000 A 
ATOM     27  C   UNL     1       0.873  10.083  18.914  0.00  0.00    +0.000 A 
BRANCH  22  29
ATOM     28  C   UNL     1       2.839  13.081  18.219  0.00  0.00    +0.000 C 
ATOM     29  O   UNL     1       2.213  11.815  18.005  0.00  0.00    +0.000 OA
ENDBRANCH  22  29
ENDBRANCH  21  27
ENDBRANCH  20  21
ENDBRANCH  16  20
ENDBRANCH   1  17
TORSDOF 5
ENDMDL
MODEL 6
REMARK VINA RESULT:      -7.5      3.966      7.708
REMARK  Name = 
REMARK  6 active torsions:
REMARK  status: ('A' for Active; 'I' for Inactive)
REMARK    1  A    between atoms: C_1  and  O_2
REMARK    2  A    between atoms: O_2  and  C_3
REMARK    3  A    between atoms: C_8  and  C_9
REMARK    4  A    between atoms: C_9  and  C_10
REMARK    5  A    between atoms: C_10  and  N_11
REMARK    6  A    between atoms: C_12  and  C_14
REMARK                            x       y       z     vdW  Elec       q    Type
REMARK                         _______ _______ _______ _____ _____    ______ ____
ROOT
ATOM      1  C   UNL     1       2.285   3.394  19.488  0.00  0.00    +0.000 A 
ATOM      2  C   UNL     1       1.400   2.400  19.099  0.00  0.00    +0.000 A 
ATOM      3  C   UNL     1       1.931   1.763  17.955  0.00  0.00    +0.000 A 
ATOM      4  C   UNL     1       3.139   2.360  17.686  0.00  0.00    +0.000 A 
ATOM      5  N   UNL     1       3.417   3.308  18.663  0.00  0.00    +0.000 N 
ATOM      6  C   UNL     1       4.616   4.027  18.797  0.00  0.00    +0.000 A 
ATOM      7  N   UNL     1       5.091   4.461  19.940  0.00  0.00    +0.000 NA
ATOM      8  N   UNL     1       6.246   5.197  19.749  0.00  0.00    +0.000 NA
ATOM      9  C   UNL     1       6.549   5.377  18.477  0.00  0.00    +0.000 A 
ATOM     10  N   UNL     1       7.552   6.178  17.998  0.00  0.00    +0.000 N 
ATOM     11  C   UNL     1       8.396   6.882  18.976  0.00  0.00    +0.000 C 
ATOM     12  C   UNL     1       8.227   8.356  18.633  0.00  0.00    +0.000 C 
ATOM     13  C   UNL     1       8.089   8.329  17.123  0.00  0.00    +0.000 C 
ATOM     14  C   UNL     1       7.247   7.079  16.875  0.00  0.00    +0.000 C 
ATOM     15  S   UNL     1       5.536   4.430  17.425  0.00  0.00    +0.000 S 
ENDROOT
BRANCH   1  17
ATOM     16  N   UNL     1       1.907   5.745  19.924  0.00  0.00    +0.000 N 
ATOM     17  C   UNL     1       2.081   4.469  20.437  0.00  0.00    +0.000 C 
ATOM     18  O   UNL     1       2.117   4.288  21.652  0.00  0.00    +0.000 OA
ATOM     19  H   UNL     1       1.900   5.914  18.928  0.00  0.00    +0.000 HD
BRANCH  16  20
ATOM     20  C   UNL     1       1.608   6.801  20.875  0.00  0.00    +0.000 C 
BRANCH  20  21
ATOM     21  C   UNL     1       1.764   8.234  20.377  0.00  0.00    +0.000 C 
BRANCH  21  27
ATOM     22  C   UNL     1       0.186  10.247  20.518  0.00  0.00    +0.000 A 
ATOM     23  C   UNL     1      -0.696  11.046  21.254  0.00  0.00    +0.000 A 
ATOM     24  C   UNL     1      -0.894  10.812  22.614  0.00  0.00    +0.000 A 
ATOM     25  C   UNL     1      -0.242   9.753  23.238  0.00  0.00    +0.000 A 
ATOM     26  C   UNL     1       0.576   8.903  22.494  0.00  0.00    +0.000 A 
ATOM     27  C   UNL     1       0.787   9.127  21.123  0.00  0.00    +0.000 A 
BRANCH  22  29
ATOM     28  C   UNL     1       1.340  11.645  18.998  0.00  0.00    +0.000 C 
ATOM     29  O   UNL     1       0.510  10.502  19.211  0.00  0.00    +0.000 OA
ENDBRANCH  22  29
ENDBRANCH  21  27
ENDBRANCH  20  21
ENDBRANCH  16  20
ENDBRANCH   1  17
TORSDOF 5
ENDMDL
MODEL 7
REMARK VINA RESULT:      -7.4      6.020     10.380
REMARK  Name = 
REMARK  6 active torsions:
REMARK  status: ('A' for Active; 'I' for Inactive)
REMARK    1  A    between atoms: C_1  and  O_2
REMARK    2  A    between atoms: O_2  and  C_3
REMARK    3  A    between atoms: C_8  and  C_9
REMARK    4  A    between atoms: C_9  and  C_10
REMARK    5  A    between atoms: C_10  and  N_11
REMARK    6  A    between atoms: C_12  and  C_14
REMARK                            x       y       z     vdW  Elec       q    Type
REMARK                         _______ _______ _______ _____ _____    ______ ____
ROOT
ATOM      1  C   UNL     1      -0.139  10.609  22.203  0.00  0.00    +0.000 A 
ATOM      2  C   UNL     1      -1.192  10.430  23.087  0.00  0.00    +0.000 A 
ATOM      3  C   UNL     1      -1.765  11.694  23.349  0.00  0.00    +0.000 A 
ATOM      4  C   UNL     1      -1.071  12.613  22.600  0.00  0.00    +0.000 A 
ATOM      5  N   UNL     1      -0.121  11.960  21.824  0.00  0.00    +0.000 N 
ATOM      6  C   UNL     1       0.688  12.549  20.840  0.00  0.00    +0.000 A 
ATOM      7  N   UNL     1       1.138  11.920  19.780  0.00  0.00    +0.000 NA
ATOM      8  N   UNL     1       1.965  12.736  19.032  0.00  0.00    +0.000 NA
ATOM      9  C   UNL     1       2.191  13.909  19.594  0.00  0.00    +0.000 A 
ATOM     10  N   UNL     1       3.077  14.854  19.146  0.00  0.00    +0.000 N 
ATOM     11  C   UNL     1       3.827  14.564  17.915  0.00  0.00    +0.000 C 
ATOM     12  C   UNL     1       5.289  14.636  18.334  0.00  0.00    +0.000 C 
ATOM     13  C   UNL     1       5.279  15.737  19.377  0.00  0.00    +0.000 C 
ATOM     14  C   UNL     1       3.971  15.490  20.127  0.00  0.00    +0.000 C 
ATOM     15  S   UNL     1       1.186  14.168  20.990  0.00  0.00    +0.000 S 
ENDROOT
BRANCH   1  17
ATOM     16  N   UNL     1       0.697   8.925  20.677  0.00  0.00    +0.000 N 
ATOM     17  C   UNL     1       0.900   9.671  21.828  0.00  0.00    +0.000 C 
ATOM     18  O   UNL     1       1.898   9.485  22.520  0.00  0.00    +0.000 OA
ATOM     19  H   UNL     1      -0.131   9.048  20.111  0.00  0.00    +0.000 HD
BRANCH  16  20
ATOM     20  C   UNL     1       1.784   8.058  20.257  0.00  0.00    +0.000 C 
BRANCH  20  21
ATOM     21  C   UNL     1       1.708   6.602  20.706  0.00  0.00    +0.000 C 
BRANCH  21  27
ATOM     22  C   UNL     1       2.783   4.397  19.969  0.00  0.00    +0.000 A 
ATOM     23  C   UNL     1       3.469   3.643  19.010  0.00  0.00    +0.000 A 
ATOM     24  C   UNL     1       3.918   4.240  17.832  0.00  0.00    +0.000 A 
ATOM     25  C   UNL     1       3.649   5.583  17.589  0.00  0.00    +0.000 A 
ATOM     26  C   UNL     1       2.896   6.320  18.503  0.00  0.00    +0.000 A 
ATOM     27  C   UNL     1       2.439   5.734  19.695  0.00  0.00    +0.000 A 
BRANCH  22  29
ATOM     28  C   UNL     1       1.328   2.979  21.182  0.00  0.00    +0.000 C 
ATOM     29  O   UNL     1       2.423   3.895  21.193  0.00  0.00    +0.000 OA
ENDBRANCH  22  29
ENDBRANCH  21  27
ENDBRANCH  20  21
ENDBRANCH  16  20
ENDBRANCH   1  17
TORSDOF 5
ENDMDL
MODEL 8
REMARK VINA RESULT:      -7.4      2.356      2.856
REMARK  Name = 
REMARK  6 active torsions:
REMARK  status: ('A' for Active; 'I' for Inactive)
REMARK    1  A    between atoms: C_1  and  O_2
REMARK    2  A    between atoms: O_2  and  C_3
REMARK    3  A    between atoms: C_8  and  C_9
REMARK    4  A    between atoms: C_9  and  C_10
REMARK    5  A    between atoms: C_10  and  N_11
REMARK    6  A    between atoms: C_12  and  C_14
REMARK                            x       y       z     vdW  Elec       q    Type
REMARK                         _______ _______ _______ _____ _____    ______ ____
ROOT
ATOM      1  C   UNL     1       6.593   5.512  16.895  0.00  0.00    +0.000 A 
ATOM      2  C   UNL     1       7.099   4.458  16.149  0.00  0.00    +0.000 A 
ATOM      3  C   UNL     1       6.024   3.611  15.799  0.00  0.00    +0.000 A 
ATOM      4  C   UNL     1       4.882   4.179  16.312  0.00  0.00    +0.000 A 
ATOM      5  N   UNL     1       5.196   5.390  16.918  0.00  0.00    +0.000 N 
ATOM      6  C   UNL     1       4.276   6.315  17.437  0.00  0.00    +0.000 A 
ATOM      7  N   UNL     1       4.479   7.610  17.484  0.00  0.00    +0.000 NA
ATOM      8  N   UNL     1       3.431   8.254  18.114  0.00  0.00    +0.000 NA
ATOM      9  C   UNL     1       2.526   7.427  18.605  0.00  0.00    +0.000 A 
ATOM     10  N   UNL     1       1.462   7.780  19.393  0.00  0.00    +0.000 N 
ATOM     11  C   UNL     1       1.280   9.205  19.704  0.00  0.00    +0.000 C 
ATOM     12  C   UNL     1       1.324   9.273  21.224  0.00  0.00    +0.000 C 
ATOM     13  C   UNL     1       0.664   7.970  21.631  0.00  0.00    +0.000 C 
ATOM     14  C   UNL     1       1.192   6.978  20.596  0.00  0.00    +0.000 C 
ATOM     15  S   UNL     1       2.803   5.784  18.101  0.00  0.00    +0.000 S 
ENDROOT
BRANCH   1  17
ATOM     16  N   UNL     1       7.595   7.709  17.076  0.00  0.00    +0.000 N 
ATOM     17  C   UNL     1       7.312   6.493  17.681  0.00  0.00    +0.000 C 
ATOM     18  O   UNL     1       7.715   6.257  18.818  0.00  0.00    +0.000 OA
ATOM     19  H   UNL     1       7.293   7.908  16.133  0.00  0.00    +0.000 HD
BRANCH  16  20
ATOM     20  C   UNL     1       8.230   8.721  17.902  0.00  0.00    +0.000 C 
BRANCH  20  21
ATOM     21  C   UNL     1       7.728  10.151  17.735  0.00  0.00    +0.000 C 
BRANCH  21  27
ATOM     22  C   UNL     1       8.789  12.481  17.840  0.00  0.00    +0.000 A 
ATOM     23  C   UNL     1       9.828  13.323  18.253  0.00  0.00    +0.000 A 
ATOM     24  C   UNL     1      10.951  12.797  18.890  0.00  0.00    +0.000 A 
ATOM     25  C   UNL     1      11.025  11.433  19.153  0.00  0.00    +0.000 A 
ATOM     26  C   UNL     1       9.959  10.599  18.816  0.00  0.00    +0.000 A 
ATOM     27  C   UNL     1       8.821  11.113  18.171  0.00  0.00    +0.000 A 
BRANCH  22  29
ATOM     28  C   UNL     1       7.063  14.084  17.617  0.00  0.00    +0.000 C 
ATOM     29  O   UNL     1       7.719  12.923  17.106  0.00  0.00    +0.000 OA
ENDBRANCH  22  29
ENDBRANCH  21  27
ENDBRANCH  20  21
ENDBRANCH  16  20
ENDBRANCH   1  17
TORSDOF 5
ENDMDL
MODEL 9
REMARK VINA RESULT:      -7.4      5.960      9.692
REMARK  Name = 
REMARK  6 active torsions:
REMARK  status: ('A' for Active; 'I' for Inactive)
REMARK    1  A    between atoms: C_1  and  O_2
REMARK    2  A    between atoms: O_2  and  C_3
REMARK    3  A    between atoms: C_8  and  C_9
REMARK    4  A    between atoms: C_9  and  C_10
REMARK    5  A    between atoms: C_10  and  N_11
REMARK    6  A    between atoms: C_12  and  C_14
REMARK                            x       y       z     vdW  Elec       q    Type
REMARK                         _______ _______ _______ _____ _____    ______ ____
ROOT
ATOM      1  C   UNL     1      -0.339  10.401  18.507  0.00  0.00    +0.000 A 
ATOM      2  C   UNL     1      -1.645  10.019  18.238  0.00  0.00    +0.000 A 
ATOM      3  C   UNL     1      -2.448  11.181  18.226  0.00  0.00    +0.000 A 
ATOM      4  C   UNL     1      -1.615  12.249  18.458  0.00  0.00    +0.000 A 
ATOM      5  N   UNL     1      -0.302  11.803  18.552  0.00  0.00    +0.000 N 
ATOM      6  C   UNL     1       0.839  12.614  18.656  0.00  0.00    +0.000 A 
ATOM      7  N   UNL     1       2.024  12.283  18.200  0.00  0.00    +0.000 NA
ATOM      8  N   UNL     1       2.963  13.248  18.512  0.00  0.00    +0.000 NA
ATOM      9  C   UNL     1       2.486  14.218  19.270  0.00  0.00    +0.000 A 
ATOM     10  N   UNL     1       3.222  15.223  19.841  0.00  0.00    +0.000 N 
ATOM     11  C   UNL     1       4.667  15.257  19.571  0.00  0.00    +0.000 C 
ATOM     12  C   UNL     1       5.314  15.171  20.946  0.00  0.00    +0.000 C 
ATOM     13  C   UNL     1       4.344  15.947  21.816  0.00  0.00    +0.000 C 
ATOM     14  C   UNL     1       2.980  15.544  21.257  0.00  0.00    +0.000 C 
ATOM     15  S   UNL     1       0.758  14.117  19.448  0.00  0.00    +0.000 S 
ENDROOT
BRANCH   1  17
ATOM     16  N   UNL     1       1.513   8.998  17.825  0.00  0.00    +0.000 N 
ATOM     17  C   UNL     1       0.793   9.571  18.863  0.00  0.00    +0.000 C 
ATOM     18  O   UNL     1       1.085   9.323  20.031  0.00  0.00    +0.000 OA
ATOM     19  H   UNL     1       1.269   9.171  16.860  0.00  0.00    +0.000 HD
BRANCH  16  20
ATOM     20  C   UNL     1       2.701   8.246  18.187  0.00  0.00    +0.000 C 
BRANCH  20  21
ATOM     21  C   UNL     1       2.518   6.750  18.418  0.00  0.00    +0.000 C 
BRANCH  21  27
ATOM     22  C   UNL     1       3.537   4.584  17.504  0.00  0.00    +0.000 A 
ATOM     23  C   UNL     1       4.485   3.932  16.707  0.00  0.00    +0.000 A 
ATOM     24  C   UNL     1       5.480   4.659  16.056  0.00  0.00    +0.000 A 
ATOM     25  C   UNL     1       5.511   6.046  16.166  0.00  0.00    +0.000 A 
ATOM     26  C   UNL     1       4.523   6.709  16.893  0.00  0.00    +0.000 A 
ATOM     27  C   UNL     1       3.514   5.990  17.557  0.00  0.00    +0.000 A 
BRANCH  22  29
ATOM     28  C   UNL     1       2.309   2.588  17.826  0.00  0.00    +0.000 C 
ATOM     29  O   UNL     1       2.611   3.914  18.261  0.00  0.00    +0.000 OA
ENDBRANCH  22  29
ENDBRANCH  21  27
ENDBRANCH  20  21
ENDBRANCH  16  20
ENDBRANCH   1  17
TORSDOF 5
ENDMDL
