MODEL 1
REMARK VINA RESULT:      -6.3      0.000      0.000
REMARK  Name = 
REMARK  9 active torsions:
REMARK  status: ('A' for Active; 'I' for Inactive)
REMARK    1  A    between atoms: C_1  and  O_2
REMARK    2  A    between atoms: O_2  and  C_3
REMARK    3  A    between atoms: N_8  and  C_9
REMARK    4  A    between atoms: N_17  and  C_18
REMARK    5  A    between atoms: N_21  and  C_22
REMARK    6  A    between atoms: C_22  and  C_23
REMARK    7  A    between atoms: C_22  and  C_24
REMARK    8  A    between atoms: C_29  and  O_30
REMARK    9  A    between atoms: O_30  and  C_31
REMARK                            x       y       z     vdW  Elec       q    Type
REMARK                         _______ _______ _______ _____ _____    ______ ____
ROOT
ATOM      1  C   UNL     1       1.785  15.969  19.543  0.00  0.00    +0.000 A 
ATOM      2  C   UNL     1       1.096  15.584  20.692  0.00  0.00    +0.000 A 
ATOM      3  C   UNL     1       0.924  14.254  21.036  0.00  0.00    +0.000 A 
ATOM      4  N   UNL     1       0.138  14.016  22.073  0.00  0.00    +0.000 NA
ATOM      5  C   UNL     1      -0.364  12.783  22.235  0.00  0.00    +0.000 A 
ATOM      6  N   UNL     1      -1.525  12.682  23.013  0.00  0.00    +0.000 N 
ATOM      7  N   UNL     1       0.082  11.719  21.540  0.00  0.00    +0.000 NA
ATOM      8  C   UNL     1       1.025  11.915  20.599  0.00  0.00    +0.000 A 
ATOM      9  N   UNL     1       1.517  10.846  19.850  0.00  0.00    +0.000 N 
ATOM     10  C   UNL     1       1.453  13.235  20.245  0.00  0.00    +0.000 A 
ATOM     11  C   UNL     1       2.283  13.643  19.157  0.00  0.00    +0.000 A 
ATOM     12  C   UNL     1       2.465  15.001  18.811  0.00  0.00    +0.000 A 
ATOM     13  H   UNL     1      -1.204  12.347  23.916  0.00  0.00    +0.000 HD
ATOM     14  H   UNL     1       2.529  10.855  19.806  0.00  0.00    +0.000 HD
ENDROOT
BRANCH   6  15
ATOM     15  C   UNL     1      -2.276  13.953  23.111  0.00  0.00    +0.000 C 
ATOM     16  C   UNL     1      -3.276  14.118  21.945  0.00  0.00    +0.000 C 
ATOM     17  C   UNL     1      -4.263  12.959  21.924  0.00  0.00    +0.000 C 
ATOM     18  C   UNL     1      -5.114  12.988  23.180  0.00  0.00    +0.000 C 
ATOM     19  C   UNL     1      -4.297  13.083  24.471  0.00  0.00    +0.000 C 
ATOM     20  C   UNL     1      -3.092  14.030  24.413  0.00  0.00    +0.000 C 
ENDBRANCH   6  15
BRANCH   9  21
ATOM     21  C   UNL     1       0.921   9.535  19.528  0.00  0.00    +0.000 C 
ATOM     22  C   UNL     1       1.225   8.356  20.433  0.00  0.00    +0.000 C 
ATOM     23  C   UNL     1       2.173   7.279  19.880  0.00  0.00    +0.000 C 
ATOM     24  N   UNL     1       2.650   7.309  18.489  0.00  0.00    +0.000 NA
ATOM     25  C   UNL     1       2.290   8.468  17.685  0.00  0.00    +0.000 C 
ATOM     26  C   UNL     1       0.975   9.131  18.066  0.00  0.00    +0.000 C 
BRANCH  24  27
ATOM     27  C   UNL     1       4.058   6.851  18.349  0.00  0.00    +0.000 C 
ATOM     28  C   UNL     1       4.421   5.525  19.055  0.00  0.00    +0.000 C 
ATOM     29  C   UNL     1       4.531   6.734  16.895  0.00  0.00    +0.000 C 
ENDBRANCH  24  27
ENDBRANCH   9  21
BRANCH   1  31
ATOM     30  C   UNL     1       0.700  17.642  18.340  0.00  0.00    +0.000 C 
ATOM     31  O   UNL     1       1.757  17.306  19.248  0.00  0.00    +0.000 OA
ENDBRANCH   1  31
BRANCH  12  32
ATOM     32  O   UNL     1       3.236  15.219  17.706  0.00  0.00    +0.000 OA
ATOM     33  C   UNL     1       4.652  15.257  17.877  0.00  0.00    +0.000 C 
ENDBRANCH  12  32
TORSDOF 5
ENDMDL
MODEL 2
REMARK VINA RESULT:      -6.2      3.141      7.305
REMARK  Name = 
REMARK  9 active torsions:
REMARK  status: ('A' for Active; 'I' for Inactive)
REMARK    1  A    between atoms: C_1  and  O_2
REMARK    2  A    between atoms: O_2  and  C_3
REMARK    3  A    between atoms: N_8  and  C_9
REMARK    4  A    between atoms: N_17  and  C_18
REMARK    5  A    between atoms: N_21  and  C_22
REMARK    6  A    between atoms: C_22  and  C_23
REMARK    7  A    between atoms: C_22  and  C_24
REMARK    8  A    between atoms: C_29  and  O_30
REMARK    9  A    between atoms: O_30  and  C_31
REMARK                            x       y       z     vdW  Elec       q    Type
REMARK                         _______ _______ _______ _____ _____    ______ ____
ROOT
ATOM      1  C   UNL     1      -4.131  13.041  23.941  0.00  0.00    +0.000 A 
ATOM      2  C   UNL     1      -3.072  12.253  23.493  0.00  0.00    +0.000 A 
ATOM      3  C   UNL     1      -1.890  12.803  23.029  0.00  0.00    +0.000 A 
ATOM      4  N   UNL     1      -1.018  11.957  22.506  0.00  0.00    +0.000 NA
ATOM      5  C   UNL     1      -0.042  12.437  21.720  0.00  0.00    +0.000 A 
ATOM      6  N   UNL     1       0.538  11.528  20.826  0.00  0.00    +0.000 N 
ATOM      7  N   UNL     1       0.243  13.750  21.634  0.00  0.00    +0.000 NA
ATOM      8  C   UNL     1      -0.527  14.621  22.314  0.00  0.00    +0.000 A 
ATOM      9  N   UNL     1      -0.276  15.992  22.254  0.00  0.00    +0.000 N 
ATOM     10  C   UNL     1      -1.702  14.184  23.007  0.00  0.00    +0.000 A 
ATOM     11  C   UNL     1      -2.729  14.973  23.609  0.00  0.00    +0.000 A 
ATOM     12  C   UNL     1      -3.933  14.410  24.089  0.00  0.00    +0.000 A 
ATOM     13  H   UNL     1       1.421  11.268  21.255  0.00  0.00    +0.000 HD
ATOM     14  H   UNL     1      -0.281  16.413  23.175  0.00  0.00    +0.000 HD
ENDROOT
BRANCH   6  15
ATOM     15  C   UNL     1      -0.322  10.359  20.538  0.00  0.00    +0.000 C 
ATOM     16  C   UNL     1      -0.538  10.167  19.021  0.00  0.00    +0.000 C 
ATOM     17  C   UNL     1       0.797   9.987  18.313  0.00  0.00    +0.000 C 
ATOM     18  C   UNL     1       1.456   8.702  18.782  0.00  0.00    +0.000 C 
ATOM     19  C   UNL     1       1.541   8.579  20.305  0.00  0.00    +0.000 C 
ATOM     20  C   UNL     1       0.298   9.054  21.069  0.00  0.00    +0.000 C 
ENDBRANCH   6  15
BRANCH   9  21
ATOM     21  C   UNL     1       0.413  16.805  21.233  0.00  0.00    +0.000 C 
ATOM     22  C   UNL     1       0.105  16.549  19.771  0.00  0.00    +0.000 C 
ATOM     23  C   UNL     1       1.194  15.847  18.941  0.00  0.00    +0.000 C 
ATOM     24  N   UNL     1       2.527  15.565  19.495  0.00  0.00    +0.000 NA
ATOM     25  C   UNL     1       2.741  15.865  20.904  0.00  0.00    +0.000 C 
ATOM     26  C   UNL     1       1.901  17.009  21.452  0.00  0.00    +0.000 C 
BRANCH  24  27
ATOM     27  C   UNL     1       3.086  14.269  19.029  0.00  0.00    +0.000 C 
ATOM     28  C   UNL     1       2.167  13.408  18.133  0.00  0.00    +0.000 C 
ATOM     29  C   UNL     1       4.432  14.398  18.305  0.00  0.00    +0.000 C 
ENDBRANCH  24  27
ENDBRANCH   9  21
BRANCH   1  31
ATOM     30  C   UNL     1      -6.348  12.694  23.323  0.00  0.00    +0.000 C 
ATOM     31  O   UNL     1      -5.290  12.375  24.236  0.00  0.00    +0.000 OA
ENDBRANCH   1  31
BRANCH  12  32
ATOM     32  O   UNL     1      -4.839  15.308  24.575  0.00  0.00    +0.000 OA
ATOM     33  C   UNL     1      -4.442  16.676  24.662  0.00  0.00    +0.000 C 
ENDBRANCH  12  32
TORSDOF 5
ENDMDL
MODEL 3
REMARK VINA RESULT:      -6.0      5.977     10.332
REMARK  Name = 
REMARK  9 active torsions:
REMARK  status: ('A' for Active; 'I' for Inactive)
REMARK    1  A    between atoms: C_1  and  O_2
REMARK    2  A    between atoms: O_2  and  C_3
REMARK    3  A    between atoms: N_8  and  C_9
REMARK    4  A    between atoms: N_17  and  C_18
REMARK    5  A    between atoms: N_21  and  C_22
REMARK    6  A    between atoms: C_22  and  C_23
REMARK    7  A    between atoms: C_22  and  C_24
REMARK    8  A    between atoms: C_29  and  O_30
REMARK    9  A    between atoms: O_30  and  C_31
REMARK                            x       y       z     vdW  Elec       q    Type
REMARK                         _______ _______ _______ _____ _____    ______ ____
ROOT
ATOM      1  C   UNL     1       7.255  14.510  24.933  0.00  0.00    +0.000 A 
ATOM      2  C   UNL     1       8.195  14.618  23.909  0.00  0.00    +0.000 A 
ATOM      3  C   UNL     1       7.828  14.843  22.593  0.00  0.00    +0.000 A 
ATOM      4  N   UNL     1       8.801  14.790  21.699  0.00  0.00    +0.000 NA
ATOM      5  C   UNL     1       8.483  14.630  20.406  0.00  0.00    +0.000 A 
ATOM      6  N   UNL     1       9.486  14.106  19.580  0.00  0.00    +0.000 N 
ATOM      7  N   UNL     1       7.226  14.767  19.944  0.00  0.00    +0.000 NA
ATOM      8  C   UNL     1       6.239  15.009  20.828  0.00  0.00    +0.000 A 
ATOM      9  N   UNL     1       4.919  15.154  20.399  0.00  0.00    +0.000 N 
ATOM     10  C   UNL     1       6.488  14.990  22.238  0.00  0.00    +0.000 A 
ATOM     11  C   UNL     1       5.548  15.030  23.312  0.00  0.00    +0.000 A 
ATOM     12  C   UNL     1       5.923  14.807  24.656  0.00  0.00    +0.000 A 
ATOM     13  H   UNL     1       9.858  14.908  19.081  0.00  0.00    +0.000 HD
ATOM     14  H   UNL     1       4.479  15.967  20.815  0.00  0.00    +0.000 HD
ENDROOT
BRANCH   6  15
ATOM     15  C   UNL     1      10.528  13.364  20.323  0.00  0.00    +0.000 C 
ATOM     16  C   UNL     1      10.283  11.840  20.284  0.00  0.00    +0.000 C 
ATOM     17  C   UNL     1      10.252  11.344  18.845  0.00  0.00    +0.000 C 
ATOM     18  C   UNL     1      11.615  11.540  18.205  0.00  0.00    +0.000 C 
ATOM     19  C   UNL     1      12.163  12.960  18.359  0.00  0.00    +0.000 C 
ATOM     20  C   UNL     1      11.928  13.606  19.731  0.00  0.00    +0.000 C 
ENDBRANCH   6  15
BRANCH   9  21
ATOM     21  C   UNL     1       4.236  14.664  19.187  0.00  0.00    +0.000 C 
ATOM     22  C   UNL     1       4.358  15.471  17.908  0.00  0.00    +0.000 C 
ATOM     23  C   UNL     1       3.111  16.248  17.452  0.00  0.00    +0.000 C 
ATOM     24  N   UNL     1       1.817  16.104  18.136  0.00  0.00    +0.000 NA
ATOM     25  C   UNL     1       1.788  15.291  19.344  0.00  0.00    +0.000 C 
ATOM     26  C   UNL     1       2.815  14.170  19.389  0.00  0.00    +0.000 C 
BRANCH  24  27
ATOM     27  C   UNL     1       1.056  17.379  18.210  0.00  0.00    +0.000 C 
ATOM     28  C   UNL     1       1.160  18.312  16.982  0.00  0.00    +0.000 C 
ATOM     29  C   UNL     1      -0.436  17.195  18.513  0.00  0.00    +0.000 C 
ENDBRANCH  24  27
ENDBRANCH   9  21
BRANCH   1  31
ATOM     30  C   UNL     1       7.589  12.741  26.409  0.00  0.00    +0.000 C 
ATOM     31  O   UNL     1       7.742  14.144  26.158  0.00  0.00    +0.000 OA
ENDBRANCH   1  31
BRANCH  12  32
ATOM     32  O   UNL     1       4.895  14.814  25.554  0.00  0.00    +0.000 OA
ATOM     33  C   UNL     1       4.756  15.955  26.400  0.00  0.00    +0.000 C 
ENDBRANCH  12  32
TORSDOF 5
ENDMDL
MODEL 4
REMARK VINA RESULT:      -6.0      4.135      8.172
REMARK  Name = 
REMARK  9 active torsions:
REMARK  status: ('A' for Active; 'I' for Inactive)
REMARK    1  A    between atoms: C_1  and  O_2
REMARK    2  A    between atoms: O_2  and  C_3
REMARK    3  A    between atoms: N_8  and  C_9
REMARK    4  A    between atoms: N_17  and  C_18
REMARK    5  A    between atoms: N_21  and  C_22
REMARK    6  A    between atoms: C_22  and  C_23
REMARK    7  A    between atoms: C_22  and  C_24
REMARK    8  A    between atoms: C_29  and  O_30
REMARK    9  A    between atoms: O_30  and  C_31
REMARK                            x       y       z     vdW  Elec       q    Type
REMARK                         _______ _______ _______ _____ _____    ______ ____
ROOT
ATOM      1  C   UNL     1      -2.958  11.422  17.072  0.00  0.00    +0.000 A 
ATOM      2  C   UNL     1      -1.863  11.541  17.925  0.00  0.00    +0.000 A 
ATOM      3  C   UNL     1      -1.994  11.961  19.238  0.00  0.00    +0.000 A 
ATOM      4  N   UNL     1      -0.867  12.162  19.901  0.00  0.00    +0.000 NA
ATOM      5  C   UNL     1      -0.899  12.903  21.019  0.00  0.00    +0.000 A 
ATOM      6  N   UNL     1       0.313  13.488  21.411  0.00  0.00    +0.000 N 
ATOM      7  N   UNL     1      -2.048  13.245  21.633  0.00  0.00    +0.000 NA
ATOM      8  C   UNL     1      -3.213  12.883  21.063  0.00  0.00    +0.000 A 
ATOM      9  N   UNL     1      -4.430  13.217  21.658  0.00  0.00    +0.000 N 
ATOM     10  C   UNL     1      -3.245  12.268  19.770  0.00  0.00    +0.000 A 
ATOM     11  C   UNL     1      -4.373  11.996  18.938  0.00  0.00    +0.000 A 
ATOM     12  C   UNL     1      -4.239  11.562  17.600  0.00  0.00    +0.000 A 
ATOM     13  H   UNL     1       0.652  12.900  22.167  0.00  0.00    +0.000 HD
ATOM     14  H   UNL     1      -5.058  12.422  21.695  0.00  0.00    +0.000 HD
ENDROOT
BRANCH   6  15
ATOM     15  C   UNL     1       1.287  13.614  20.305  0.00  0.00    +0.000 C 
ATOM     16  C   UNL     1       1.062  14.905  19.488  0.00  0.00    +0.000 C 
ATOM     17  C   UNL     1       1.171  16.128  20.387  0.00  0.00    +0.000 C 
ATOM     18  C   UNL     1       2.586  16.245  20.924  0.00  0.00    +0.000 C 
ATOM     19  C   UNL     1       3.104  14.955  21.566  0.00  0.00    +0.000 C 
ATOM     20  C   UNL     1       2.734  13.663  20.827  0.00  0.00    +0.000 C 
ENDBRANCH   6  15
BRANCH   9  21
ATOM     21  C   UNL     1      -4.783  14.296  22.600  0.00  0.00    +0.000 C 
ATOM     22  C   UNL     1      -4.182  15.673  22.387  0.00  0.00    +0.000 C 
ATOM     23  C   UNL     1      -3.089  16.117  23.373  0.00  0.00    +0.000 C 
ATOM     24  N   UNL     1      -2.742  15.314  24.555  0.00  0.00    +0.000 NA
ATOM     25  C   UNL     1      -3.385  14.015  24.692  0.00  0.00    +0.000 C 
ATOM     26  C   UNL     1      -4.769  13.915  24.069  0.00  0.00    +0.000 C 
BRANCH  24  27
ATOM     27  C   UNL     1      -1.287  15.340  24.865  0.00  0.00    +0.000 C 
ATOM     28  C   UNL     1      -0.375  16.024  23.822  0.00  0.00    +0.000 C 
ATOM     29  C   UNL     1      -0.954  15.955  26.230  0.00  0.00    +0.000 C 
ENDBRANCH  24  27
ENDBRANCH   9  21
BRANCH   1  31
ATOM     30  C   UNL     1      -2.763   9.737  15.478  0.00  0.00    +0.000 C 
ATOM     31  O   UNL     1      -2.672  11.138  15.764  0.00  0.00    +0.000 OA
ENDBRANCH   1  31
BRANCH  12  32
ATOM     32  O   UNL     1      -5.413  11.412  16.919  0.00  0.00    +0.000 OA
ATOM     33  C   UNL     1      -6.411  12.418  17.081  0.00  0.00    +0.000 C 
ENDBRANCH  12  32
TORSDOF 5
ENDMDL
MODEL 5
REMARK VINA RESULT:      -5.9      3.739      5.828
REMARK  Name = 
REMARK  9 active torsions:
REMARK  status: ('A' for Active; 'I' for Inactive)
REMARK    1  A    between atoms: C_1  and  O_2
REMARK    2  A    between atoms: O_2  and  C_3
REMARK    3  A    between atoms: N_8  and  C_9
REMARK    4  A    between atoms: N_17  and  C_18
REMARK    5  A    between atoms: N_21  and  C_22
REMARK    6  A    between atoms: C_22  and  C_23
REMARK    7  A    between atoms: C_22  and  C_24
REMARK    8  A    between atoms: C_29  and  O_30
REMARK    9  A    between atoms: O_30  and  C_31
REMARK                            x       y       z     vdW  Elec       q    Type
REMARK                         _______ _______ _______ _____ _____    ______ ____
ROOT
ATOM      1  C   UNL     1      -2.920  16.047  24.964  0.00  0.00    +0.000 A 
ATOM      2  C   UNL     1      -3.696  15.029  24.413  0.00  0.00    +0.000 A 
ATOM      3  C   UNL     1      -3.173  14.101  23.529  0.00  0.00    +0.000 A 
ATOM      4  N   UNL     1      -4.040  13.271  22.973  0.00  0.00    +0.000 NA
ATOM      5  C   UNL     1      -3.682  12.611  21.862  0.00  0.00    +0.000 A 
ATOM      6  N   UNL     1      -4.726  12.144  21.054  0.00  0.00    +0.000 N 
ATOM      7  N   UNL     1      -2.410  12.562  21.423  0.00  0.00    +0.000 NA
ATOM      8  C   UNL     1      -1.471  13.258  22.092  0.00  0.00    +0.000 A 
ATOM      9  N   UNL     1      -0.140  13.243  21.674  0.00  0.00    +0.000 N 
ATOM     10  C   UNL     1      -1.828  14.139  23.164  0.00  0.00    +0.000 A 
ATOM     11  C   UNL     1      -1.011  15.088  23.849  0.00  0.00    +0.000 A 
ATOM     12  C   UNL     1      -1.544  16.031  24.757  0.00  0.00    +0.000 A 
ATOM     13  H   UNL     1      -4.793  11.152  21.262  0.00  0.00    +0.000 HD
ATOM     14  H   UNL     1       0.492  13.079  22.449  0.00  0.00    +0.000 HD
ENDROOT
BRANCH   6  15
ATOM     15  C   UNL     1      -6.002  12.859  21.274  0.00  0.00    +0.000 C 
ATOM     16  C   UNL     1      -6.211  13.989  20.241  0.00  0.00    +0.000 C 
ATOM     17  C   UNL     1      -6.196  13.425  18.827  0.00  0.00    +0.000 C 
ATOM     18  C   UNL     1      -7.379  12.493  18.635  0.00  0.00    +0.000 C 
ATOM     19  C   UNL     1      -7.501  11.426  19.727  0.00  0.00    +0.000 C 
ATOM     20  C   UNL     1      -7.211  11.914  21.152  0.00  0.00    +0.000 C 
ENDBRANCH   6  15
BRANCH   9  21
ATOM     21  C   UNL     1       0.456  12.967  20.353  0.00  0.00    +0.000 C 
ATOM     22  C   UNL     1      -0.195  13.567  19.122  0.00  0.00    +0.000 C 
ATOM     23  C   UNL     1      -0.963  12.606  18.200  0.00  0.00    +0.000 C 
ATOM     24  N   UNL     1      -0.949  11.151  18.416  0.00  0.00    +0.000 NA
ATOM     25  C   UNL     1      -0.279  10.661  19.613  0.00  0.00    +0.000 C 
ATOM     26  C   UNL     1       0.868  11.527  20.107  0.00  0.00    +0.000 C 
BRANCH  24  27
ATOM     27  C   UNL     1      -2.253  10.507  18.108  0.00  0.00    +0.000 C 
ATOM     28  C   UNL     1      -3.476  11.447  18.006  0.00  0.00    +0.000 C 
ATOM     29  C   UNL     1      -2.236   9.648  16.837  0.00  0.00    +0.000 C 
ENDBRANCH  24  27
ENDBRANCH   9  21
BRANCH   1  31
ATOM     30  C   UNL     1      -3.972  18.124  24.933  0.00  0.00    +0.000 C 
ATOM     31  O   UNL     1      -3.594  16.979  25.707  0.00  0.00    +0.000 OA
ENDBRANCH   1  31
BRANCH  12  32
ATOM     32  O   UNL     1      -0.639  16.911  25.277  0.00  0.00    +0.000 OA
ATOM     33  C   UNL     1       0.123  17.701  24.365  0.00  0.00    +0.000 C 
ENDBRANCH  12  32
TORSDOF 5
ENDMDL
MODEL 6
REMARK VINA RESULT:      -5.9      2.879      7.640
REMARK  Name = 
REMARK  9 active torsions:
REMARK  status: ('A' for Active; 'I' for Inactive)
REMARK    1  A    between atoms: C_1  and  O_2
REMARK    2  A    between atoms: O_2  and  C_3
REMARK    3  A    between atoms: N_8  and  C_9
REMARK    4  A    between atoms: N_17  and  C_18
REMARK    5  A    between atoms: N_21  and  C_22
REMARK    6  A    between atoms: C_22  and  C_23
REMARK    7  A    between atoms: C_22  and  C_24
REMARK    8  A    between atoms: C_29  and  O_30
REMARK    9  A    between atoms: O_30  and  C_31
REMARK                            x       y       z     vdW  Elec       q    Type
REMARK                         _______ _______ _______ _____ _____    ______ ____
ROOT
ATOM      1  C   UNL     1       2.326  14.345  19.122  0.00  0.00    +0.000 A 
ATOM      2  C   UNL     1       2.378  13.002  18.752  0.00  0.00    +0.000 A 
ATOM      3  C   UNL     1       1.235  12.264  18.493  0.00  0.00    +0.000 A 
ATOM      4  N   UNL     1       1.411  10.970  18.285  0.00  0.00    +0.000 NA
ATOM      5  C   UNL     1       0.357  10.148  18.395  0.00  0.00    +0.000 A 
ATOM      6  N   UNL     1       0.643   8.800  18.647  0.00  0.00    +0.000 N 
ATOM      7  N   UNL     1      -0.911  10.597  18.465  0.00  0.00    +0.000 NA
ATOM      8  C   UNL     1      -1.122  11.927  18.491  0.00  0.00    +0.000 A 
ATOM      9  N   UNL     1      -2.417  12.441  18.567  0.00  0.00    +0.000 N 
ATOM     10  C   UNL     1      -0.028  12.847  18.577  0.00  0.00    +0.000 A 
ATOM     11  C   UNL     1      -0.063  14.256  18.807  0.00  0.00    +0.000 A 
ATOM     12  C   UNL     1       1.105  15.010  19.064  0.00  0.00    +0.000 A 
ATOM     13  H   UNL     1       0.531   8.338  17.750  0.00  0.00    +0.000 HD
ATOM     14  H   UNL     1      -2.564  13.181  17.890  0.00  0.00    +0.000 HD
ENDROOT
BRANCH   6  15
ATOM     15  C   UNL     1       1.985   8.587  19.234  0.00  0.00    +0.000 C 
ATOM     16  C   UNL     1       1.904   7.877  20.603  0.00  0.00    +0.000 C 
ATOM     17  C   UNL     1       1.204   6.533  20.465  0.00  0.00    +0.000 C 
ATOM     18  C   UNL     1       2.035   5.610  19.592  0.00  0.00    +0.000 C 
ATOM     19  C   UNL     1       2.445   6.236  18.257  0.00  0.00    +0.000 C 
ATOM     20  C   UNL     1       2.867   7.709  18.328  0.00  0.00    +0.000 C 
ENDBRANCH   6  15
BRANCH   9  21
ATOM     21  C   UNL     1      -3.666  11.845  19.076  0.00  0.00    +0.000 C 
ATOM     22  C   UNL     1      -4.715  11.393  18.079  0.00  0.00    +0.000 C 
ATOM     23  C   UNL     1      -5.988  12.249  17.969  0.00  0.00    +0.000 C 
ATOM     24  N   UNL     1      -6.248  13.369  18.886  0.00  0.00    +0.000 NA
ATOM     25  C   UNL     1      -5.194  13.719  19.828  0.00  0.00    +0.000 C 
ATOM     26  C   UNL     1      -4.302  12.562  20.253  0.00  0.00    +0.000 C 
BRANCH  24  27
ATOM     27  C   UNL     1      -6.914  14.520  18.221  0.00  0.00    +0.000 C 
ATOM     28  C   UNL     1      -6.465  15.928  18.673  0.00  0.00    +0.000 C 
ATOM     29  C   UNL     1      -6.826  14.487  16.690  0.00  0.00    +0.000 C 
ENDBRANCH  24  27
ENDBRANCH   9  21
BRANCH   1  31
ATOM     30  C   UNL     1       4.273  15.367  18.359  0.00  0.00    +0.000 C 
ATOM     31  O   UNL     1       3.516  14.912  19.488  0.00  0.00    +0.000 OA
ENDBRANCH   1  31
BRANCH  12  32
ATOM     32  O   UNL     1       0.894  16.333  19.329  0.00  0.00    +0.000 OA
ATOM     33  C   UNL     1       0.420  16.686  20.628  0.00  0.00    +0.000 C 
ENDBRANCH  12  32
TORSDOF 5
ENDMDL
MODEL 7
REMARK VINA RESULT:      -5.9      0.946      1.066
REMARK  Name = 
REMARK  9 active torsions:
REMARK  status: ('A' for Active; 'I' for Inactive)
REMARK    1  A    between atoms: C_1  and  O_2
REMARK    2  A    between atoms: O_2  and  C_3
REMARK    3  A    between atoms: N_8  and  C_9
REMARK    4  A    between atoms: N_17  and  C_18
REMARK    5  A    between atoms: N_21  and  C_22
REMARK    6  A    between atoms: C_22  and  C_23
REMARK    7  A    between atoms: C_22  and  C_24
REMARK    8  A    between atoms: C_29  and  O_30
REMARK    9  A    between atoms: O_30  and  C_31
REMARK                            x       y       z     vdW  Elec       q    Type
REMARK                         _______ _______ _______ _____ _____    ______ ____
ROOT
ATOM      1  C   UNL     1       2.723  16.204  19.732  0.00  0.00    +0.000 A 
ATOM      2  C   UNL     1       1.949  15.898  20.851  0.00  0.00    +0.000 A 
ATOM      3  C   UNL     1       1.570  14.601  21.151  0.00  0.00    +0.000 A 
ATOM      4  N   UNL     1       0.727  14.458  22.159  0.00  0.00    +0.000 NA
ATOM      5  C   UNL     1       0.042  13.310  22.272  0.00  0.00    +0.000 A 
ATOM      6  N   UNL     1      -1.145  13.365  23.015  0.00  0.00    +0.000 N 
ATOM      7  N   UNL     1       0.346  12.209  21.559  0.00  0.00    +0.000 NA
ATOM      8  C   UNL     1       1.336  12.285  20.650  0.00  0.00    +0.000 A 
ATOM      9  N   UNL     1       1.686  11.172  19.884  0.00  0.00    +0.000 N 
ATOM     10  C   UNL     1       1.967  13.534  20.346  0.00  0.00    +0.000 A 
ATOM     11  C   UNL     1       2.882  13.839  19.293  0.00  0.00    +0.000 A 
ATOM     12  C   UNL     1       3.274  15.163  18.991  0.00  0.00    +0.000 A 
ATOM     13  H   UNL     1      -0.906  12.964  23.917  0.00  0.00    +0.000 HD
ATOM     14  H   UNL     1       2.689  11.031  19.868  0.00  0.00    +0.000 HD
ENDROOT
BRANCH   6  15
ATOM     15  C   UNL     1      -1.701  14.732  23.129  0.00  0.00    +0.000 C 
ATOM     16  C   UNL     1      -2.934  14.925  22.219  0.00  0.00    +0.000 C 
ATOM     17  C   UNL     1      -4.019  13.917  22.572  0.00  0.00    +0.000 C 
ATOM     18  C   UNL     1      -4.523  14.180  23.980  0.00  0.00    +0.000 C 
ATOM     19  C   UNL     1      -3.406  14.279  25.021  0.00  0.00    +0.000 C 
ATOM     20  C   UNL     1      -2.155  15.041  24.567  0.00  0.00    +0.000 C 
ENDBRANCH   6  15
BRANCH   9  21
ATOM     21  C   UNL     1       0.912   9.974  19.509  0.00  0.00    +0.000 C 
ATOM     22  C   UNL     1       0.897   8.792  20.459  0.00  0.00    +0.000 C 
ATOM     23  C   UNL     1       1.700   7.549  20.040  0.00  0.00    +0.000 C 
ATOM     24  N   UNL     1       2.335   7.449  18.717  0.00  0.00    +0.000 NA
ATOM     25  C   UNL     1       2.281   8.625  17.860  0.00  0.00    +0.000 C 
ATOM     26  C   UNL     1       1.067   9.517  18.070  0.00  0.00    +0.000 C 
BRANCH  24  27
ATOM     27  C   UNL     1       3.648   6.751  18.756  0.00  0.00    +0.000 C 
ATOM     28  C   UNL     1       3.681   5.393  19.493  0.00  0.00    +0.000 C 
ATOM     29  C   UNL     1       4.275   6.531  17.374  0.00  0.00    +0.000 C 
ENDBRANCH  24  27
ENDBRANCH   9  21
BRANCH   1  31
ATOM     30  C   UNL     1       3.548  18.219  20.558  0.00  0.00    +0.000 C 
ATOM     31  O   UNL     1       2.903  17.536  19.475  0.00  0.00    +0.000 OA
ENDBRANCH   1  31
BRANCH  12  32
ATOM     32  O   UNL     1       4.103  15.290  17.914  0.00  0.00    +0.000 OA
ATOM     33  C   UNL     1       5.475  14.933  18.081  0.00  0.00    +0.000 C 
ENDBRANCH  12  32
TORSDOF 5
ENDMDL
MODEL 8
REMARK VINA RESULT:      -5.9      5.914     10.511
REMARK  Name = 
REMARK  9 active torsions:
REMARK  status: ('A' for Active; 'I' for Inactive)
REMARK    1  A    between atoms: C_1  and  O_2
REMARK    2  A    between atoms: O_2  and  C_3
REMARK    3  A    between atoms: N_8  and  C_9
REMARK    4  A    between atoms: N_17  and  C_18
REMARK    5  A    between atoms: N_21  and  C_22
REMARK    6  A    between atoms: C_22  and  C_23
REMARK    7  A    between atoms: C_22  and  C_24
REMARK    8  A    between atoms: C_29  and  O_30
REMARK    9  A    between atoms: O_30  and  C_31
REMARK                            x       y       z     vdW  Elec       q    Type
REMARK                         _______ _______ _______ _____ _____    ______ ____
ROOT
ATOM      1  C   UNL     1       7.544  13.474  24.304  0.00  0.00    +0.000 A 
ATOM      2  C   UNL     1       8.401  13.957  23.316  0.00  0.00    +0.000 A 
ATOM      3  C   UNL     1       7.930  14.466  22.117  0.00  0.00    +0.000 A 
ATOM      4  N   UNL     1       8.845  14.765  21.211  0.00  0.00    +0.000 NA
ATOM      5  C   UNL     1       8.467  14.906  19.932  0.00  0.00    +0.000 A 
ATOM      6  N   UNL     1       9.468  14.740  18.966  0.00  0.00    +0.000 N 
ATOM      7  N   UNL     1       7.176  14.999  19.561  0.00  0.00    +0.000 NA
ATOM      8  C   UNL     1       6.225  14.881  20.508  0.00  0.00    +0.000 A 
ATOM      9  N   UNL     1       4.873  14.966  20.174  0.00  0.00    +0.000 N 
ATOM     10  C   UNL     1       6.562  14.531  21.855  0.00  0.00    +0.000 A 
ATOM     11  C   UNL     1       5.692  14.177  22.930  0.00  0.00    +0.000 A 
ATOM     12  C   UNL     1       6.174  13.664  24.156  0.00  0.00    +0.000 A 
ATOM     13  H   UNL     1       9.716  15.684  18.684  0.00  0.00    +0.000 HD
ATOM     14  H   UNL     1       4.372  15.583  20.802  0.00  0.00    +0.000 HD
ENDROOT
BRANCH   6  15
ATOM     15  C   UNL     1      10.631  13.967  19.455  0.00  0.00    +0.000 C 
ATOM     16  C   UNL     1      10.589  12.501  18.971  0.00  0.00    +0.000 C 
ATOM     17  C   UNL     1      10.560  12.445  17.450  0.00  0.00    +0.000 C 
ATOM     18  C   UNL     1      11.856  13.006  16.892  0.00  0.00    +0.000 C 
ATOM     19  C   UNL     1      12.218  14.383  17.455  0.00  0.00    +0.000 C 
ATOM     20  C   UNL     1      11.959  14.564  18.956  0.00  0.00    +0.000 C 
ENDBRANCH   6  15
BRANCH   9  21
ATOM     21  C   UNL     1       4.175  14.724  18.897  0.00  0.00    +0.000 C 
ATOM     22  C   UNL     1       4.262  15.777  17.809  0.00  0.00    +0.000 C 
ATOM     23  C   UNL     1       2.997  16.609  17.541  0.00  0.00    +0.000 C 
ATOM     24  N   UNL     1       1.718  16.307  18.200  0.00  0.00    +0.000 NA
ATOM     25  C   UNL     1       1.722  15.263  19.216  0.00  0.00    +0.000 C 
ATOM     26  C   UNL     1       2.765  14.174  19.015  0.00  0.00    +0.000 C 
BRANCH  24  27
ATOM     27  C   UNL     1       0.941  17.527  18.545  0.00  0.00    +0.000 C 
ATOM     28  C   UNL     1      -0.226  17.887  17.599  0.00  0.00    +0.000 C 
ATOM     29  C   UNL     1       0.381  17.523  19.973  0.00  0.00    +0.000 C 
ENDBRANCH  24  27
ENDBRANCH   9  21
BRANCH   1  31
ATOM     30  C   UNL     1       8.842  13.802  26.209  0.00  0.00    +0.000 C 
ATOM     31  O   UNL     1       8.145  12.868  25.374  0.00  0.00    +0.000 OA
ENDBRANCH   1  31
BRANCH  12  32
ATOM     32  O   UNL     1       5.209  13.312  25.056  0.00  0.00    +0.000 OA
ATOM     33  C   UNL     1       5.208  13.966  26.324  0.00  0.00    +0.000 C 
ENDBRANCH  12  32
TORSDOF 5
ENDMDL
MODEL 9
REMARK VINA RESULT:      -5.8      5.856      9.801
REMARK  Name = 
REMARK  9 active torsions:
REMARK  status: ('A' for Active; 'I' for Inactive)
REMARK    1  A    between atoms: C_1  and  O_2
REMARK    2  A    between atoms: O_2  and  C_3
REMARK    3  A    between atoms: N_8  and  C_9
REMARK    4  A    between atoms: N_17  and  C_18
REMARK    5  A    between atoms: N_21  and  C_22
REMARK    6  A    between atoms: C_22  and  C_23
REMARK    7  A    between atoms: C_22  and  C_24
REMARK    8  A    between atoms: C_29  and  O_30
REMARK    9  A    between atoms: O_30  and  C_31
REMARK                            x       y       z     vdW  Elec       q    Type
REMARK                         _______ _______ _______ _____ _____    ______ ____
ROOT
ATOM      1  C   UNL     1       6.621  13.539  24.723  0.00  0.00    +0.000 A 
ATOM      2  C   UNL     1       7.596  13.382  23.740  0.00  0.00    +0.000 A 
ATOM      3  C   UNL     1       7.524  14.036  22.521  0.00  0.00    +0.000 A 
ATOM      4  N   UNL     1       8.436  13.700  21.624  0.00  0.00    +0.000 NA
ATOM      5  C   UNL     1       8.218  14.001  20.335  0.00  0.00    +0.000 A 
ATOM      6  N   UNL     1       8.920  13.239  19.392  0.00  0.00    +0.000 N 
ATOM      7  N   UNL     1       7.240  14.838  19.940  0.00  0.00    +0.000 NA
ATOM      8  C   UNL     1       6.409  15.342  20.872  0.00  0.00    +0.000 A 
ATOM      9  N   UNL     1       5.378  16.211  20.512  0.00  0.00    +0.000 N 
ATOM     10  C   UNL     1       6.469  14.900  22.233  0.00  0.00    +0.000 A 
ATOM     11  C   UNL     1       5.561  15.171  23.301  0.00  0.00    +0.000 A 
ATOM     12  C   UNL     1       5.639  14.509  24.547  0.00  0.00    +0.000 A 
ATOM     13  H   UNL     1       9.684  13.837  19.092  0.00  0.00    +0.000 HD
ATOM     14  H   UNL     1       5.348  17.024  21.116  0.00  0.00    +0.000 HD
ENDROOT
BRANCH   6  15
ATOM     15  C   UNL     1       9.387  11.938  19.920  0.00  0.00    +0.000 C 
ATOM     16  C   UNL     1       9.561  10.893  18.796  0.00  0.00    +0.000 C 
ATOM     17  C   UNL     1      10.555  11.392  17.757  0.00  0.00    +0.000 C 
ATOM     18  C   UNL     1      11.930  11.527  18.386  0.00  0.00    +0.000 C 
ATOM     19  C   UNL     1      11.932  12.337  19.684  0.00  0.00    +0.000 C 
ATOM     20  C   UNL     1      10.749  12.068  20.624  0.00  0.00    +0.000 C 
ENDBRANCH   6  15
BRANCH   9  21
ATOM     21  C   UNL     1       4.674  16.398  19.229  0.00  0.00    +0.000 C 
ATOM     22  C   UNL     1       3.267  16.963  19.248  0.00  0.00    +0.000 C 
ATOM     23  C   UNL     1       2.119  15.989  18.938  0.00  0.00    +0.000 C 
ATOM     24  N   UNL     1       2.374  14.608  18.500  0.00  0.00    +0.000 NA
ATOM     25  C   UNL     1       3.758  14.156  18.490  0.00  0.00    +0.000 C 
ATOM     26  C   UNL     1       4.788  15.248  18.245  0.00  0.00    +0.000 C 
BRANCH  24  27
ATOM     27  C   UNL     1       1.391  13.635  19.049  0.00  0.00    +0.000 C 
ATOM     28  C   UNL     1      -0.082  13.838  18.629  0.00  0.00    +0.000 C 
ATOM     29  C   UNL     1       1.745  12.170  18.766  0.00  0.00    +0.000 C 
ENDBRANCH  24  27
ENDBRANCH   9  21
BRANCH   1  31
ATOM     30  C   UNL     1       7.760  13.172  26.721  0.00  0.00    +0.000 C 
ATOM     31  O   UNL     1       6.739  12.726  25.819  0.00  0.00    +0.000 OA
ENDBRANCH   1  31
BRANCH  12  32
ATOM     32  O   UNL     1       4.656  14.832  25.438  0.00  0.00    +0.000 OA
ATOM     33  C   UNL     1       4.990  15.713  26.510  0.00  0.00    +0.000 C 
ENDBRANCH  12  32
TORSDOF 5
ENDMDL
