MODEL 1
REMARK VINA RESULT:      -7.9      0.000      0.000
REMARK  Name = 
REMARK  6 active torsions:
REMARK  status: ('A' for Active; 'I' for Inactive)
REMARK    1  A    between atoms: C_2  and  C_3
REMARK    2  A    between atoms: C_6  and  N_7
REMARK    3  A    between atoms: C_11  and  C_12
REMARK    4  A    between atoms: C_16  and  N_17
REMARK    5  A    between atoms: N_17  and  C_18
REMARK    6  A    between atoms: C_18  and  C_19
REMARK                            x       y       z     vdW  Elec       q    Type
REMARK                         _______ _______ _______ _____ _____    ______ ____
ROOT
ATOM      1  N   UNL     1       5.949   4.165  17.608  0.00  0.00    +0.000 N 
ATOM      2  C   UNL     1       4.698   3.912  18.180  0.00  0.00    +0.000 A 
ATOM      3  N   UNL     1       4.474   2.681  18.641  0.00  0.00    +0.000 NA
ATOM      4  C   UNL     1       3.287   2.485  19.245  0.00  0.00    +0.000 A 
ATOM      5  C   UNL     1       2.325   3.462  19.414  0.00  0.00    +0.000 A 
ATOM      6  C   UNL     1       2.648   4.710  18.934  0.00  0.00    +0.000 A 
ATOM      7  N   UNL     1       3.816   4.914  18.300  0.00  0.00    +0.000 NA
ATOM      8  H   UNL     1       6.532   3.366  17.835  0.00  0.00    +0.000 HD
ENDROOT
BRANCH   1  12
ATOM      9  C   UNL     1       7.879   7.828  17.988  0.00  0.00    +0.000 A 
ATOM     10  C   UNL     1       8.190   6.819  18.892  0.00  0.00    +0.000 A 
ATOM     11  C   UNL     1       7.542   5.589  18.753  0.00  0.00    +0.000 A 
ATOM     12  C   UNL     1       6.634   5.391  17.713  0.00  0.00    +0.000 A 
ATOM     13  C   UNL     1       6.392   6.481  16.873  0.00  0.00    +0.000 A 
ATOM     14  N   UNL     1       6.988   7.702  16.980  0.00  0.00    +0.000 NA
BRANCH   9  16
ATOM     15  N   UNL     1       8.957  10.191  18.150  0.00  0.00    +0.000 NA
ATOM     16  C   UNL     1       8.491   9.130  18.103  0.00  0.00    +0.000 C 
ENDBRANCH   9  16
ENDBRANCH   1  12
BRANCH   5  17
ATOM     17  C   UNL     1       1.054   3.152  20.112  0.00  0.00    +0.000 C 
ATOM     18  F   UNL     1       0.409   4.267  20.564  0.00  0.00    +0.000 F 
ATOM     19  F   UNL     1       0.141   2.500  19.341  0.00  0.00    +0.000 F 
ATOM     20  F   UNL     1       1.237   2.372  21.214  0.00  0.00    +0.000 F 
ENDBRANCH   5  17
BRANCH   6  21
ATOM     21  N   UNL     1       1.873   5.828  19.247  0.00  0.00    +0.000 N 
ATOM     22  H   UNL     1       0.975   5.632  19.677  0.00  0.00    +0.000 HD
BRANCH  21  23
ATOM     23  C   UNL     1       1.856   6.900  18.243  0.00  0.00    +0.000 C 
BRANCH  23  24
ATOM     24  C   UNL     1       2.363   8.219  18.857  0.00  0.00    +0.000 C 
ATOM     25  C   UNL     1       1.738   8.535  20.225  0.00  0.00    +0.000 C 
ATOM     26  C   UNL     1       0.273   8.955  20.103  0.00  0.00    +0.000 C 
ATOM     27  C   UNL     1       0.088  10.053  19.057  0.00  0.00    +0.000 C 
ATOM     28  N   UNL     1       0.660   9.667  17.767  0.00  0.00    +0.000 NA
ATOM     29  C   UNL     1       2.092   9.384  17.888  0.00  0.00    +0.000 C 
ATOM     30  H   UNL     1       0.520  10.421  17.094  0.00  0.00    +0.000 HD
ENDBRANCH  23  24
ENDBRANCH  21  23
ENDBRANCH   6  21
TORSDOF 6
ENDMDL
MODEL 2
REMARK VINA RESULT:      -7.8      2.451      6.179
REMARK  Name = 
REMARK  6 active torsions:
REMARK  status: ('A' for Active; 'I' for Inactive)
REMARK    1  A    between atoms: C_2  and  C_3
REMARK    2  A    between atoms: C_6  and  N_7
REMARK    3  A    between atoms: C_11  and  C_12
REMARK    4  A    between atoms: C_16  and  N_17
REMARK    5  A    between atoms: N_17  and  C_18
REMARK    6  A    between atoms: C_18  and  C_19
REMARK                            x       y       z     vdW  Elec       q    Type
REMARK                         _______ _______ _______ _____ _____    ______ ____
ROOT
ATOM      1  N   UNL     1       1.214   7.076  21.423  0.00  0.00    +0.000 N 
ATOM      2  C   UNL     1       1.675   6.073  20.563  0.00  0.00    +0.000 A 
ATOM      3  N   UNL     1       1.116   4.868  20.674  0.00  0.00    +0.000 NA
ATOM      4  C   UNL     1       1.532   3.942  19.790  0.00  0.00    +0.000 A 
ATOM      5  C   UNL     1       2.470   4.170  18.802  0.00  0.00    +0.000 A 
ATOM      6  C   UNL     1       2.977   5.448  18.741  0.00  0.00    +0.000 A 
ATOM      7  N   UNL     1       2.595   6.374  19.636  0.00  0.00    +0.000 NA
ATOM      8  H   UNL     1       0.374   6.712  21.859  0.00  0.00    +0.000 HD
ENDROOT
BRANCH   1  12
ATOM      9  C   UNL     1       1.011  11.096  20.381  0.00  0.00    +0.000 A 
ATOM     10  C   UNL     1       1.053  10.150  19.364  0.00  0.00    +0.000 A 
ATOM     11  C   UNL     1       1.114   8.800  19.722  0.00  0.00    +0.000 A 
ATOM     12  C   UNL     1       1.103   8.434  21.068  0.00  0.00    +0.000 A 
ATOM     13  C   UNL     1       1.071   9.473  22.003  0.00  0.00    +0.000 A 
ATOM     14  N   UNL     1       1.026  10.800  21.699  0.00  0.00    +0.000 NA
BRANCH   9  16
ATOM     15  N   UNL     1       0.972  13.626  19.774  0.00  0.00    +0.000 NA
ATOM     16  C   UNL     1       0.981  12.506  20.072  0.00  0.00    +0.000 C 
ENDBRANCH   9  16
ENDBRANCH   1  12
BRANCH   5  17
ATOM     17  C   UNL     1       2.850   3.088  17.862  0.00  0.00    +0.000 C 
ATOM     18  F   UNL     1       4.195   2.851  17.837  0.00  0.00    +0.000 F 
ATOM     19  F   UNL     1       2.280   1.884  18.141  0.00  0.00    +0.000 F 
ATOM     20  F   UNL     1       2.512   3.372  16.572  0.00  0.00    +0.000 F 
ENDBRANCH   5  17
BRANCH   6  21
ATOM     21  N   UNL     1       3.746   5.869  17.655  0.00  0.00    +0.000 N 
ATOM     22  H   UNL     1       3.554   5.404  16.774  0.00  0.00    +0.000 HD
BRANCH  21  23
ATOM     23  C   UNL     1       5.170   6.105  17.929  0.00  0.00    +0.000 C 
BRANCH  23  24
ATOM     24  C   UNL     1       5.894   6.573  16.653  0.00  0.00    +0.000 C 
ATOM     25  C   UNL     1       5.255   6.042  15.359  0.00  0.00    +0.000 C 
ATOM     26  C   UNL     1       5.513   4.548  15.163  0.00  0.00    +0.000 C 
ATOM     27  C   UNL     1       6.993   4.208  15.320  0.00  0.00    +0.000 C 
ATOM     28  N   UNL     1       7.525   4.697  16.592  0.00  0.00    +0.000 NA
ATOM     29  C   UNL     1       7.373   6.149  16.705  0.00  0.00    +0.000 C 
ATOM     30  H   UNL     1       8.514   4.454  16.664  0.00  0.00    +0.000 HD
ENDBRANCH  23  24
ENDBRANCH  21  23
ENDBRANCH   6  21
TORSDOF 6
ENDMDL
MODEL 3
REMARK VINA RESULT:      -7.8      1.004      1.131
REMARK  Name = 
REMARK  6 active torsions:
REMARK  status: ('A' for Active; 'I' for Inactive)
REMARK    1  A    between atoms: C_2  and  C_3
REMARK    2  A    between atoms: C_6  and  N_7
REMARK    3  A    between atoms: C_11  and  C_12
REMARK    4  A    between atoms: C_16  and  N_17
REMARK    5  A    between atoms: N_17  and  C_18
REMARK    6  A    between atoms: C_18  and  C_19
REMARK                            x       y       z     vdW  Elec       q    Type
REMARK                         _______ _______ _______ _____ _____    ______ ____
ROOT
ATOM      1  N   UNL     1       5.750   4.735  17.455  0.00  0.00    +0.000 N 
ATOM      2  C   UNL     1       4.705   4.366  18.308  0.00  0.00    +0.000 A 
ATOM      3  N   UNL     1       4.535   3.064  18.539  0.00  0.00    +0.000 NA
ATOM      4  C   UNL     1       3.565   2.742  19.415  0.00  0.00    +0.000 A 
ATOM      5  C   UNL     1       2.769   3.661  20.072  0.00  0.00    +0.000 A 
ATOM      6  C   UNL     1       3.029   4.984  19.796  0.00  0.00    +0.000 A 
ATOM      7  N   UNL     1       3.973   5.319  18.900  0.00  0.00    +0.000 NA
ATOM      8  H   UNL     1       6.313   3.902  17.319  0.00  0.00    +0.000 HD
ENDROOT
BRANCH   1  12
ATOM      9  C   UNL     1       7.954   8.219  17.995  0.00  0.00    +0.000 A 
ATOM     10  C   UNL     1       8.277   7.106  18.762  0.00  0.00    +0.000 A 
ATOM     11  C   UNL     1       7.537   5.937  18.569  0.00  0.00    +0.000 A 
ATOM     12  C   UNL     1       6.525   5.901  17.610  0.00  0.00    +0.000 A 
ATOM     13  C   UNL     1       6.282   7.084  16.907  0.00  0.00    +0.000 A 
ATOM     14  N   UNL     1       6.968   8.250  17.073  0.00  0.00    +0.000 NA
BRANCH   9  16
ATOM     15  N   UNL     1       9.184  10.487  18.332  0.00  0.00    +0.000 NA
ATOM     16  C   UNL     1       8.662   9.464  18.174  0.00  0.00    +0.000 C 
ENDBRANCH   9  16
ENDBRANCH   1  12
BRANCH   5  17
ATOM     17  C   UNL     1       1.737   3.209  21.036  0.00  0.00    +0.000 C 
ATOM     18  F   UNL     1       0.515   3.777  20.813  0.00  0.00    +0.000 F 
ATOM     19  F   UNL     1       1.515   1.866  21.022  0.00  0.00    +0.000 F 
ATOM     20  F   UNL     1       2.050   3.523  22.325  0.00  0.00    +0.000 F 
ENDBRANCH   5  17
BRANCH   6  21
ATOM     21  N   UNL     1       2.463   6.006  20.561  0.00  0.00    +0.000 N 
ATOM     22  H   UNL     1       2.052   5.718  21.442  0.00  0.00    +0.000 HD
BRANCH  21  23
ATOM     23  C   UNL     1       1.692   7.011  19.818  0.00  0.00    +0.000 C 
BRANCH  23  24
ATOM     24  C   UNL     1       1.953   8.418  20.387  0.00  0.00    +0.000 C 
ATOM     25  C   UNL     1       1.253   8.673  21.732  0.00  0.00    +0.000 C 
ATOM     26  C   UNL     1      -0.258   8.834  21.569  0.00  0.00    +0.000 C 
ATOM     27  C   UNL     1      -0.603   9.845  20.477  0.00  0.00    +0.000 C 
ATOM     28  N   UNL     1       0.056   9.516  19.213  0.00  0.00    +0.000 NA
ATOM     29  C   UNL     1       1.511   9.485  19.368  0.00  0.00    +0.000 C 
ATOM     30  H   UNL     1      -0.194  10.210  18.508  0.00  0.00    +0.000 HD
ENDBRANCH  23  24
ENDBRANCH  21  23
ENDBRANCH   6  21
TORSDOF 6
ENDMDL
MODEL 4
REMARK VINA RESULT:      -7.7      3.182      6.546
REMARK  Name = 
REMARK  6 active torsions:
REMARK  status: ('A' for Active; 'I' for Inactive)
REMARK    1  A    between atoms: C_2  and  C_3
REMARK    2  A    between atoms: C_6  and  N_7
REMARK    3  A    between atoms: C_11  and  C_12
REMARK    4  A    between atoms: C_16  and  N_17
REMARK    5  A    between atoms: N_17  and  C_18
REMARK    6  A    between atoms: C_18  and  C_19
REMARK                            x       y       z     vdW  Elec       q    Type
REMARK                         _______ _______ _______ _____ _____    ______ ____
ROOT
ATOM      1  N   UNL     1       2.338   8.234  17.585  0.00  0.00    +0.000 N 
ATOM      2  C   UNL     1       3.345   7.288  17.363  0.00  0.00    +0.000 A 
ATOM      3  N   UNL     1       4.227   7.548  16.398  0.00  0.00    +0.000 NA
ATOM      4  C   UNL     1       5.221   6.654  16.252  0.00  0.00    +0.000 A 
ATOM      5  C   UNL     1       5.376   5.522  17.029  0.00  0.00    +0.000 A 
ATOM      6  C   UNL     1       4.437   5.343  18.019  0.00  0.00    +0.000 A 
ATOM      7  N   UNL     1       3.420   6.211  18.157  0.00  0.00    +0.000 NA
ATOM      8  H   UNL     1       2.604   9.060  17.059  0.00  0.00    +0.000 HD
ENDROOT
BRANCH   1  12
ATOM      9  C   UNL     1       0.871   9.186  21.358  0.00  0.00    +0.000 A 
ATOM     10  C   UNL     1       0.690  10.100  20.327  0.00  0.00    +0.000 A 
ATOM     11  C   UNL     1       1.179   9.769  19.060  0.00  0.00    +0.000 A 
ATOM     12  C   UNL     1       1.804   8.540  18.852  0.00  0.00    +0.000 A 
ATOM     13  C   UNL     1       1.941   7.707  19.966  0.00  0.00    +0.000 A 
ATOM     14  N   UNL     1       1.494   7.995  21.220  0.00  0.00    +0.000 NA
BRANCH   9  16
ATOM     15  N   UNL     1       0.103   9.741  23.781  0.00  0.00    +0.000 NA
ATOM     16  C   UNL     1       0.418   9.488  22.694  0.00  0.00    +0.000 C 
ENDBRANCH   9  16
ENDBRANCH   1  12
BRANCH   5  17
ATOM     17  C   UNL     1       6.518   4.604  16.803  0.00  0.00    +0.000 C 
ATOM     18  F   UNL     1       7.241   4.364  17.936  0.00  0.00    +0.000 F 
ATOM     19  F   UNL     1       6.160   3.375  16.341  0.00  0.00    +0.000 F 
ATOM     20  F   UNL     1       7.414   5.095  15.901  0.00  0.00    +0.000 F 
ENDBRANCH   5  17
BRANCH   6  21
ATOM     21  N   UNL     1       4.610   4.378  19.013  0.00  0.00    +0.000 N 
ATOM     22  H   UNL     1       4.980   3.487  18.700  0.00  0.00    +0.000 HD
BRANCH  21  23
ATOM     23  C   UNL     1       3.536   4.284  20.011  0.00  0.00    +0.000 C 
BRANCH  23  24
ATOM     24  C   UNL     1       3.147   2.813  20.246  0.00  0.00    +0.000 C 
ATOM     25  C   UNL     1       3.125   1.974  18.958  0.00  0.00    +0.000 C 
ATOM     26  C   UNL     1       1.935   2.324  18.066  0.00  0.00    +0.000 C 
ATOM     27  C   UNL     1       0.623   2.312  18.848  0.00  0.00    +0.000 C 
ATOM     28  N   UNL     1       0.695   3.168  20.032  0.00  0.00    +0.000 NA
ATOM     29  C   UNL     1       1.769   2.739  20.929  0.00  0.00    +0.000 C 
ATOM     30  H   UNL     1      -0.195   3.136  20.530  0.00  0.00    +0.000 HD
ENDBRANCH  23  24
ENDBRANCH  21  23
ENDBRANCH   6  21
TORSDOF 6
ENDMDL
MODEL 5
REMARK VINA RESULT:      -7.7      2.225      6.001
REMARK  Name = 
REMARK  6 active torsions:
REMARK  status: ('A' for Active; 'I' for Inactive)
REMARK    1  A    between atoms: C_2  and  C_3
REMARK    2  A    between atoms: C_6  and  N_7
REMARK    3  A    between atoms: C_11  and  C_12
REMARK    4  A    between atoms: C_16  and  N_17
REMARK    5  A    between atoms: N_17  and  C_18
REMARK    6  A    between atoms: C_18  and  C_19
REMARK                            x       y       z     vdW  Elec       q    Type
REMARK                         _______ _______ _______ _____ _____    ______ ____
ROOT
ATOM      1  N   UNL     1       1.309   7.164  21.250  0.00  0.00    +0.000 N 
ATOM      2  C   UNL     1       1.720   6.029  20.543  0.00  0.00    +0.000 A 
ATOM      3  N   UNL     1       1.109   4.878  20.825  0.00  0.00    +0.000 NA
ATOM      4  C   UNL     1       1.478   3.818  20.084  0.00  0.00    +0.000 A 
ATOM      5  C   UNL     1       2.420   3.860  19.074  0.00  0.00    +0.000 A 
ATOM      6  C   UNL     1       2.982   5.093  18.830  0.00  0.00    +0.000 A 
ATOM      7  N   UNL     1       2.646   6.154  19.583  0.00  0.00    +0.000 NA
ATOM      8  H   UNL     1       0.456   6.904  21.734  0.00  0.00    +0.000 HD
ENDROOT
BRANCH   1  12
ATOM      9  C   UNL     1       1.030  10.976  19.611  0.00  0.00    +0.000 A 
ATOM     10  C   UNL     1       0.823  10.826  20.977  0.00  0.00    +0.000 A 
ATOM     11  C   UNL     1       0.926   9.542  21.522  0.00  0.00    +0.000 A 
ATOM     12  C   UNL     1       1.255   8.462  20.704  0.00  0.00    +0.000 A 
ATOM     13  C   UNL     1       1.428   8.731  19.344  0.00  0.00    +0.000 A 
ATOM     14  N   UNL     1       1.323   9.961  18.769  0.00  0.00    +0.000 NA
BRANCH   9  16
ATOM     15  N   UNL     1       0.749  13.306  18.489  0.00  0.00    +0.000 NA
ATOM     16  C   UNL     1       0.903  12.271  18.988  0.00  0.00    +0.000 C 
ENDBRANCH   9  16
ENDBRANCH   1  12
BRANCH   5  17
ATOM     17  C   UNL     1       2.746   2.639  18.298  0.00  0.00    +0.000 C 
ATOM     18  F   UNL     1       2.131   1.521  18.782  0.00  0.00    +0.000 F 
ATOM     19  F   UNL     1       2.392   2.703  16.986  0.00  0.00    +0.000 F 
ATOM     20  F   UNL     1       4.079   2.350  18.312  0.00  0.00    +0.000 F 
ENDBRANCH   5  17
BRANCH   6  21
ATOM     21  N   UNL     1       3.763   5.319  17.696  0.00  0.00    +0.000 N 
ATOM     22  H   UNL     1       3.532   4.756  16.884  0.00  0.00    +0.000 HD
BRANCH  21  23
ATOM     23  C   UNL     1       5.202   5.498  17.932  0.00  0.00    +0.000 C 
BRANCH  23  24
ATOM     24  C   UNL     1       5.815   6.408  16.850  0.00  0.00    +0.000 C 
ATOM     25  C   UNL     1       5.180   6.221  15.463  0.00  0.00    +0.000 C 
ATOM     26  C   UNL     1       5.586   4.895  14.821  0.00  0.00    +0.000 C 
ATOM     27  C   UNL     1       7.100   4.695  14.852  0.00  0.00    +0.000 C 
ATOM     28  N   UNL     1       7.632   4.837  16.208  0.00  0.00    +0.000 NA
ATOM     29  C   UNL     1       7.332   6.160  16.757  0.00  0.00    +0.000 C 
ATOM     30  H   UNL     1       8.643   4.698  16.193  0.00  0.00    +0.000 HD
ENDBRANCH  23  24
ENDBRANCH  21  23
ENDBRANCH   6  21
TORSDOF 6
ENDMDL
MODEL 6
REMARK VINA RESULT:      -7.6      3.218      6.412
REMARK  Name = 
REMARK  6 active torsions:
REMARK  status: ('A' for Active; 'I' for Inactive)
REMARK    1  A    between atoms: C_2  and  C_3
REMARK    2  A    between atoms: C_6  and  N_7
REMARK    3  A    between atoms: C_11  and  C_12
REMARK    4  A    between atoms: C_16  and  N_17
REMARK    5  A    between atoms: N_17  and  C_18
REMARK    6  A    between atoms: C_18  and  C_19
REMARK                            x       y       z     vdW  Elec       q    Type
REMARK                         _______ _______ _______ _____ _____    ______ ____
ROOT
ATOM      1  N   UNL     1       2.386   8.310  17.491  0.00  0.00    +0.000 N 
ATOM      2  C   UNL     1       3.350   7.328  17.235  0.00  0.00    +0.000 A 
ATOM      3  N   UNL     1       4.250   7.587  16.286  0.00  0.00    +0.000 NA
ATOM      4  C   UNL     1       5.203   6.655  16.108  0.00  0.00    +0.000 A 
ATOM      5  C   UNL     1       5.300   5.485  16.838  0.00  0.00    +0.000 A 
ATOM      6  C   UNL     1       4.347   5.309  17.815  0.00  0.00    +0.000 A 
ATOM      7  N   UNL     1       3.370   6.217  17.984  0.00  0.00    +0.000 NA
ATOM      8  H   UNL     1       2.693   9.143  17.001  0.00  0.00    +0.000 HD
ENDROOT
BRANCH   1  12
ATOM      9  C   UNL     1       0.935   9.180  21.289  0.00  0.00    +0.000 A 
ATOM     10  C   UNL     1       0.724  10.103  20.272  0.00  0.00    +0.000 A 
ATOM     11  C   UNL     1       1.208   9.800  18.997  0.00  0.00    +0.000 A 
ATOM     12  C   UNL     1       1.857   8.587  18.766  0.00  0.00    +0.000 A 
ATOM     13  C   UNL     1       2.023   7.742  19.868  0.00  0.00    +0.000 A 
ATOM     14  N   UNL     1       1.582   8.004  21.130  0.00  0.00    +0.000 NA
BRANCH   9  16
ATOM     15  N   UNL     1       0.122   9.620  23.721  0.00  0.00    +0.000 NA
ATOM     16  C   UNL     1       0.488   9.453  22.634  0.00  0.00    +0.000 C 
ENDBRANCH   9  16
ENDBRANCH   1  12
BRANCH   5  17
ATOM     17  C   UNL     1       6.400   4.526  16.579  0.00  0.00    +0.000 C 
ATOM     18  F   UNL     1       7.332   5.008  15.705  0.00  0.00    +0.000 F 
ATOM     19  F   UNL     1       7.101   4.172  17.690  0.00  0.00    +0.000 F 
ATOM     20  F   UNL     1       5.960   3.360  16.027  0.00  0.00    +0.000 F 
ENDBRANCH   5  17
BRANCH   6  21
ATOM     21  N   UNL     1       4.469   4.297  18.768  0.00  0.00    +0.000 N 
ATOM     22  H   UNL     1       5.375   4.224  19.218  0.00  0.00    +0.000 HD
BRANCH  21  23
ATOM     23  C   UNL     1       3.845   3.013  18.425  0.00  0.00    +0.000 C 
BRANCH  23  24
ATOM     24  C   UNL     1       3.193   2.381  19.669  0.00  0.00    +0.000 C 
ATOM     25  C   UNL     1       1.789   1.813  19.401  0.00  0.00    +0.000 C 
ATOM     26  C   UNL     1       0.752   2.918  19.207  0.00  0.00    +0.000 C 
ATOM     27  C   UNL     1       0.810   3.949  20.333  0.00  0.00    +0.000 C 
ATOM     28  N   UNL     1       2.161   4.485  20.501  0.00  0.00    +0.000 NA
ATOM     29  C   UNL     1       3.118   3.419  20.804  0.00  0.00    +0.000 C 
ATOM     30  H   UNL     1       2.165   5.167  21.260  0.00  0.00    +0.000 HD
ENDBRANCH  23  24
ENDBRANCH  21  23
ENDBRANCH   6  21
TORSDOF 6
ENDMDL
MODEL 7
REMARK VINA RESULT:      -7.5      3.325      6.517
REMARK  Name = 
REMARK  6 active torsions:
REMARK  status: ('A' for Active; 'I' for Inactive)
REMARK    1  A    between atoms: C_2  and  C_3
REMARK    2  A    between atoms: C_6  and  N_7
REMARK    3  A    between atoms: C_11  and  C_12
REMARK    4  A    between atoms: C_16  and  N_17
REMARK    5  A    between atoms: N_17  and  C_18
REMARK    6  A    between atoms: C_18  and  C_19
REMARK                            x       y       z     vdW  Elec       q    Type
REMARK                         _______ _______ _______ _____ _____    ______ ____
ROOT
ATOM      1  N   UNL     1       2.396   8.136  17.460  0.00  0.00    +0.000 N 
ATOM      2  C   UNL     1       3.430   7.247  17.149  0.00  0.00    +0.000 A 
ATOM      3  N   UNL     1       4.180   7.530  16.083  0.00  0.00    +0.000 NA
ATOM      4  C   UNL     1       5.208   6.694  15.847  0.00  0.00    +0.000 A 
ATOM      5  C   UNL     1       5.521   5.599  16.629  0.00  0.00    +0.000 A 
ATOM      6  C   UNL     1       4.713   5.395  17.724  0.00  0.00    +0.000 A 
ATOM      7  N   UNL     1       3.664   6.203  17.956  0.00  0.00    +0.000 NA
ATOM      8  H   UNL     1       2.547   8.959  16.887  0.00  0.00    +0.000 HD
ENDROOT
BRANCH   1  12
ATOM      9  C   UNL     1       1.076   9.023  21.302  0.00  0.00    +0.000 A 
ATOM     10  C   UNL     1       1.617   7.766  21.062  0.00  0.00    +0.000 A 
ATOM     11  C   UNL     1       2.065   7.478  19.770  0.00  0.00    +0.000 A 
ATOM     12  C   UNL     1       1.988   8.449  18.772  0.00  0.00    +0.000 A 
ATOM     13  C   UNL     1       1.414   9.673  19.126  0.00  0.00    +0.000 A 
ATOM     14  N   UNL     1       0.950   9.990  20.368  0.00  0.00    +0.000 NA
BRANCH   9  16
ATOM     15  N   UNL     1       0.137   9.686  23.636  0.00  0.00    +0.000 NA
ATOM     16  C   UNL     1       0.565   9.365  22.608  0.00  0.00    +0.000 C 
ENDBRANCH   9  16
ENDBRANCH   1  12
BRANCH   5  17
ATOM     17  C   UNL     1       6.688   4.746  16.297  0.00  0.00    +0.000 C 
ATOM     18  F   UNL     1       7.597   4.669  17.313  0.00  0.00    +0.000 F 
ATOM     19  F   UNL     1       6.368   3.456  16.004  0.00  0.00    +0.000 F 
ATOM     20  F   UNL     1       7.387   5.211  15.223  0.00  0.00    +0.000 F 
ENDBRANCH   5  17
BRANCH   6  21
ATOM     21  N   UNL     1       5.059   4.475  18.716  0.00  0.00    +0.000 N 
ATOM     22  H   UNL     1       5.502   3.623  18.389  0.00  0.00    +0.000 HD
BRANCH  21  23
ATOM     23  C   UNL     1       4.073   4.285  19.788  0.00  0.00    +0.000 C 
BRANCH  23  24
ATOM     24  C   UNL     1       3.337   2.944  19.611  0.00  0.00    +0.000 C 
ATOM     25  C   UNL     1       1.867   3.105  19.190  0.00  0.00    +0.000 C 
ATOM     26  C   UNL     1       0.997   3.627  20.333  0.00  0.00    +0.000 C 
ATOM     27  C   UNL     1       1.201   2.816  21.611  0.00  0.00    +0.000 C 
ATOM     28  N   UNL     1       2.614   2.745  21.982  0.00  0.00    +0.000 NA
ATOM     29  C   UNL     1       3.410   2.131  20.917  0.00  0.00    +0.000 C 
ATOM     30  H   UNL     1       2.715   2.197  22.837  0.00  0.00    +0.000 HD
ENDBRANCH  23  24
ENDBRANCH  21  23
ENDBRANCH   6  21
TORSDOF 6
ENDMDL
MODEL 8
REMARK VINA RESULT:      -7.5      2.200      5.987
REMARK  Name = 
REMARK  6 active torsions:
REMARK  status: ('A' for Active; 'I' for Inactive)
REMARK    1  A    between atoms: C_2  and  C_3
REMARK    2  A    between atoms: C_6  and  N_7
REMARK    3  A    between atoms: C_11  and  C_12
REMARK    4  A    between atoms: C_16  and  N_17
REMARK    5  A    between atoms: N_17  and  C_18
REMARK    6  A    between atoms: C_18  and  C_19
REMARK                            x       y       z     vdW  Elec       q    Type
REMARK                         _______ _______ _______ _____ _____    ______ ____
ROOT
ATOM      1  N   UNL     1       1.340   7.132  21.307  0.00  0.00    +0.000 N 
ATOM      2  C   UNL     1       1.740   6.088  20.466  0.00  0.00    +0.000 A 
ATOM      3  N   UNL     1       1.188   4.892  20.670  0.00  0.00    +0.000 NA
ATOM      4  C   UNL     1       1.542   3.924  19.805  0.00  0.00    +0.000 A 
ATOM      5  C   UNL     1       2.413   4.101  18.747  0.00  0.00    +0.000 A 
ATOM      6  C   UNL     1       2.916   5.372  18.592  0.00  0.00    +0.000 A 
ATOM      7  N   UNL     1       2.596   6.342  19.467  0.00  0.00    +0.000 NA
ATOM      8  H   UNL     1       0.530   6.793  21.814  0.00  0.00    +0.000 HD
ENDROOT
BRANCH   1  12
ATOM      9  C   UNL     1       1.074  11.105  20.107  0.00  0.00    +0.000 A 
ATOM     10  C   UNL     1       1.173  10.123  19.128  0.00  0.00    +0.000 A 
ATOM     11  C   UNL     1       1.254   8.789  19.540  0.00  0.00    +0.000 A 
ATOM     12  C   UNL     1       1.208   8.473  20.897  0.00  0.00    +0.000 A 
ATOM     13  C   UNL     1       1.120   9.545  21.790  0.00  0.00    +0.000 A 
ATOM     14  N   UNL     1       1.054  10.858  21.435  0.00  0.00    +0.000 NA
BRANCH   9  16
ATOM     15  N   UNL     1       0.999  13.608  19.404  0.00  0.00    +0.000 NA
ATOM     16  C   UNL     1       1.021  12.500  19.743  0.00  0.00    +0.000 C 
ENDBRANCH   9  16
ENDBRANCH   1  12
BRANCH   5  17
ATOM     17  C   UNL     1       2.727   2.975  17.835  0.00  0.00    +0.000 C 
ATOM     18  F   UNL     1       1.893   1.907  18.001  0.00  0.00    +0.000 F 
ATOM     19  F   UNL     1       2.645   3.291  16.514  0.00  0.00    +0.000 F 
ATOM     20  F   UNL     1       3.983   2.482  18.025  0.00  0.00    +0.000 F 
ENDBRANCH   5  17
BRANCH   6  21
ATOM     21  N   UNL     1       3.612   5.738  17.439  0.00  0.00    +0.000 N 
ATOM     22  H   UNL     1       3.943   4.971  16.864  0.00  0.00    +0.000 HD
BRANCH  21  23
ATOM     23  C   UNL     1       4.559   6.852  17.586  0.00  0.00    +0.000 C 
BRANCH  23  24
ATOM     24  C   UNL     1       5.676   6.752  16.531  0.00  0.00    +0.000 C 
ATOM     25  C   UNL     1       5.685   5.412  15.777  0.00  0.00    +0.000 C 
ATOM     26  C   UNL     1       6.177   4.263  16.656  0.00  0.00    +0.000 C 
ATOM     27  C   UNL     1       7.496   4.607  17.345  0.00  0.00    +0.000 C 
ATOM     28  N   UNL     1       7.404   5.866  18.085  0.00  0.00    +0.000 NA
ATOM     29  C   UNL     1       7.046   6.974  17.197  0.00  0.00    +0.000 C 
ATOM     30  H   UNL     1       8.299   6.066  18.530  0.00  0.00    +0.000 HD
ENDBRANCH  23  24
ENDBRANCH  21  23
ENDBRANCH   6  21
TORSDOF 6
ENDMDL
MODEL 9
REMARK VINA RESULT:      -7.5      2.991      6.707
REMARK  Name = 
REMARK  6 active torsions:
REMARK  status: ('A' for Active; 'I' for Inactive)
REMARK    1  A    between atoms: C_2  and  C_3
REMARK    2  A    between atoms: C_6  and  N_7
REMARK    3  A    between atoms: C_11  and  C_12
REMARK    4  A    between atoms: C_16  and  N_17
REMARK    5  A    between atoms: N_17  and  C_18
REMARK    6  A    between atoms: C_18  and  C_19
REMARK                            x       y       z     vdW  Elec       q    Type
REMARK                         _______ _______ _______ _____ _____    ______ ____
ROOT
ATOM      1  N   UNL     1       1.693   8.938  17.850  0.00  0.00    +0.000 N 
ATOM      2  C   UNL     1       2.658   7.926  17.860  0.00  0.00    +0.000 A 
ATOM      3  N   UNL     1       3.572   7.942  16.888  0.00  0.00    +0.000 NA
ATOM      4  C   UNL     1       4.526   6.996  16.961  0.00  0.00    +0.000 A 
ATOM      5  C   UNL     1       4.612   6.046  17.961  0.00  0.00    +0.000 A 
ATOM      6  C   UNL     1       3.645   6.118  18.939  0.00  0.00    +0.000 A 
ATOM      7  N   UNL     1       2.668   7.037  18.863  0.00  0.00    +0.000 NA
ATOM      8  H   UNL     1       2.007   9.623  17.171  0.00  0.00    +0.000 HD
ENDROOT
BRANCH   1  12
ATOM      9  C   UNL     1      -0.030  10.622  21.239  0.00  0.00    +0.000 A 
ATOM     10  C   UNL     1       0.546   9.362  21.346  0.00  0.00    +0.000 A 
ATOM     11  C   UNL     1       1.130   8.806  20.204  0.00  0.00    +0.000 A 
ATOM     12  C   UNL     1       1.147   9.524  19.008  0.00  0.00    +0.000 A 
ATOM     13  C   UNL     1       0.526  10.776  19.017  0.00  0.00    +0.000 A 
ATOM     14  N   UNL     1      -0.068  11.349  20.101  0.00  0.00    +0.000 NA
BRANCH   9  16
ATOM     15  N   UNL     1      -1.172  11.687  23.320  0.00  0.00    +0.000 NA
ATOM     16  C   UNL     1      -0.678  11.232  22.375  0.00  0.00    +0.000 C 
ENDBRANCH   9  16
ENDBRANCH   1  12
BRANCH   5  17
ATOM     17  C   UNL     1       5.714   5.055  17.965  0.00  0.00    +0.000 C 
ATOM     18  F   UNL     1       5.304   3.801  17.614  0.00  0.00    +0.000 F 
ATOM     19  F   UNL     1       6.730   5.351  17.110  0.00  0.00    +0.000 F 
ATOM     20  F   UNL     1       6.288   4.915  19.194  0.00  0.00    +0.000 F 
ENDBRANCH   5  17
BRANCH   6  21
ATOM     21  N   UNL     1       3.753   5.376  20.117  0.00  0.00    +0.000 N 
ATOM     22  H   UNL     1       4.516   4.709  20.147  0.00  0.00    +0.000 HD
BRANCH  21  23
ATOM     23  C   UNL     1       2.490   4.895  20.691  0.00  0.00    +0.000 C 
BRANCH  23  24
ATOM     24  C   UNL     1       2.527   3.366  20.869  0.00  0.00    +0.000 C 
ATOM     25  C   UNL     1       3.154   2.627  19.676  0.00  0.00    +0.000 C 
ATOM     26  C   UNL     1       2.238   2.633  18.453  0.00  0.00    +0.000 C 
ATOM     27  C   UNL     1       0.825   2.174  18.806  0.00  0.00    +0.000 C 
ATOM     28  N   UNL     1       0.269   2.950  19.915  0.00  0.00    +0.000 NA
ATOM     29  C   UNL     1       1.104   2.833  21.112  0.00  0.00    +0.000 C 
ATOM     30  H   UNL     1      -0.672   2.618  20.125  0.00  0.00    +0.000 HD
ENDBRANCH  23  24
ENDBRANCH  21  23
ENDBRANCH   6  21
TORSDOF 6
ENDMDL
