MODEL 1
REMARK VINA RESULT:      -7.4      0.000      0.000
REMARK  Name = 
REMARK  11 active torsions:
REMARK  status: ('A' for Active; 'I' for Inactive)
REMARK    1  A    between atoms: C_1  and  O_2
REMARK    2  A    between atoms: O_2  and  C_3
REMARK    3  A    between atoms: C_3  and  C_4
REMARK    4  A    between atoms: C_4  and  C_5
REMARK    5  A    between atoms: C_5  and  N_6
REMARK    6  A    between atoms: C_9  and  C_10
REMARK    7  A    between atoms: C_10  and  N_11
REMARK    8  A    between atoms: C_12  and  C_14
REMARK    9  A    between atoms: C_20  and  C_21
REMARK   10  A    between atoms: C_21  and  C_22
REMARK   11  A    between atoms: C_21  and  C_23
REMARK                            x       y       z     vdW  Elec       q    Type
REMARK                         _______ _______ _______ _____ _____    ______ ____
ROOT
ATOM      1  N   UNL     1       2.021   7.039  20.343  0.00  0.00    +0.000 N 
ATOM      2  C   UNL     1       2.329   7.080  19.007  0.00  0.00    +0.000 C 
ATOM      3  O   UNL     1       2.337   8.113  18.343  0.00  0.00    +0.000 OA
ATOM      4  H   UNL     1       2.058   6.136  20.817  0.00  0.00    +0.000 HD
ENDROOT
BRANCH   2   5
ATOM      5  C   UNL     1       2.667   5.752  18.405  0.00  0.00    +0.000 A 
ATOM      6  C   UNL     1       1.666   4.910  18.077  0.00  0.00    +0.000 A 
ATOM      7  C   UNL     1       1.985   3.632  17.457  0.00  0.00    +0.000 A 
ATOM      8  C   UNL     1       3.253   3.279  17.173  0.00  0.00    +0.000 A 
ATOM      9  C   UNL     1       4.317   4.164  17.504  0.00  0.00    +0.000 A 
ATOM     10  C   UNL     1       5.680   4.167  17.321  0.00  0.00    +0.000 A 
ATOM     11  C   UNL     1       6.126   5.382  17.885  0.00  0.00    +0.000 A 
ATOM     12  N   UNL     1       5.120   6.066  18.429  0.00  0.00    +0.000 NA
ATOM     13  N   UNL     1       3.989   5.365  18.139  0.00  0.00    +0.000 N 
BRANCH  11  14
ATOM     14  C   UNL     1       7.507   5.971  17.923  0.00  0.00    +0.000 C 
ATOM     15  C   UNL     1       7.483   7.455  17.532  0.00  0.00    +0.000 C 
ATOM     16  C   UNL     1       8.155   5.809  19.300  0.00  0.00    +0.000 C 
ENDBRANCH  11  14
ENDBRANCH   2   5
BRANCH   1  17
ATOM     17  C   UNL     1       1.685   8.183  21.142  0.00  0.00    +0.000 C 
BRANCH  17  21
ATOM     18  N   UNL     1      -0.297  11.084  22.991  0.00  0.00    +0.000 NA
ATOM     19  C   UNL     1      -0.113   9.679  23.433  0.00  0.00    +0.000 C 
ATOM     20  C   UNL     1      -0.604   8.881  22.264  0.00  0.00    +0.000 C 
ATOM     21  C   UNL     1       0.217   8.396  21.094  0.00  0.00    +0.000 C 
ATOM     22  C   UNL     1      -0.436   9.756  21.055  0.00  0.00    +0.000 C 
ATOM     23  C   UNL     1       0.129  11.053  21.565  0.00  0.00    +0.000 C 
BRANCH  18  24
ATOM     24  C   UNL     1      -1.720  11.517  23.059  0.00  0.00    +0.000 C 
BRANCH  24  25
ATOM     25  C   UNL     1      -1.931  13.034  23.167  0.00  0.00    +0.000 C 
BRANCH  25  26
ATOM     26  C   UNL     1      -3.332  13.447  22.711  0.00  0.00    +0.000 C 
BRANCH  26  28
ATOM     27  C   UNL     1      -4.378  13.110  20.616  0.00  0.00    +0.000 C 
ATOM     28  O   UNL     1      -3.820  12.491  21.767  0.00  0.00    +0.000 OA
ENDBRANCH  26  28
ENDBRANCH  25  26
ENDBRANCH  24  25
ENDBRANCH  18  24
ENDBRANCH  17  21
ENDBRANCH   1  17
TORSDOF 8
ENDMDL
MODEL 2
REMARK VINA RESULT:      -7.4      2.471      3.151
REMARK  Name = 
REMARK  11 active torsions:
REMARK  status: ('A' for Active; 'I' for Inactive)
REMARK    1  A    between atoms: C_1  and  O_2
REMARK    2  A    between atoms: O_2  and  C_3
REMARK    3  A    between atoms: C_3  and  C_4
REMARK    4  A    between atoms: C_4  and  C_5
REMARK    5  A    between atoms: C_5  and  N_6
REMARK    6  A    between atoms: C_9  and  C_10
REMARK    7  A    between atoms: C_10  and  N_11
REMARK    8  A    between atoms: C_12  and  C_14
REMARK    9  A    between atoms: C_20  and  C_21
REMARK   10  A    between atoms: C_21  and  C_22
REMARK   11  A    between atoms: C_21  and  C_23
REMARK                            x       y       z     vdW  Elec       q    Type
REMARK                         _______ _______ _______ _____ _____    ______ ____
ROOT
ATOM      1  N   UNL     1       1.607   7.446  21.190  0.00  0.00    +0.000 N 
ATOM      2  C   UNL     1       2.088   7.009  19.982  0.00  0.00    +0.000 C 
ATOM      3  O   UNL     1       2.436   7.761  19.077  0.00  0.00    +0.000 OA
ATOM      4  H   UNL     1       1.359   6.747  21.891  0.00  0.00    +0.000 HD
ENDROOT
BRANCH   2   5
ATOM      5  C   UNL     1       2.166   5.521  19.846  0.00  0.00    +0.000 A 
ATOM      6  C   UNL     1       1.294   4.755  20.533  0.00  0.00    +0.000 A 
ATOM      7  C   UNL     1       1.339   3.308  20.378  0.00  0.00    +0.000 A 
ATOM      8  C   UNL     1       2.210   2.713  19.542  0.00  0.00    +0.000 A 
ATOM      9  C   UNL     1       3.128   3.510  18.804  0.00  0.00    +0.000 A 
ATOM     10  C   UNL     1       4.088   3.266  17.848  0.00  0.00    +0.000 A 
ATOM     11  C   UNL     1       4.618   4.534  17.526  0.00  0.00    +0.000 A 
ATOM     12  N   UNL     1       4.065   5.497  18.263  0.00  0.00    +0.000 NA
ATOM     13  N   UNL     1       3.095   4.893  19.003  0.00  0.00    +0.000 N 
BRANCH  11  14
ATOM     14  C   UNL     1       5.647   4.909  16.498  0.00  0.00    +0.000 C 
ATOM     15  C   UNL     1       5.847   3.777  15.481  0.00  0.00    +0.000 C 
ATOM     16  C   UNL     1       5.275   6.202  15.768  0.00  0.00    +0.000 C 
ENDBRANCH  11  14
ENDBRANCH   2   5
BRANCH   1  17
ATOM     17  C   UNL     1       1.459   8.825  21.562  0.00  0.00    +0.000 C 
BRANCH  17  21
ATOM     18  N   UNL     1       0.080  11.779  19.296  0.00  0.00    +0.000 NA
ATOM     19  C   UNL     1       0.358  11.801  20.754  0.00  0.00    +0.000 C 
ATOM     20  C   UNL     1      -0.437  10.644  21.277  0.00  0.00    +0.000 C 
ATOM     21  C   UNL     1       0.035   9.217  21.423  0.00  0.00    +0.000 C 
ATOM     22  C   UNL     1      -0.589   9.684  20.131  0.00  0.00    +0.000 C 
ATOM     23  C   UNL     1       0.108  10.328  18.964  0.00  0.00    +0.000 C 
BRANCH  18  24
ATOM     24  C   UNL     1      -1.268  12.322  18.970  0.00  0.00    +0.000 C 
BRANCH  24  25
ATOM     25  C   UNL     1      -1.875  11.801  17.659  0.00  0.00    +0.000 C 
BRANCH  25  26
ATOM     26  C   UNL     1      -3.350  11.431  17.823  0.00  0.00    +0.000 C 
BRANCH  26  28
ATOM     27  C   UNL     1      -2.872  10.894  15.569  0.00  0.00    +0.000 C 
ATOM     28  O   UNL     1      -3.885  11.056  16.552  0.00  0.00    +0.000 OA
ENDBRANCH  26  28
ENDBRANCH  25  26
ENDBRANCH  24  25
ENDBRANCH  18  24
ENDBRANCH  17  21
ENDBRANCH   1  17
TORSDOF 8
ENDMDL
MODEL 3
REMARK VINA RESULT:      -7.2      1.535      1.876
REMARK  Name = 
REMARK  11 active torsions:
REMARK  status: ('A' for Active; 'I' for Inactive)
REMARK    1  A    between atoms: C_1  and  O_2
REMARK    2  A    between atoms: O_2  and  C_3
REMARK    3  A    between atoms: C_3  and  C_4
REMARK    4  A    between atoms: C_4  and  C_5
REMARK    5  A    between atoms: C_5  and  N_6
REMARK    6  A    between atoms: C_9  and  C_10
REMARK    7  A    between atoms: C_10  and  N_11
REMARK    8  A    between atoms: C_12  and  C_14
REMARK    9  A    between atoms: C_20  and  C_21
REMARK   10  A    between atoms: C_21  and  C_22
REMARK   11  A    between atoms: C_21  and  C_23
REMARK                            x       y       z     vdW  Elec       q    Type
REMARK                         _______ _______ _______ _____ _____    ______ ____
ROOT
ATOM      1  N   UNL     1       2.195   8.298  17.871  0.00  0.00    +0.000 N 
ATOM      2  C   UNL     1       2.344   7.327  18.828  0.00  0.00    +0.000 C 
ATOM      3  O   UNL     1       2.240   7.539  20.033  0.00  0.00    +0.000 OA
ATOM      4  H   UNL     1       2.281   8.024  16.891  0.00  0.00    +0.000 HD
ENDROOT
BRANCH   2   5
ATOM      5  C   UNL     1       2.642   5.963  18.289  0.00  0.00    +0.000 A 
ATOM      6  C   UNL     1       1.616   5.148  17.972  0.00  0.00    +0.000 A 
ATOM      7  C   UNL     1       1.897   3.833  17.412  0.00  0.00    +0.000 A 
ATOM      8  C   UNL     1       3.156   3.420  17.174  0.00  0.00    +0.000 A 
ATOM      9  C   UNL     1       4.247   4.275  17.494  0.00  0.00    +0.000 A 
ATOM     10  C   UNL     1       5.613   4.217  17.344  0.00  0.00    +0.000 A 
ATOM     11  C   UNL     1       6.094   5.435  17.869  0.00  0.00    +0.000 A 
ATOM     12  N   UNL     1       5.104   6.181  18.360  0.00  0.00    +0.000 NA
ATOM     13  N   UNL     1       3.953   5.514  18.071  0.00  0.00    +0.000 N 
BRANCH  11  14
ATOM     14  C   UNL     1       7.496   5.971  17.916  0.00  0.00    +0.000 C 
ATOM     15  C   UNL     1       7.540   7.440  17.472  0.00  0.00    +0.000 C 
ATOM     16  C   UNL     1       8.110   5.834  19.312  0.00  0.00    +0.000 C 
ENDBRANCH  11  14
ENDBRANCH   2   5
BRANCH   1  17
ATOM     17  C   UNL     1       1.885   9.674  18.140  0.00  0.00    +0.000 C 
BRANCH  17  21
ATOM     18  N   UNL     1      -0.017  11.778  20.918  0.00  0.00    +0.000 NA
ATOM     19  C   UNL     1       0.228  10.315  20.890  0.00  0.00    +0.000 C 
ATOM     20  C   UNL     1      -0.330   9.894  19.565  0.00  0.00    +0.000 C 
ATOM     21  C   UNL     1       0.414   9.829  18.253  0.00  0.00    +0.000 C 
ATOM     22  C   UNL     1      -0.269  11.105  18.678  0.00  0.00    +0.000 C 
ATOM     23  C   UNL     1       0.304  12.206  19.528  0.00  0.00    +0.000 C 
BRANCH  18  24
ATOM     24  C   UNL     1      -1.440  12.107  21.206  0.00  0.00    +0.000 C 
BRANCH  24  25
ATOM     25  C   UNL     1      -1.822  12.080  22.693  0.00  0.00    +0.000 C 
BRANCH  25  26
ATOM     26  C   UNL     1      -1.618  13.444  23.357  0.00  0.00    +0.000 C 
BRANCH  26  28
ATOM     27  C   UNL     1      -3.760  12.746  24.080  0.00  0.00    +0.000 C 
ATOM     28  O   UNL     1      -2.791  13.785  24.099  0.00  0.00    +0.000 OA
ENDBRANCH  26  28
ENDBRANCH  25  26
ENDBRANCH  24  25
ENDBRANCH  18  24
ENDBRANCH  17  21
ENDBRANCH   1  17
TORSDOF 8
ENDMDL
MODEL 4
REMARK VINA RESULT:      -7.2      1.291      1.308
REMARK  Name = 
REMARK  11 active torsions:
REMARK  status: ('A' for Active; 'I' for Inactive)
REMARK    1  A    between atoms: C_1  and  O_2
REMARK    2  A    between atoms: O_2  and  C_3
REMARK    3  A    between atoms: C_3  and  C_4
REMARK    4  A    between atoms: C_4  and  C_5
REMARK    5  A    between atoms: C_5  and  N_6
REMARK    6  A    between atoms: C_9  and  C_10
REMARK    7  A    between atoms: C_10  and  N_11
REMARK    8  A    between atoms: C_12  and  C_14
REMARK    9  A    between atoms: C_20  and  C_21
REMARK   10  A    between atoms: C_21  and  C_22
REMARK   11  A    between atoms: C_21  and  C_23
REMARK                            x       y       z     vdW  Elec       q    Type
REMARK                         _______ _______ _______ _____ _____    ______ ____
ROOT
ATOM      1  N   UNL     1       2.153   6.985  19.978  0.00  0.00    +0.000 N 
ATOM      2  C   UNL     1       2.375   5.665  20.279  0.00  0.00    +0.000 C 
ATOM      3  O   UNL     1       2.330   5.211  21.419  0.00  0.00    +0.000 OA
ATOM      4  H   UNL     1       2.193   7.268  18.999  0.00  0.00    +0.000 HD
ENDROOT
BRANCH   2   5
ATOM      5  C   UNL     1       2.675   4.800  19.095  0.00  0.00    +0.000 A 
ATOM      6  C   UNL     1       1.681   4.067  18.553  0.00  0.00    +0.000 A 
ATOM      7  C   UNL     1       1.955   3.252  17.379  0.00  0.00    +0.000 A 
ATOM      8  C   UNL     1       3.170   3.232  16.799  0.00  0.00    +0.000 A 
ATOM      9  C   UNL     1       4.224   4.008  17.355  0.00  0.00    +0.000 A 
ATOM     10  C   UNL     1       5.531   4.272  17.014  0.00  0.00    +0.000 A 
ATOM     11  C   UNL     1       6.001   5.156  18.008  0.00  0.00    +0.000 A 
ATOM     12  N   UNL     1       5.071   5.389  18.934  0.00  0.00    +0.000 NA
ATOM     13  N   UNL     1       3.948   4.748  18.508  0.00  0.00    +0.000 N 
BRANCH  11  14
ATOM     14  C   UNL     1       7.331   5.843  18.128  0.00  0.00    +0.000 C 
ATOM     15  C   UNL     1       7.253   7.287  17.614  0.00  0.00    +0.000 C 
ATOM     16  C   UNL     1       7.846   5.833  19.570  0.00  0.00    +0.000 C 
ENDBRANCH  11  14
ENDBRANCH   2   5
BRANCH   1  17
ATOM     17  C   UNL     1       1.828   8.001  20.940  0.00  0.00    +0.000 C 
BRANCH  17  21
ATOM     18  N   UNL     1      -0.088  10.887  22.878  0.00  0.00    +0.000 NA
ATOM     19  C   UNL     1       0.110   9.479  23.303  0.00  0.00    +0.000 C 
ATOM     20  C   UNL     1      -0.421   8.689  22.145  0.00  0.00    +0.000 C 
ATOM     21  C   UNL     1       0.359   8.214  20.943  0.00  0.00    +0.000 C 
ATOM     22  C   UNL     1      -0.295   9.574  20.937  0.00  0.00    +0.000 C 
ATOM     23  C   UNL     1       0.289  10.867  21.438  0.00  0.00    +0.000 C 
BRANCH  18  24
ATOM     24  C   UNL     1      -1.508  11.319  22.999  0.00  0.00    +0.000 C 
BRANCH  24  25
ATOM     25  C   UNL     1      -1.796  12.742  22.497  0.00  0.00    +0.000 C 
BRANCH  25  26
ATOM     26  C   UNL     1      -2.845  12.751  21.383  0.00  0.00    +0.000 C 
BRANCH  26  28
ATOM     27  C   UNL     1      -1.308  14.249  20.387  0.00  0.00    +0.000 C 
ATOM     28  O   UNL     1      -2.237  13.195  20.169  0.00  0.00    +0.000 OA
ENDBRANCH  26  28
ENDBRANCH  25  26
ENDBRANCH  24  25
ENDBRANCH  18  24
ENDBRANCH  17  21
ENDBRANCH   1  17
TORSDOF 8
ENDMDL
MODEL 5
REMARK VINA RESULT:      -7.1      1.835      2.303
REMARK  Name = 
REMARK  11 active torsions:
REMARK  status: ('A' for Active; 'I' for Inactive)
REMARK    1  A    between atoms: C_1  and  O_2
REMARK    2  A    between atoms: O_2  and  C_3
REMARK    3  A    between atoms: C_3  and  C_4
REMARK    4  A    between atoms: C_4  and  C_5
REMARK    5  A    between atoms: C_5  and  N_6
REMARK    6  A    between atoms: C_9  and  C_10
REMARK    7  A    between atoms: C_10  and  N_11
REMARK    8  A    between atoms: C_12  and  C_14
REMARK    9  A    between atoms: C_20  and  C_21
REMARK   10  A    between atoms: C_21  and  C_22
REMARK   11  A    between atoms: C_21  and  C_23
REMARK                            x       y       z     vdW  Elec       q    Type
REMARK                         _______ _______ _______ _____ _____    ______ ____
ROOT
ATOM      1  N   UNL     1       2.122   7.564  18.556  0.00  0.00    +0.000 N 
ATOM      2  C   UNL     1       2.181   6.803  19.695  0.00  0.00    +0.000 C 
ATOM      3  O   UNL     1       2.261   7.275  20.825  0.00  0.00    +0.000 OA
ATOM      4  H   UNL     1       2.038   7.084  17.659  0.00  0.00    +0.000 HD
ENDROOT
BRANCH   2   5
ATOM      5  C   UNL     1       2.135   5.325  19.458  0.00  0.00    +0.000 A 
ATOM      6  C   UNL     1       1.217   4.587  20.115  0.00  0.00    +0.000 A 
ATOM      7  C   UNL     1       1.140   3.156  19.862  0.00  0.00    +0.000 A 
ATOM      8  C   UNL     1       1.943   2.551  18.965  0.00  0.00    +0.000 A 
ATOM      9  C   UNL     1       2.907   3.320  18.259  0.00  0.00    +0.000 A 
ATOM     10  C   UNL     1       3.824   3.067  17.264  0.00  0.00    +0.000 A 
ATOM     11  C   UNL     1       4.450   4.307  17.013  0.00  0.00    +0.000 A 
ATOM     12  N   UNL     1       3.993   5.258  17.828  0.00  0.00    +0.000 NA
ATOM     13  N   UNL     1       2.992   4.685  18.550  0.00  0.00    +0.000 N 
BRANCH  11  14
ATOM     14  C   UNL     1       5.485   4.667  15.987  0.00  0.00    +0.000 C 
ATOM     15  C   UNL     1       5.298   6.111  15.501  0.00  0.00    +0.000 C 
ATOM     16  C   UNL     1       6.906   4.482  16.525  0.00  0.00    +0.000 C 
ENDBRANCH  11  14
ENDBRANCH   2   5
BRANCH   1  17
ATOM     17  C   UNL     1       2.129   9.000  18.529  0.00  0.00    +0.000 C 
BRANCH  17  21
ATOM     18  N   UNL     1       0.768  11.550  21.251  0.00  0.00    +0.000 NA
ATOM     19  C   UNL     1       0.665  10.069  21.256  0.00  0.00    +0.000 C 
ATOM     20  C   UNL     1       0.025   9.761  19.937  0.00  0.00    +0.000 C 
ATOM     21  C   UNL     1       0.734   9.496  18.630  0.00  0.00    +0.000 C 
ATOM     22  C   UNL     1       0.366  10.905  19.024  0.00  0.00    +0.000 C 
ATOM     23  C   UNL     1       1.180  11.860  19.854  0.00  0.00    +0.000 C 
BRANCH  18  24
ATOM     24  C   UNL     1      -0.540  12.207  21.524  0.00  0.00    +0.000 C 
BRANCH  24  25
ATOM     25  C   UNL     1      -1.156  11.878  22.892  0.00  0.00    +0.000 C 
BRANCH  25  26
ATOM     26  C   UNL     1      -2.306  12.826  23.240  0.00  0.00    +0.000 C 
BRANCH  26  28
ATOM     27  C   UNL     1      -4.490  12.822  24.149  0.00  0.00    +0.000 C 
ATOM     28  O   UNL     1      -3.487  12.061  23.491  0.00  0.00    +0.000 OA
ENDBRANCH  26  28
ENDBRANCH  25  26
ENDBRANCH  24  25
ENDBRANCH  18  24
ENDBRANCH  17  21
ENDBRANCH   1  17
TORSDOF 8
ENDMDL
MODEL 6
REMARK VINA RESULT:      -7.1      1.605      2.035
REMARK  Name = 
REMARK  11 active torsions:
REMARK  status: ('A' for Active; 'I' for Inactive)
REMARK    1  A    between atoms: C_1  and  O_2
REMARK    2  A    between atoms: O_2  and  C_3
REMARK    3  A    between atoms: C_3  and  C_4
REMARK    4  A    between atoms: C_4  and  C_5
REMARK    5  A    between atoms: C_5  and  N_6
REMARK    6  A    between atoms: C_9  and  C_10
REMARK    7  A    between atoms: C_10  and  N_11
REMARK    8  A    between atoms: C_12  and  C_14
REMARK    9  A    between atoms: C_20  and  C_21
REMARK   10  A    between atoms: C_21  and  C_22
REMARK   11  A    between atoms: C_21  and  C_23
REMARK                            x       y       z     vdW  Elec       q    Type
REMARK                         _______ _______ _______ _____ _____    ______ ____
ROOT
ATOM      1  N   UNL     1       1.651   7.048  21.016  0.00  0.00    +0.000 N 
ATOM      2  C   UNL     1       2.163   6.671  19.801  0.00  0.00    +0.000 C 
ATOM      3  O   UNL     1       2.496   7.467  18.927  0.00  0.00    +0.000 OA
ATOM      4  H   UNL     1       1.419   6.316  21.688  0.00  0.00    +0.000 HD
ENDROOT
BRANCH   2   5
ATOM      5  C   UNL     1       2.296   5.192  19.614  0.00  0.00    +0.000 A 
ATOM      6  C   UNL     1       1.466   4.371  20.290  0.00  0.00    +0.000 A 
ATOM      7  C   UNL     1       1.564   2.933  20.086  0.00  0.00    +0.000 A 
ATOM      8  C   UNL     1       2.442   2.400  19.214  0.00  0.00    +0.000 A 
ATOM      9  C   UNL     1       3.314   3.256  18.487  0.00  0.00    +0.000 A 
ATOM     10  C   UNL     1       4.265   3.081  17.507  0.00  0.00    +0.000 A 
ATOM     11  C   UNL     1       4.739   4.378  17.218  0.00  0.00    +0.000 A 
ATOM     12  N   UNL     1       4.164   5.294  17.997  0.00  0.00    +0.000 NA
ATOM     13  N   UNL     1       3.232   4.629  18.733  0.00  0.00    +0.000 N 
BRANCH  11  14
ATOM     14  C   UNL     1       5.734   4.826  16.186  0.00  0.00    +0.000 C 
ATOM     15  C   UNL     1       5.949   3.742  15.121  0.00  0.00    +0.000 C 
ATOM     16  C   UNL     1       5.303   6.133  15.514  0.00  0.00    +0.000 C 
ENDBRANCH  11  14
ENDBRANCH   2   5
BRANCH   1  17
ATOM     17  C   UNL     1       1.450   8.406  21.435  0.00  0.00    +0.000 C 
BRANCH  17  21
ATOM     18  N   UNL     1      -0.424  11.654  22.738  0.00  0.00    +0.000 NA
ATOM     19  C   UNL     1      -0.586  10.257  23.210  0.00  0.00    +0.000 C 
ATOM     20  C   UNL     1      -0.899   9.500  21.955  0.00  0.00    +0.000 C 
ATOM     21  C   UNL     1       0.093   8.847  21.024  0.00  0.00    +0.000 C 
ATOM     22  C   UNL     1      -0.300  10.289  20.826  0.00  0.00    +0.000 C 
ATOM     23  C   UNL     1       0.327  11.501  21.461  0.00  0.00    +0.000 C 
BRANCH  18  24
ATOM     24  C   UNL     1      -1.731  12.309  22.452  0.00  0.00    +0.000 C 
BRANCH  24  25
ATOM     25  C   UNL     1      -2.805  12.109  23.531  0.00  0.00    +0.000 C 
BRANCH  25  26
ATOM     26  C   UNL     1      -4.013  13.022  23.308  0.00  0.00    +0.000 C 
BRANCH  26  28
ATOM     27  C   UNL     1      -6.327  12.987  23.799  0.00  0.00    +0.000 C 
ATOM     28  O   UNL     1      -5.207  12.239  23.345  0.00  0.00    +0.000 OA
ENDBRANCH  26  28
ENDBRANCH  25  26
ENDBRANCH  24  25
ENDBRANCH  18  24
ENDBRANCH  17  21
ENDBRANCH   1  17
TORSDOF 8
ENDMDL
MODEL 7
REMARK VINA RESULT:      -7.1      5.394      9.013
REMARK  Name = 
REMARK  11 active torsions:
REMARK  status: ('A' for Active; 'I' for Inactive)
REMARK    1  A    between atoms: C_1  and  O_2
REMARK    2  A    between atoms: O_2  and  C_3
REMARK    3  A    between atoms: C_3  and  C_4
REMARK    4  A    between atoms: C_4  and  C_5
REMARK    5  A    between atoms: C_5  and  N_6
REMARK    6  A    between atoms: C_9  and  C_10
REMARK    7  A    between atoms: C_10  and  N_11
REMARK    8  A    between atoms: C_12  and  C_14
REMARK    9  A    between atoms: C_20  and  C_21
REMARK   10  A    between atoms: C_21  and  C_22
REMARK   11  A    between atoms: C_21  and  C_23
REMARK                            x       y       z     vdW  Elec       q    Type
REMARK                         _______ _______ _______ _____ _____    ______ ____
ROOT
ATOM      1  N   UNL     1       7.957   7.867  18.011  0.00  0.00    +0.000 N 
ATOM      2  C   UNL     1       7.643   6.572  18.336  0.00  0.00    +0.000 C 
ATOM      3  O   UNL     1       8.103   5.985  19.312  0.00  0.00    +0.000 OA
ATOM      4  H   UNL     1       7.511   8.278  17.191  0.00  0.00    +0.000 HD
ENDROOT
BRANCH   2   5
ATOM      5  C   UNL     1       6.677   5.913  17.402  0.00  0.00    +0.000 A 
ATOM      6  C   UNL     1       7.024   5.755  16.108  0.00  0.00    +0.000 A 
ATOM      7  C   UNL     1       6.106   5.082  15.201  0.00  0.00    +0.000 A 
ATOM      8  C   UNL     1       4.929   4.583  15.626  0.00  0.00    +0.000 A 
ATOM      9  C   UNL     1       4.557   4.734  16.990  0.00  0.00    +0.000 A 
ATOM     10  C   UNL     1       3.499   4.320  17.768  0.00  0.00    +0.000 A 
ATOM     11  C   UNL     1       3.780   4.808  19.062  0.00  0.00    +0.000 A 
ATOM     12  N   UNL     1       4.907   5.520  19.083  0.00  0.00    +0.000 NA
ATOM     13  N   UNL     1       5.435   5.422  17.832  0.00  0.00    +0.000 N 
BRANCH  11  14
ATOM     14  C   UNL     1       3.022   4.613  20.344  0.00  0.00    +0.000 C 
ATOM     15  C   UNL     1       1.837   5.583  20.436  0.00  0.00    +0.000 C 
ATOM     16  C   UNL     1       2.526   3.173  20.496  0.00  0.00    +0.000 C 
ENDBRANCH  11  14
ENDBRANCH   2   5
BRANCH   1  17
ATOM     17  C   UNL     1       8.842   8.709  18.765  0.00  0.00    +0.000 C 
BRANCH  17  21
ATOM     18  N   UNL     1      10.670  11.868  20.328  0.00  0.00    +0.000 NA
ATOM     19  C   UNL     1       9.305  11.366  20.622  0.00  0.00    +0.000 C 
ATOM     20  C   UNL     1       8.661  11.297  19.271  0.00  0.00    +0.000 C 
ATOM     21  C   UNL     1       8.662  10.117  18.330  0.00  0.00    +0.000 C 
ATOM     22  C   UNL     1       9.777  11.131  18.279  0.00  0.00    +0.000 C 
ATOM     23  C   UNL     1      11.046  11.132  19.089  0.00  0.00    +0.000 C 
BRANCH  18  24
ATOM     24  C   UNL     1      10.685  13.330  20.043  0.00  0.00    +0.000 C 
BRANCH  24  25
ATOM     25  C   UNL     1      11.934  13.832  19.304  0.00  0.00    +0.000 C 
BRANCH  25  26
ATOM     26  C   UNL     1      11.596  14.935  18.300  0.00  0.00    +0.000 C 
BRANCH  26  28
ATOM     27  C   UNL     1      12.333  13.431  16.629  0.00  0.00    +0.000 C 
ATOM     28  O   UNL     1      11.320  14.345  17.028  0.00  0.00    +0.000 OA
ENDBRANCH  26  28
ENDBRANCH  25  26
ENDBRANCH  24  25
ENDBRANCH  18  24
ENDBRANCH  17  21
ENDBRANCH   1  17
TORSDOF 8
ENDMDL
MODEL 8
REMARK VINA RESULT:      -7.1      2.561      2.978
REMARK  Name = 
REMARK  11 active torsions:
REMARK  status: ('A' for Active; 'I' for Inactive)
REMARK    1  A    between atoms: C_1  and  O_2
REMARK    2  A    between atoms: O_2  and  C_3
REMARK    3  A    between atoms: C_3  and  C_4
REMARK    4  A    between atoms: C_4  and  C_5
REMARK    5  A    between atoms: C_5  and  N_6
REMARK    6  A    between atoms: C_9  and  C_10
REMARK    7  A    between atoms: C_10  and  N_11
REMARK    8  A    between atoms: C_12  and  C_14
REMARK    9  A    between atoms: C_20  and  C_21
REMARK   10  A    between atoms: C_21  and  C_22
REMARK   11  A    between atoms: C_21  and  C_23
REMARK                            x       y       z     vdW  Elec       q    Type
REMARK                         _______ _______ _______ _____ _____    ______ ____
ROOT
ATOM      1  N   UNL     1       1.590   7.291  21.043  0.00  0.00    +0.000 N 
ATOM      2  C   UNL     1       2.124   6.812  19.873  0.00  0.00    +0.000 C 
ATOM      3  O   UNL     1       2.578   7.531  18.988  0.00  0.00    +0.000 OA
ATOM      4  H   UNL     1       1.253   6.616  21.730  0.00  0.00    +0.000 HD
ENDROOT
BRANCH   2   5
ATOM      5  C   UNL     1       2.120   5.320  19.754  0.00  0.00    +0.000 A 
ATOM      6  C   UNL     1       1.173   4.615  20.406  0.00  0.00    +0.000 A 
ATOM      7  C   UNL     1       1.138   3.166  20.265  0.00  0.00    +0.000 A 
ATOM      8  C   UNL     1       2.010   2.511  19.475  0.00  0.00    +0.000 A 
ATOM      9  C   UNL     1       3.006   3.244  18.773  0.00  0.00    +0.000 A 
ATOM     10  C   UNL     1       3.993   2.934  17.865  0.00  0.00    +0.000 A 
ATOM     11  C   UNL     1       4.611   4.164  17.556  0.00  0.00    +0.000 A 
ATOM     12  N   UNL     1       4.084   5.167  18.260  0.00  0.00    +0.000 NA
ATOM     13  N   UNL     1       3.047   4.629  18.959  0.00  0.00    +0.000 N 
BRANCH  11  14
ATOM     14  C   UNL     1       5.706   4.466  16.574  0.00  0.00    +0.000 C 
ATOM     15  C   UNL     1       5.376   5.718  15.750  0.00  0.00    +0.000 C 
ATOM     16  C   UNL     1       7.058   4.647  17.270  0.00  0.00    +0.000 C 
ENDBRANCH  11  14
ENDBRANCH   2   5
BRANCH   1  17
ATOM     17  C   UNL     1       1.503   8.680  21.394  0.00  0.00    +0.000 C 
BRANCH  17  21
ATOM     18  N   UNL     1       0.836  12.100  19.492  0.00  0.00    +0.000 NA
ATOM     19  C   UNL     1       0.733  11.831  20.948  0.00  0.00    +0.000 C 
ATOM     20  C   UNL     1      -0.203  10.664  21.020  0.00  0.00    +0.000 C 
ATOM     21  C   UNL     1       0.173   9.202  20.992  0.00  0.00    +0.000 C 
ATOM     22  C   UNL     1      -0.086   9.946  19.706  0.00  0.00    +0.000 C 
ATOM     23  C   UNL     1       0.905  10.737  18.895  0.00  0.00    +0.000 C 
BRANCH  18  24
ATOM     24  C   UNL     1      -0.368  12.798  18.960  0.00  0.00    +0.000 C 
BRANCH  24  25
ATOM     25  C   UNL     1      -0.704  14.127  19.653  0.00  0.00    +0.000 C 
BRANCH  25  26
ATOM     26  C   UNL     1       0.285  15.231  19.274  0.00  0.00    +0.000 C 
BRANCH  26  28
ATOM     27  C   UNL     1      -1.134  17.099  18.965  0.00  0.00    +0.000 C 
ATOM     28  O   UNL     1      -0.331  16.111  18.332  0.00  0.00    +0.000 OA
ENDBRANCH  26  28
ENDBRANCH  25  26
ENDBRANCH  24  25
ENDBRANCH  18  24
ENDBRANCH  17  21
ENDBRANCH   1  17
TORSDOF 8
ENDMDL
MODEL 9
REMARK VINA RESULT:      -7.0      3.366      5.732
REMARK  Name = 
REMARK  11 active torsions:
REMARK  status: ('A' for Active; 'I' for Inactive)
REMARK    1  A    between atoms: C_1  and  O_2
REMARK    2  A    between atoms: O_2  and  C_3
REMARK    3  A    between atoms: C_3  and  C_4
REMARK    4  A    between atoms: C_4  and  C_5
REMARK    5  A    between atoms: C_5  and  N_6
REMARK    6  A    between atoms: C_9  and  C_10
REMARK    7  A    between atoms: C_10  and  N_11
REMARK    8  A    between atoms: C_12  and  C_14
REMARK    9  A    between atoms: C_20  and  C_21
REMARK   10  A    between atoms: C_21  and  C_22
REMARK   11  A    between atoms: C_21  and  C_23
REMARK                            x       y       z     vdW  Elec       q    Type
REMARK                         _______ _______ _______ _____ _____    ______ ____
ROOT
ATOM      1  N   UNL     1       3.763   3.268  17.797  0.00  0.00    +0.000 N 
ATOM      2  C   UNL     1       4.891   3.468  18.551  0.00  0.00    +0.000 C 
ATOM      3  O   UNL     1       5.142   2.844  19.578  0.00  0.00    +0.000 OA
ATOM      4  H   UNL     1       3.648   3.822  16.947  0.00  0.00    +0.000 HD
ENDROOT
BRANCH   2   5
ATOM      5  C   UNL     1       5.815   4.519  18.020  0.00  0.00    +0.000 A 
ATOM      6  C   UNL     1       6.380   5.389  18.883  0.00  0.00    +0.000 A 
ATOM      7  C   UNL     1       7.309   6.390  18.380  0.00  0.00    +0.000 A 
ATOM      8  C   UNL     1       7.645   6.453  17.077  0.00  0.00    +0.000 A 
ATOM      9  C   UNL     1       7.065   5.535  16.159  0.00  0.00    +0.000 A 
ATOM     10  C   UNL     1       7.207   5.271  14.816  0.00  0.00    +0.000 A 
ATOM     11  C   UNL     1       6.330   4.197  14.556  0.00  0.00    +0.000 A 
ATOM     12  N   UNL     1       5.649   3.846  15.647  0.00  0.00    +0.000 NA
ATOM     13  N   UNL     1       6.142   4.611  16.659  0.00  0.00    +0.000 N 
BRANCH  11  14
ATOM     14  C   UNL     1       6.103   3.432  13.283  0.00  0.00    +0.000 C 
ATOM     15  C   UNL     1       4.671   3.633  12.768  0.00  0.00    +0.000 C 
ATOM     16  C   UNL     1       7.105   3.829  12.197  0.00  0.00    +0.000 C 
ENDBRANCH  11  14
ENDBRANCH   2   5
BRANCH   1  17
ATOM     17  C   UNL     1       2.742   2.302  18.091  0.00  0.00    +0.000 C 
BRANCH  17  21
ATOM     18  N   UNL     1       2.281   5.551  20.325  0.00  0.00    +0.000 NA
ATOM     19  C   UNL     1       2.036   4.138  20.708  0.00  0.00    +0.000 C 
ATOM     20  C   UNL     1       1.091   3.651  19.652  0.00  0.00    +0.000 C 
ATOM     21  C   UNL     1       1.460   3.009  18.337  0.00  0.00    +0.000 C 
ATOM     22  C   UNL     1       1.332   4.508  18.442  0.00  0.00    +0.000 C 
ATOM     23  C   UNL     1       2.401   5.489  18.843  0.00  0.00    +0.000 C 
BRANCH  18  24
ATOM     24  C   UNL     1       1.139   6.439  20.679  0.00  0.00    +0.000 C 
BRANCH  24  25
ATOM     25  C   UNL     1       1.535   7.843  21.159  0.00  0.00    +0.000 C 
BRANCH  25  26
ATOM     26  C   UNL     1       1.050   8.930  20.198  0.00  0.00    +0.000 C 
BRANCH  26  28
ATOM     27  C   UNL     1       1.555   9.923  18.111  0.00  0.00    +0.000 C 
ATOM     28  O   UNL     1       1.723   8.785  18.946  0.00  0.00    +0.000 OA
ENDBRANCH  26  28
ENDBRANCH  25  26
ENDBRANCH  24  25
ENDBRANCH  18  24
ENDBRANCH  17  21
ENDBRANCH   1  17
TORSDOF 8
ENDMDL
