MODEL 1
REMARK VINA RESULT:      -8.2      0.000      0.000
REMARK  Name = 
REMARK  8 active torsions:
REMARK  status: ('A' for Active; 'I' for Inactive)
REMARK    1  A    between atoms: C_1  and  O_2
REMARK    2  A    between atoms: O_2  and  C_3
REMARK    3  A    between atoms: C_6  and  O_7
REMARK    4  A    between atoms: O_7  and  C_8
REMARK    5  A    between atoms: C_9  and  N_10
REMARK    6  A    between atoms: C_11  and  C_13
REMARK    7  A    between atoms: C_13  and  N_14
REMARK    8  A    between atoms: C_20  and  C_21
REMARK                            x       y       z     vdW  Elec       q    Type
REMARK                         _______ _______ _______ _____ _____    ______ ____
ROOT
ATOM      1  N   UNL     1       1.182   9.276  19.144  0.00  0.00    +0.000 N 
ATOM      2  C   UNL     1       0.711   9.007  20.421  0.00  0.00    +0.000 A 
ATOM      3  N   UNL     1       1.015   7.964  21.126  0.00  0.00    +0.000 NA
ATOM      4  C   UNL     1       1.854   7.112  20.500  0.00  0.00    +0.000 A 
ATOM      5  O   UNL     1       2.283   5.931  21.026  0.00  0.00    +0.000 OA
ATOM      6  N   UNL     1       3.090   5.277  20.113  0.00  0.00    +0.000 NA
ATOM      7  C   UNL     1       3.167   6.072  19.030  0.00  0.00    +0.000 A 
ATOM      8  C   UNL     1       2.411   7.251  19.253  0.00  0.00    +0.000 A 
ATOM      9  C   UNL     1       2.094   8.437  18.506  0.00  0.00    +0.000 A 
ATOM     10  O   UNL     1       2.592   8.722  17.419  0.00  0.00    +0.000 OA
ENDROOT
BRANCH   7  11
ATOM     11  C   UNL     1       3.912   5.639  17.848  0.00  0.00    +0.000 A 
ATOM     12  C   UNL     1       3.806   4.313  17.393  0.00  0.00    +0.000 A 
ATOM     13  C   UNL     1       4.484   3.898  16.243  0.00  0.00    +0.000 A 
ATOM     14  C   UNL     1       5.268   4.803  15.534  0.00  0.00    +0.000 A 
ATOM     15 CL   UNL     1       6.094   4.301  14.112  0.00  0.00    +0.000 Cl
ATOM     16  C   UNL     1       5.394   6.116  15.976  0.00  0.00    +0.000 A 
ATOM     17  C   UNL     1       4.732   6.525  17.138  0.00  0.00    +0.000 A 
ENDBRANCH   7  11
BRANCH   1  18
ATOM     18  C   UNL     1       0.782  10.502  18.466  0.00  0.00    +0.000 C 
BRANCH  18  20
ATOM     19  N   UNL     1      -1.487  11.399  18.432  0.00  0.00    +0.000 N 
ATOM     20  C   UNL     1      -0.674  10.358  18.011  0.00  0.00    +0.000 C 
ATOM     21  O   UNL     1      -1.032   9.315  17.470  0.00  0.00    +0.000 OA
ATOM     22  H   UNL     1      -1.115  11.964  19.191  0.00  0.00    +0.000 HD
BRANCH  19  27
ATOM     23  C   UNL     1      -5.044  12.201  19.067  0.00  0.00    +0.000 A 
ATOM     24  C   UNL     1      -5.622  12.047  17.811  0.00  0.00    +0.000 A 
ATOM     25  C   UNL     1      -4.837  11.696  16.716  0.00  0.00    +0.000 A 
ATOM     26  C   UNL     1      -3.461  11.454  16.864  0.00  0.00    +0.000 A 
ATOM     27  C   UNL     1      -2.864  11.597  18.132  0.00  0.00    +0.000 A 
ATOM     28  C   UNL     1      -3.670  11.998  19.219  0.00  0.00    +0.000 A 
BRANCH  23  30
ATOM     29  C   UNL     1      -5.448  12.562  21.384  0.00  0.00    +0.000 C 
ATOM     30  O   UNL     1      -5.930  12.547  20.048  0.00  0.00    +0.000 OA
ENDBRANCH  23  30
BRANCH  26  31
ATOM     31  O   UNL     1      -2.676  11.215  15.767  0.00  0.00    +0.000 OA
ATOM     32  C   UNL     1      -3.231  10.303  14.819  0.00  0.00    +0.000 C 
ENDBRANCH  26  31
ENDBRANCH  19  27
ENDBRANCH  18  20
ENDBRANCH   1  18
TORSDOF 6
ENDMDL
MODEL 2
REMARK VINA RESULT:      -8.0      2.372      3.549
REMARK  Name = 
REMARK  8 active torsions:
REMARK  status: ('A' for Active; 'I' for Inactive)
REMARK    1  A    between atoms: C_1  and  O_2
REMARK    2  A    between atoms: O_2  and  C_3
REMARK    3  A    between atoms: C_6  and  O_7
REMARK    4  A    between atoms: O_7  and  C_8
REMARK    5  A    between atoms: C_9  and  N_10
REMARK    6  A    between atoms: C_11  and  C_13
REMARK    7  A    between atoms: C_13  and  N_14
REMARK    8  A    between atoms: C_20  and  C_21
REMARK                            x       y       z     vdW  Elec       q    Type
REMARK                         _______ _______ _______ _____ _____    ______ ____
ROOT
ATOM      1  N   UNL     1      -0.918  11.341  19.360  0.00  0.00    +0.000 N 
ATOM      2  C   UNL     1      -0.997  12.006  20.575  0.00  0.00    +0.000 A 
ATOM      3  N   UNL     1      -0.387  11.655  21.661  0.00  0.00    +0.000 NA
ATOM      4  C   UNL     1       0.360  10.539  21.527  0.00  0.00    +0.000 A 
ATOM      5  O   UNL     1       1.060   9.956  22.539  0.00  0.00    +0.000 OA
ATOM      6  N   UNL     1       1.676   8.806  22.083  0.00  0.00    +0.000 NA
ATOM      7  C   UNL     1       1.362   8.694  20.779  0.00  0.00    +0.000 A 
ATOM      8  C   UNL     1       0.546   9.788  20.393  0.00  0.00    +0.000 A 
ATOM      9  C   UNL     1      -0.106  10.222  19.187  0.00  0.00    +0.000 A 
ATOM     10  O   UNL     1       0.047   9.690  18.090  0.00  0.00    +0.000 OA
ENDROOT
BRANCH   7  11
ATOM     11  C   UNL     1       1.819   7.539  20.005  0.00  0.00    +0.000 A 
ATOM     12  C   UNL     1       1.664   6.240  20.519  0.00  0.00    +0.000 A 
ATOM     13  C   UNL     1       2.062   5.126  19.773  0.00  0.00    +0.000 A 
ATOM     14  C   UNL     1       2.613   5.300  18.506  0.00  0.00    +0.000 A 
ATOM     15 CL   UNL     1       3.094   3.933  17.580  0.00  0.00    +0.000 Cl
ATOM     16  C   UNL     1       2.784   6.580  17.987  0.00  0.00    +0.000 A 
ATOM     17  C   UNL     1       2.405   7.692  18.743  0.00  0.00    +0.000 A 
ENDBRANCH   7  11
BRANCH   1  18
ATOM     18  C   UNL     1      -1.637  11.856  18.202  0.00  0.00    +0.000 C 
BRANCH  18  20
ATOM     19  N   UNL     1      -3.787  12.453  19.188  0.00  0.00    +0.000 N 
ATOM     20  C   UNL     1      -3.127  11.547  18.372  0.00  0.00    +0.000 C 
ATOM     21  O   UNL     1      -3.574  10.493  17.928  0.00  0.00    +0.000 OA
ATOM     22  H   UNL     1      -3.189  13.025  19.779  0.00  0.00    +0.000 HD
BRANCH  19  27
ATOM     23  C   UNL     1      -6.823  12.269  21.298  0.00  0.00    +0.000 A 
ATOM     24  C   UNL     1      -7.846  12.492  20.382  0.00  0.00    +0.000 A 
ATOM     25  C   UNL     1      -7.549  12.734  19.043  0.00  0.00    +0.000 A 
ATOM     26  C   UNL     1      -6.222  12.719  18.586  0.00  0.00    +0.000 A 
ATOM     27  C   UNL     1      -5.175  12.484  19.500  0.00  0.00    +0.000 A 
ATOM     28  C   UNL     1      -5.496  12.287  20.860  0.00  0.00    +0.000 A 
BRANCH  23  30
ATOM     29  C   UNL     1      -6.552  12.691  23.623  0.00  0.00    +0.000 C 
ATOM     30  O   UNL     1      -7.257  12.046  22.574  0.00  0.00    +0.000 OA
ENDBRANCH  23  30
BRANCH  26  31
ATOM     31  O   UNL     1      -5.928  13.063  17.292  0.00  0.00    +0.000 OA
ATOM     32  C   UNL     1      -6.820  14.012  16.708  0.00  0.00    +0.000 C 
ENDBRANCH  26  31
ENDBRANCH  19  27
ENDBRANCH  18  20
ENDBRANCH   1  18
TORSDOF 6
ENDMDL
MODEL 3
REMARK VINA RESULT:      -7.9      4.114      5.816
REMARK  Name = 
REMARK  8 active torsions:
REMARK  status: ('A' for Active; 'I' for Inactive)
REMARK    1  A    between atoms: C_1  and  O_2
REMARK    2  A    between atoms: O_2  and  C_3
REMARK    3  A    between atoms: C_6  and  O_7
REMARK    4  A    between atoms: O_7  and  C_8
REMARK    5  A    between atoms: C_9  and  N_10
REMARK    6  A    between atoms: C_11  and  C_13
REMARK    7  A    between atoms: C_13  and  N_14
REMARK    8  A    between atoms: C_20  and  C_21
REMARK                            x       y       z     vdW  Elec       q    Type
REMARK                         _______ _______ _______ _____ _____    ______ ____
ROOT
ATOM      1  N   UNL     1       3.111   3.853  19.518  0.00  0.00    +0.000 N 
ATOM      2  C   UNL     1       2.735   2.883  18.600  0.00  0.00    +0.000 A 
ATOM      3  N   UNL     1       3.333   2.644  17.477  0.00  0.00    +0.000 NA
ATOM      4  C   UNL     1       4.393   3.448  17.245  0.00  0.00    +0.000 A 
ATOM      5  O   UNL     1       5.153   3.411  16.116  0.00  0.00    +0.000 OA
ATOM      6  N   UNL     1       6.125   4.392  16.172  0.00  0.00    +0.000 NA
ATOM      7  C   UNL     1       5.967   5.022  17.350  0.00  0.00    +0.000 A 
ATOM      8  C   UNL     1       4.890   4.433  18.062  0.00  0.00    +0.000 A 
ATOM      9  C   UNL     1       4.237   4.651  19.323  0.00  0.00    +0.000 A 
ATOM     10  O   UNL     1       4.633   5.441  20.178  0.00  0.00    +0.000 OA
ENDROOT
BRANCH   7  11
ATOM     11  C   UNL     1       6.814   6.163  17.698  0.00  0.00    +0.000 A 
ATOM     12  C   UNL     1       6.681   7.378  17.004  0.00  0.00    +0.000 A 
ATOM     13  C   UNL     1       7.459   8.487  17.352  0.00  0.00    +0.000 A 
ATOM     14  C   UNL     1       8.372   8.393  18.399  0.00  0.00    +0.000 A 
ATOM     15 CL   UNL     1       9.324   9.756  18.838  0.00  0.00    +0.000 Cl
ATOM     16  C   UNL     1       8.525   7.194  19.088  0.00  0.00    +0.000 A 
ATOM     17  C   UNL     1       7.761   6.082  18.726  0.00  0.00    +0.000 A 
ENDBRANCH   7  11
BRANCH   1  18
ATOM     18  C   UNL     1       2.366   4.004  20.760  0.00  0.00    +0.000 C 
BRANCH  18  20
ATOM     19  N   UNL     1       2.040   6.411  20.991  0.00  0.00    +0.000 N 
ATOM     20  C   UNL     1       1.437   5.215  20.632  0.00  0.00    +0.000 C 
ATOM     21  O   UNL     1       0.247   5.033  20.385  0.00  0.00    +0.000 OA
ATOM     22  H   UNL     1       2.892   6.324  21.538  0.00  0.00    +0.000 HD
BRANCH  19  27
ATOM     23  C   UNL     1       0.284   9.438  22.199  0.00  0.00    +0.000 A 
ATOM     24  C   UNL     1       0.285  10.260  21.077  0.00  0.00    +0.000 A 
ATOM     25  C   UNL     1       0.891   9.837  19.897  0.00  0.00    +0.000 A 
ATOM     26  C   UNL     1       1.477   8.564  19.804  0.00  0.00    +0.000 A 
ATOM     27  C   UNL     1       1.476   7.716  20.930  0.00  0.00    +0.000 A 
ATOM     28  C   UNL     1       0.896   8.182  22.128  0.00  0.00    +0.000 A 
BRANCH  23  30
ATOM     29  C   UNL     1      -1.236  11.058  23.050  0.00  0.00    +0.000 C 
ATOM     30  O   UNL     1      -0.345   9.978  23.284  0.00  0.00    +0.000 OA
ENDBRANCH  23  30
BRANCH  26  31
ATOM     31  O   UNL     1       2.166   8.196  18.678  0.00  0.00    +0.000 OA
ATOM     32  C   UNL     1       1.920   9.012  17.532  0.00  0.00    +0.000 C 
ENDBRANCH  26  31
ENDBRANCH  19  27
ENDBRANCH  18  20
ENDBRANCH   1  18
TORSDOF 6
ENDMDL
MODEL 4
REMARK VINA RESULT:      -7.9      0.747      1.143
REMARK  Name = 
REMARK  8 active torsions:
REMARK  status: ('A' for Active; 'I' for Inactive)
REMARK    1  A    between atoms: C_1  and  O_2
REMARK    2  A    between atoms: O_2  and  C_3
REMARK    3  A    between atoms: C_6  and  O_7
REMARK    4  A    between atoms: O_7  and  C_8
REMARK    5  A    between atoms: C_9  and  N_10
REMARK    6  A    between atoms: C_11  and  C_13
REMARK    7  A    between atoms: C_13  and  N_14
REMARK    8  A    between atoms: C_20  and  C_21
REMARK                            x       y       z     vdW  Elec       q    Type
REMARK                         _______ _______ _______ _____ _____    ______ ____
ROOT
ATOM      1  N   UNL     1       1.230   9.398  19.141  0.00  0.00    +0.000 N 
ATOM      2  C   UNL     1       0.709   9.104  20.392  0.00  0.00    +0.000 A 
ATOM      3  N   UNL     1       0.939   8.020  21.062  0.00  0.00    +0.000 NA
ATOM      4  C   UNL     1       1.752   7.151  20.426  0.00  0.00    +0.000 A 
ATOM      5  O   UNL     1       2.105   5.930  20.914  0.00  0.00    +0.000 OA
ATOM      6  N   UNL     1       2.904   5.271  19.999  0.00  0.00    +0.000 NA
ATOM      7  C   UNL     1       3.054   6.103  18.951  0.00  0.00    +0.000 A 
ATOM      8  C   UNL     1       2.351   7.310  19.201  0.00  0.00    +0.000 A 
ATOM      9  C   UNL     1       2.117   8.539  18.495  0.00  0.00    +0.000 A 
ATOM     10  O   UNL     1       2.661   8.840  17.434  0.00  0.00    +0.000 OA
ENDROOT
BRANCH   7  11
ATOM     11  C   UNL     1       3.810   5.679  17.773  0.00  0.00    +0.000 A 
ATOM     12  C   UNL     1       4.603   6.604  17.072  0.00  0.00    +0.000 A 
ATOM     13  C   UNL     1       5.360   6.202  15.967  0.00  0.00    +0.000 A 
ATOM     14  C   UNL     1       5.334   4.872  15.555  0.00  0.00    +0.000 A 
ATOM     15 CL   UNL     1       6.271   4.371  14.204  0.00  0.00    +0.000 Cl
ATOM     16  C   UNL     1       4.546   3.946  16.230  0.00  0.00    +0.000 A 
ATOM     17  C   UNL     1       3.775   4.354  17.322  0.00  0.00    +0.000 A 
ENDBRANCH   7  11
BRANCH   1  18
ATOM     18  C   UNL     1       0.913  10.669  18.503  0.00  0.00    +0.000 C 
BRANCH  18  20
ATOM     19  N   UNL     1      -1.352  11.148  17.734  0.00  0.00    +0.000 N 
ATOM     20  C   UNL     1      -0.532  11.043  18.847  0.00  0.00    +0.000 C 
ATOM     21  O   UNL     1      -0.811  11.359  20.000  0.00  0.00    +0.000 OA
ATOM     22  H   UNL     1      -0.871  11.239  16.843  0.00  0.00    +0.000 HD
BRANCH  19  27
ATOM     23  C   UNL     1      -4.684  12.048  19.073  0.00  0.00    +0.000 A 
ATOM     24  C   UNL     1      -5.492  12.001  17.942  0.00  0.00    +0.000 A 
ATOM     25  C   UNL     1      -4.943  11.691  16.701  0.00  0.00    +0.000 A 
ATOM     26  C   UNL     1      -3.579  11.385  16.572  0.00  0.00    +0.000 A 
ATOM     27  C   UNL     1      -2.749  11.420  17.711  0.00  0.00    +0.000 A 
ATOM     28  C   UNL     1      -3.317  11.780  18.951  0.00  0.00    +0.000 A 
BRANCH  23  30
ATOM     29  C   UNL     1      -6.576  11.687  20.469  0.00  0.00    +0.000 C 
ATOM     30  O   UNL     1      -5.352  12.364  20.222  0.00  0.00    +0.000 OA
ENDBRANCH  23  30
BRANCH  26  31
ATOM     31  O   UNL     1      -3.024  11.187  15.334  0.00  0.00    +0.000 OA
ATOM     32  C   UNL     1      -3.295   9.912  14.753  0.00  0.00    +0.000 C 
ENDBRANCH  26  31
ENDBRANCH  19  27
ENDBRANCH  18  20
ENDBRANCH   1  18
TORSDOF 6
ENDMDL
MODEL 5
REMARK VINA RESULT:      -7.9      7.346     10.015
REMARK  Name = 
REMARK  8 active torsions:
REMARK  status: ('A' for Active; 'I' for Inactive)
REMARK    1  A    between atoms: C_1  and  O_2
REMARK    2  A    between atoms: O_2  and  C_3
REMARK    3  A    between atoms: C_6  and  O_7
REMARK    4  A    between atoms: O_7  and  C_8
REMARK    5  A    between atoms: C_9  and  N_10
REMARK    6  A    between atoms: C_11  and  C_13
REMARK    7  A    between atoms: C_13  and  N_14
REMARK    8  A    between atoms: C_20  and  C_21
REMARK                            x       y       z     vdW  Elec       q    Type
REMARK                         _______ _______ _______ _____ _____    ______ ____
ROOT
ATOM      1  N   UNL     1       7.462   6.363  17.897  0.00  0.00    +0.000 N 
ATOM      2  C   UNL     1       7.716   6.396  16.533  0.00  0.00    +0.000 A 
ATOM      3  N   UNL     1       6.969   5.862  15.621  0.00  0.00    +0.000 NA
ATOM      4  C   UNL     1       5.881   5.231  16.111  0.00  0.00    +0.000 A 
ATOM      5  O   UNL     1       4.971   4.563  15.349  0.00  0.00    +0.000 OA
ATOM      6  N   UNL     1       4.009   3.992  16.161  0.00  0.00    +0.000 NA
ATOM      7  C   UNL     1       4.324   4.328  17.425  0.00  0.00    +0.000 A 
ATOM      8  C   UNL     1       5.494   5.129  17.424  0.00  0.00    +0.000 A 
ATOM      9  C   UNL     1       6.314   5.769  18.416  0.00  0.00    +0.000 A 
ATOM     10  O   UNL     1       6.034   5.825  19.612  0.00  0.00    +0.000 OA
ENDROOT
BRANCH   7  11
ATOM     11  C   UNL     1       3.523   3.829  18.543  0.00  0.00    +0.000 A 
ATOM     12  C   UNL     1       4.085   2.934  19.470  0.00  0.00    +0.000 A 
ATOM     13  C   UNL     1       3.342   2.479  20.564  0.00  0.00    +0.000 A 
ATOM     14  C   UNL     1       2.034   2.918  20.744  0.00  0.00    +0.000 A 
ATOM     15 CL   UNL     1       1.119   2.371  22.093  0.00  0.00    +0.000 Cl
ATOM     16  C   UNL     1       1.457   3.794  19.830  0.00  0.00    +0.000 A 
ATOM     17  C   UNL     1       2.195   4.232  18.726  0.00  0.00    +0.000 A 
ENDBRANCH   7  11
BRANCH   1  18
ATOM     18  C   UNL     1       8.372   7.028  18.820  0.00  0.00    +0.000 C 
BRANCH  18  20
ATOM     19  N   UNL     1       9.208   9.260  19.344  0.00  0.00    +0.000 N 
ATOM     20  C   UNL     1       8.371   8.529  18.515  0.00  0.00    +0.000 C 
ATOM     21  O   UNL     1       7.558   8.976  17.709  0.00  0.00    +0.000 OA
ATOM     22  H   UNL     1       9.498   8.789  20.197  0.00  0.00    +0.000 HD
BRANCH  19  27
ATOM     23  C   UNL     1      10.273  12.479  17.860  0.00  0.00    +0.000 A 
ATOM     24  C   UNL     1      10.097  13.374  18.910  0.00  0.00    +0.000 A 
ATOM     25  C   UNL     1       9.596  12.932  20.132  0.00  0.00    +0.000 A 
ATOM     26  C   UNL     1       9.297  11.576  20.339  0.00  0.00    +0.000 A 
ATOM     27  C   UNL     1       9.479  10.655  19.287  0.00  0.00    +0.000 A 
ATOM     28  C   UNL     1       9.945  11.133  18.044  0.00  0.00    +0.000 A 
BRANCH  23  30
ATOM     29  C   UNL     1      11.520  14.246  16.867  0.00  0.00    +0.000 C 
ATOM     30  O   UNL     1      10.771  13.048  16.722  0.00  0.00    +0.000 OA
ENDBRANCH  23  30
BRANCH  26  31
ATOM     31  O   UNL     1       8.704  11.165  21.505  0.00  0.00    +0.000 OA
ATOM     32  C   UNL     1       8.275  12.221  22.364  0.00  0.00    +0.000 C 
ENDBRANCH  26  31
ENDBRANCH  19  27
ENDBRANCH  18  20
ENDBRANCH   1  18
TORSDOF 6
ENDMDL
MODEL 6
REMARK VINA RESULT:      -7.8      4.242      9.726
REMARK  Name = 
REMARK  8 active torsions:
REMARK  status: ('A' for Active; 'I' for Inactive)
REMARK    1  A    between atoms: C_1  and  O_2
REMARK    2  A    between atoms: O_2  and  C_3
REMARK    3  A    between atoms: C_6  and  O_7
REMARK    4  A    between atoms: O_7  and  C_8
REMARK    5  A    between atoms: C_9  and  N_10
REMARK    6  A    between atoms: C_11  and  C_13
REMARK    7  A    between atoms: C_13  and  N_14
REMARK    8  A    between atoms: C_20  and  C_21
REMARK                            x       y       z     vdW  Elec       q    Type
REMARK                         _______ _______ _______ _____ _____    ______ ____
ROOT
ATOM      1  N   UNL     1       1.357   9.006  19.343  0.00  0.00    +0.000 N 
ATOM      2  C   UNL     1       1.744   8.090  20.312  0.00  0.00    +0.000 A 
ATOM      3  N   UNL     1       1.457   8.168  21.572  0.00  0.00    +0.000 NA
ATOM      4  C   UNL     1       0.730   9.258  21.896  0.00  0.00    +0.000 A 
ATOM      5  O   UNL     1       0.342   9.575  23.162  0.00  0.00    +0.000 OA
ATOM      6  N   UNL     1      -0.344  10.775  23.157  0.00  0.00    +0.000 NA
ATOM      7  C   UNL     1      -0.390  11.185  21.876  0.00  0.00    +0.000 A 
ATOM      8  C   UNL     1       0.265  10.235  21.051  0.00  0.00    +0.000 A 
ATOM      9  C   UNL     1       0.557  10.105  19.650  0.00  0.00    +0.000 A 
ATOM     10  O   UNL     1       0.129  10.862  18.781  0.00  0.00    +0.000 OA
ENDROOT
BRANCH   7  11
ATOM     11  C   UNL     1      -1.008  12.466  21.532  0.00  0.00    +0.000 A 
ATOM     12  C   UNL     1      -2.404  12.615  21.593  0.00  0.00    +0.000 A 
ATOM     13  C   UNL     1      -3.004  13.844  21.302  0.00  0.00    +0.000 A 
ATOM     14  C   UNL     1      -2.214  14.936  20.954  0.00  0.00    +0.000 A 
ATOM     15 CL   UNL     1      -2.945  16.453  20.607  0.00  0.00    +0.000 Cl
ATOM     16  C   UNL     1      -0.831  14.804  20.877  0.00  0.00    +0.000 A 
ATOM     17  C   UNL     1      -0.235  13.569  21.148  0.00  0.00    +0.000 A 
ENDBRANCH   7  11
BRANCH   1  18
ATOM     18  C   UNL     1       1.725   8.788  17.951  0.00  0.00    +0.000 C 
BRANCH  18  20
ATOM     19  N   UNL     1       3.817   7.559  17.695  0.00  0.00    +0.000 N 
ATOM     20  C   UNL     1       2.443   7.440  17.838  0.00  0.00    +0.000 C 
ATOM     21  O   UNL     1       1.777   6.413  17.731  0.00  0.00    +0.000 OA
ATOM     22  H   UNL     1       4.149   8.477  17.411  0.00  0.00    +0.000 HD
BRANCH  19  27
ATOM     23  C   UNL     1       6.588   5.546  16.290  0.00  0.00    +0.000 A 
ATOM     24  C   UNL     1       6.747   4.540  17.237  0.00  0.00    +0.000 A 
ATOM     25  C   UNL     1       5.951   4.521  18.379  0.00  0.00    +0.000 A 
ATOM     26  C   UNL     1       4.953   5.488  18.579  0.00  0.00    +0.000 A 
ATOM     27  C   UNL     1       4.774   6.508  17.623  0.00  0.00    +0.000 A 
ATOM     28  C   UNL     1       5.622   6.535  16.496  0.00  0.00    +0.000 A 
BRANCH  23  30
ATOM     29  C   UNL     1       6.937   4.794  14.060  0.00  0.00    +0.000 C 
ATOM     30  O   UNL     1       7.433   5.443  15.221  0.00  0.00    +0.000 OA
ENDBRANCH  23  30
BRANCH  26  31
ATOM     31  O   UNL     1       4.248   5.527  19.753  0.00  0.00    +0.000 OA
ATOM     32  C   UNL     1       3.396   4.404  19.978  0.00  0.00    +0.000 C 
ENDBRANCH  26  31
ENDBRANCH  19  27
ENDBRANCH  18  20
ENDBRANCH   1  18
TORSDOF 6
ENDMDL
MODEL 7
REMARK VINA RESULT:      -7.8      2.212      3.317
REMARK  Name = 
REMARK  8 active torsions:
REMARK  status: ('A' for Active; 'I' for Inactive)
REMARK    1  A    between atoms: C_1  and  O_2
REMARK    2  A    between atoms: O_2  and  C_3
REMARK    3  A    between atoms: C_6  and  O_7
REMARK    4  A    between atoms: O_7  and  C_8
REMARK    5  A    between atoms: C_9  and  N_10
REMARK    6  A    between atoms: C_11  and  C_13
REMARK    7  A    between atoms: C_13  and  N_14
REMARK    8  A    between atoms: C_20  and  C_21
REMARK                            x       y       z     vdW  Elec       q    Type
REMARK                         _______ _______ _______ _____ _____    ______ ____
ROOT
ATOM      1  N   UNL     1       1.360   9.104  19.098  0.00  0.00    +0.000 N 
ATOM      2  C   UNL     1       0.914   8.790  20.374  0.00  0.00    +0.000 A 
ATOM      3  N   UNL     1       1.229   7.722  21.035  0.00  0.00    +0.000 NA
ATOM      4  C   UNL     1       2.051   6.890  20.361  0.00  0.00    +0.000 A 
ATOM      5  O   UNL     1       2.486   5.690  20.834  0.00  0.00    +0.000 OA
ATOM      6  N   UNL     1       3.271   5.067  19.883  0.00  0.00    +0.000 NA
ATOM      7  C   UNL     1       3.329   5.900  18.827  0.00  0.00    +0.000 A 
ATOM      8  C   UNL     1       2.582   7.072  19.108  0.00  0.00    +0.000 A 
ATOM      9  C   UNL     1       2.255   8.286  18.411  0.00  0.00    +0.000 A 
ATOM     10  O   UNL     1       2.731   8.608  17.325  0.00  0.00    +0.000 OA
ENDROOT
BRANCH   7  11
ATOM     11  C   UNL     1       4.047   5.507  17.615  0.00  0.00    +0.000 A 
ATOM     12  C   UNL     1       4.856   6.438  16.940  0.00  0.00    +0.000 A 
ATOM     13  C   UNL     1       5.577   6.065  15.802  0.00  0.00    +0.000 A 
ATOM     14  C   UNL     1       5.499   4.758  15.330  0.00  0.00    +0.000 A 
ATOM     15 CL   UNL     1       6.392   4.290  13.936  0.00  0.00    +0.000 Cl
ATOM     16  C   UNL     1       4.694   3.826  15.978  0.00  0.00    +0.000 A 
ATOM     17  C   UNL     1       3.959   4.207  17.104  0.00  0.00    +0.000 A 
ENDBRANCH   7  11
BRANCH   1  18
ATOM     18  C   UNL     1       0.951  10.355  18.474  0.00  0.00    +0.000 C 
BRANCH  18  20
ATOM     19  N   UNL     1      -0.795  11.248  19.926  0.00  0.00    +0.000 N 
ATOM     20  C   UNL     1       0.543  11.342  19.572  0.00  0.00    +0.000 C 
ATOM     21  O   UNL     1       1.342  12.202  19.931  0.00  0.00    +0.000 OA
ATOM     22  H   UNL     1      -1.390  10.763  19.260  0.00  0.00    +0.000 HD
BRANCH  19  27
ATOM     23  C   UNL     1      -3.329  13.502  21.409  0.00  0.00    +0.000 A 
ATOM     24  C   UNL     1      -2.983  13.507  22.756  0.00  0.00    +0.000 A 
ATOM     25  C   UNL     1      -1.912  12.742  23.208  0.00  0.00    +0.000 A 
ATOM     26  C   UNL     1      -1.140  11.983  22.314  0.00  0.00    +0.000 A 
ATOM     27  C   UNL     1      -1.473  11.975  20.944  0.00  0.00    +0.000 A 
ATOM     28  C   UNL     1      -2.590  12.722  20.515  0.00  0.00    +0.000 A 
BRANCH  23  30
ATOM     29  C   UNL     1      -5.301  13.824  20.117  0.00  0.00    +0.000 C 
ATOM     30  O   UNL     1      -4.398  14.297  21.106  0.00  0.00    +0.000 OA
ENDBRANCH  23  30
BRANCH  26  31
ATOM     31  O   UNL     1      -0.156  11.149  22.778  0.00  0.00    +0.000 OA
ATOM     32  C   UNL     1      -0.624   9.912  23.315  0.00  0.00    +0.000 C 
ENDBRANCH  26  31
ENDBRANCH  19  27
ENDBRANCH  18  20
ENDBRANCH   1  18
TORSDOF 6
ENDMDL
MODEL 8
REMARK VINA RESULT:      -7.7      1.227      2.533
REMARK  Name = 
REMARK  8 active torsions:
REMARK  status: ('A' for Active; 'I' for Inactive)
REMARK    1  A    between atoms: C_1  and  O_2
REMARK    2  A    between atoms: O_2  and  C_3
REMARK    3  A    between atoms: C_6  and  O_7
REMARK    4  A    between atoms: O_7  and  C_8
REMARK    5  A    between atoms: C_9  and  N_10
REMARK    6  A    between atoms: C_11  and  C_13
REMARK    7  A    between atoms: C_13  and  N_14
REMARK    8  A    between atoms: C_20  and  C_21
REMARK                            x       y       z     vdW  Elec       q    Type
REMARK                         _______ _______ _______ _____ _____    ______ ____
ROOT
ATOM      1  N   UNL     1       1.306   9.223  19.221  0.00  0.00    +0.000 N 
ATOM      2  C   UNL     1       0.820   8.950  20.492  0.00  0.00    +0.000 A 
ATOM      3  N   UNL     1       1.061   7.874  21.170  0.00  0.00    +0.000 NA
ATOM      4  C   UNL     1       1.846   6.988  20.521  0.00  0.00    +0.000 A 
ATOM      5  O   UNL     1       2.203   5.770  21.016  0.00  0.00    +0.000 OA
ATOM      6  N   UNL     1       2.968   5.092  20.085  0.00  0.00    +0.000 NA
ATOM      7  C   UNL     1       3.093   5.908  19.023  0.00  0.00    +0.000 A 
ATOM      8  C   UNL     1       2.409   7.125  19.276  0.00  0.00    +0.000 A 
ATOM      9  C   UNL     1       2.165   8.347  18.561  0.00  0.00    +0.000 A 
ATOM     10  O   UNL     1       2.678   8.628  17.479  0.00  0.00    +0.000 OA
ENDROOT
BRANCH   7  11
ATOM     11  C   UNL     1       3.809   5.461  17.828  0.00  0.00    +0.000 A 
ATOM     12  C   UNL     1       4.612   6.361  17.107  0.00  0.00    +0.000 A 
ATOM     13  C   UNL     1       5.331   5.936  15.986  0.00  0.00    +0.000 A 
ATOM     14  C   UNL     1       5.256   4.607  15.577  0.00  0.00    +0.000 A 
ATOM     15 CL   UNL     1       6.147   4.077  14.205  0.00  0.00    +0.000 Cl
ATOM     16  C   UNL     1       4.456   3.705  16.271  0.00  0.00    +0.000 A 
ATOM     17  C   UNL     1       3.723   4.137  17.379  0.00  0.00    +0.000 A 
ENDBRANCH   7  11
BRANCH   1  18
ATOM     18  C   UNL     1       0.980  10.487  18.576  0.00  0.00    +0.000 C 
BRANCH  18  20
ATOM     19  N   UNL     1      -1.057  11.543  19.404  0.00  0.00    +0.000 N 
ATOM     20  C   UNL     1      -0.543  10.623  18.503  0.00  0.00    +0.000 C 
ATOM     21  O   UNL     1      -1.182   9.841  17.803  0.00  0.00    +0.000 OA
ATOM     22  H   UNL     1      -0.436  11.803  20.165  0.00  0.00    +0.000 HD
BRANCH  19  27
ATOM     23  C   UNL     1      -4.621  11.954  18.489  0.00  0.00    +0.000 A 
ATOM     24  C   UNL     1      -5.143  12.629  19.587  0.00  0.00    +0.000 A 
ATOM     25  C   UNL     1      -4.327  12.943  20.671  0.00  0.00    +0.000 A 
ATOM     26  C   UNL     1      -2.960  12.620  20.661  0.00  0.00    +0.000 A 
ATOM     27  C   UNL     1      -2.414  11.945  19.550  0.00  0.00    +0.000 A 
ATOM     28  C   UNL     1      -3.269  11.597  18.484  0.00  0.00    +0.000 A 
BRANCH  23  30
ATOM     29  C   UNL     1      -6.904  11.881  17.823  0.00  0.00    +0.000 C 
ATOM     30  O   UNL     1      -5.531  11.712  17.500  0.00  0.00    +0.000 OA
ENDBRANCH  23  30
BRANCH  26  31
ATOM     31  O   UNL     1      -2.187  12.834  21.772  0.00  0.00    +0.000 OA
ATOM     32  C   UNL     1      -2.694  12.257  22.975  0.00  0.00    +0.000 C 
ENDBRANCH  26  31
ENDBRANCH  19  27
ENDBRANCH  18  20
ENDBRANCH   1  18
TORSDOF 6
ENDMDL
MODEL 9
REMARK VINA RESULT:      -7.7      4.154      9.994
REMARK  Name = 
REMARK  8 active torsions:
REMARK  status: ('A' for Active; 'I' for Inactive)
REMARK    1  A    between atoms: C_1  and  O_2
REMARK    2  A    between atoms: O_2  and  C_3
REMARK    3  A    between atoms: C_6  and  O_7
REMARK    4  A    between atoms: O_7  and  C_8
REMARK    5  A    between atoms: C_9  and  N_10
REMARK    6  A    between atoms: C_11  and  C_13
REMARK    7  A    between atoms: C_13  and  N_14
REMARK    8  A    between atoms: C_20  and  C_21
REMARK                            x       y       z     vdW  Elec       q    Type
REMARK                         _______ _______ _______ _____ _____    ______ ____
ROOT
ATOM      1  N   UNL     1       1.839   8.013  19.420  0.00  0.00    +0.000 N 
ATOM      2  C   UNL     1       2.465   8.421  18.251  0.00  0.00    +0.000 A 
ATOM      3  N   UNL     1       2.364   9.598  17.720  0.00  0.00    +0.000 NA
ATOM      4  C   UNL     1       1.561  10.437  18.409  0.00  0.00    +0.000 A 
ATOM      5  O   UNL     1       1.271  11.711  18.025  0.00  0.00    +0.000 OA
ATOM      6  N   UNL     1       0.385  12.280  18.921  0.00  0.00    +0.000 NA
ATOM      7  C   UNL     1       0.146  11.353  19.866  0.00  0.00    +0.000 A 
ATOM      8  C   UNL     1       0.892  10.181  19.580  0.00  0.00    +0.000 A 
ATOM      9  C   UNL     1       1.055   8.883  20.175  0.00  0.00    +0.000 A 
ATOM     10  O   UNL     1       0.581   8.557  21.262  0.00  0.00    +0.000 OA
ENDROOT
BRANCH   7  11
ATOM     11  C   UNL     1      -0.805  11.625  20.944  0.00  0.00    +0.000 A 
ATOM     12  C   UNL     1      -2.008  12.299  20.672  0.00  0.00    +0.000 A 
ATOM     13  C   UNL     1      -2.941  12.532  21.687  0.00  0.00    +0.000 A 
ATOM     14  C   UNL     1      -2.683  12.089  22.981  0.00  0.00    +0.000 A 
ATOM     15 CL   UNL     1      -3.833  12.363  24.231  0.00  0.00    +0.000 Cl
ATOM     16  C   UNL     1      -1.493  11.430  23.271  0.00  0.00    +0.000 A 
ATOM     17  C   UNL     1      -0.552  11.217  22.260  0.00  0.00    +0.000 A 
ENDBRANCH   7  11
BRANCH   1  18
ATOM     18  C   UNL     1       2.056   6.665  19.927  0.00  0.00    +0.000 C 
BRANCH  18  20
ATOM     19  N   UNL     1       4.127   6.103  18.764  0.00  0.00    +0.000 N 
ATOM     20  C   UNL     1       2.767   5.843  18.847  0.00  0.00    +0.000 C 
ATOM     21  O   UNL     1       2.097   5.168  18.070  0.00  0.00    +0.000 OA
ATOM     22  H   UNL     1       4.435   6.964  19.208  0.00  0.00    +0.000 HD
BRANCH  19  27
ATOM     23  C   UNL     1       5.524   4.722  15.627  0.00  0.00    +0.000 A 
ATOM     24  C   UNL     1       6.771   4.255  16.027  0.00  0.00    +0.000 A 
ATOM     25  C   UNL     1       7.189   4.410  17.346  0.00  0.00    +0.000 A 
ATOM     26  C   UNL     1       6.349   5.002  18.302  0.00  0.00    +0.000 A 
ATOM     27  C   UNL     1       5.078   5.472  17.914  0.00  0.00    +0.000 A 
ATOM     28  C   UNL     1       4.694   5.346  16.563  0.00  0.00    +0.000 A 
BRANCH  23  30
ATOM     29  C   UNL     1       6.261   3.903  13.518  0.00  0.00    +0.000 C 
ATOM     30  O   UNL     1       5.245   4.504  14.308  0.00  0.00    +0.000 OA
ENDBRANCH  23  30
BRANCH  26  31
ATOM     31  O   UNL     1       6.805   5.250  19.571  0.00  0.00    +0.000 OA
ATOM     32  C   UNL     1       8.102   5.842  19.637  0.00  0.00    +0.000 C 
ENDBRANCH  26  31
ENDBRANCH  19  27
ENDBRANCH  18  20
ENDBRANCH   1  18
TORSDOF 6
ENDMDL
