MODEL 1
REMARK VINA RESULT:     -10.3      0.000      0.000
REMARK  Name = 
REMARK  4 active torsions:
REMARK  status: ('A' for Active; 'I' for Inactive)
REMARK    1  A    between atoms: N_3  and  C_4
REMARK    2  A    between atoms: C_4  and  C_5
REMARK    3  A    between atoms: N_15  and  C_16
REMARK    4  A    between atoms: N_23  and  C_24
REMARK                            x       y       z     vdW  Elec       q    Type
REMARK                         _______ _______ _______ _____ _____    ______ ____
ROOT
ATOM      1  C   UNL     1       6.819   5.921  16.475  0.00  0.00    +0.000 A 
ATOM      2  N   UNL     1       7.559   5.749  15.418  0.00  0.00    +0.000 NA
ATOM      3  C   UNL     1       7.052   4.976  14.366  0.00  0.00    +0.000 A 
ATOM      4  C   UNL     1       7.760   4.912  13.162  0.00  0.00    +0.000 A 
ATOM      5  C   UNL     1       7.269   4.176  12.078  0.00  0.00    +0.000 A 
ATOM      6  C   UNL     1       6.063   3.485  12.188  0.00  0.00    +0.000 A 
ATOM      7  C   UNL     1       5.351   3.532  13.382  0.00  0.00    +0.000 A 
ATOM      8  C   UNL     1       5.850   4.280  14.458  0.00  0.00    +0.000 A 
ATOM      9  C   UNL     1       5.080   4.405  15.703  0.00  0.00    +0.000 A 
ATOM     10  O   UNL     1       4.058   3.734  15.825  0.00  0.00    +0.000 OA
ATOM     11  N   UNL     1       5.567   5.330  16.632  0.00  0.00    +0.000 N 
ENDROOT
BRANCH  11  12
ATOM     12  C   UNL     1       4.697   5.651  17.716  0.00  0.00    +0.000 A 
ATOM     13  C   UNL     1       4.647   4.823  18.848  0.00  0.00    +0.000 A 
ATOM     14  C   UNL     1       3.705   5.055  19.850  0.00  0.00    +0.000 A 
ATOM     15  C   UNL     1       2.802   6.101  19.710  0.00  0.00    +0.000 A 
ATOM     16  F   UNL     1       1.870   6.299  20.650  0.00  0.00    +0.000 F 
ATOM     17  C   UNL     1       2.837   6.933  18.595  0.00  0.00    +0.000 A 
ATOM     18  C   UNL     1       3.792   6.716  17.598  0.00  0.00    +0.000 A 
ENDBRANCH  11  12
BRANCH   1  19
ATOM     19  C   UNL     1       7.375   6.803  17.612  0.00  0.00    +0.000 C 
BRANCH  19  22
ATOM     20  O   UNL     1       8.852   8.671  18.962  0.00  0.00    +0.000 OA
ATOM     21  C   UNL     1       8.171   9.072  18.025  0.00  0.00    +0.000 C 
ATOM     22  N   UNL     1       7.350   8.232  17.311  0.00  0.00    +0.000 N 
ATOM     23  N   UNL     1       8.115  10.372  17.571  0.00  0.00    +0.000 N 
ATOM     24  H   UNL     1       7.145   8.481  16.352  0.00  0.00    +0.000 HD
ATOM     25  H   UNL     1       7.298  10.603  17.024  0.00  0.00    +0.000 HD
BRANCH  23  26
ATOM     26  C   UNL     1       8.968  11.435  17.963  0.00  0.00    +0.000 A 
ATOM     27  C   UNL     1       8.696  12.774  17.689  0.00  0.00    +0.000 A 
ATOM     28  C   UNL     1       9.571  13.736  18.169  0.00  0.00    +0.000 A 
ATOM     29 CL   UNL     1       9.268  15.405  17.910  0.00  0.00    +0.000 Cl
ATOM     30  N   UNL     1      10.678  13.476  18.885  0.00  0.00    +0.000 NA
ATOM     31  C   UNL     1      10.918  12.178  19.125  0.00  0.00    +0.000 A 
ATOM     32 CL   UNL     1      12.333  11.878  20.047  0.00  0.00    +0.000 Cl
ATOM     33  C   UNL     1      10.111  11.130  18.702  0.00  0.00    +0.000 A 
ENDBRANCH  23  26
ENDBRANCH  19  22
ENDBRANCH   1  19
TORSDOF 4
ENDMDL
MODEL 2
REMARK VINA RESULT:     -10.2      1.059      1.081
REMARK  Name = 
REMARK  4 active torsions:
REMARK  status: ('A' for Active; 'I' for Inactive)
REMARK    1  A    between atoms: N_3  and  C_4
REMARK    2  A    between atoms: C_4  and  C_5
REMARK    3  A    between atoms: N_15  and  C_16
REMARK    4  A    between atoms: N_23  and  C_24
REMARK                            x       y       z     vdW  Elec       q    Type
REMARK                         _______ _______ _______ _____ _____    ______ ____
ROOT
ATOM      1  C   UNL     1       6.770   5.831  16.553  0.00  0.00    +0.000 A 
ATOM      2  N   UNL     1       7.514   5.675  15.496  0.00  0.00    +0.000 NA
ATOM      3  C   UNL     1       6.992   4.954  14.414  0.00  0.00    +0.000 A 
ATOM      4  C   UNL     1       7.708   4.910  13.213  0.00  0.00    +0.000 A 
ATOM      5  C   UNL     1       7.204   4.226  12.101  0.00  0.00    +0.000 A 
ATOM      6  C   UNL     1       5.979   3.566  12.180  0.00  0.00    +0.000 A 
ATOM      7  C   UNL     1       5.259   3.592  13.370  0.00  0.00    +0.000 A 
ATOM      8  C   UNL     1       5.772   4.288  14.474  0.00  0.00    +0.000 A 
ATOM      9  C   UNL     1       4.996   4.392  15.718  0.00  0.00    +0.000 A 
ATOM     10  O   UNL     1       3.954   3.746  15.811  0.00  0.00    +0.000 OA
ATOM     11  N   UNL     1       5.501   5.271  16.682  0.00  0.00    +0.000 N 
ENDROOT
BRANCH  11  12
ATOM     12  C   UNL     1       4.633   5.578  17.770  0.00  0.00    +0.000 A 
ATOM     13  C   UNL     1       4.547   4.711  18.871  0.00  0.00    +0.000 A 
ATOM     14  C   UNL     1       3.605   4.935  19.874  0.00  0.00    +0.000 A 
ATOM     15  C   UNL     1       2.736   6.014  19.766  0.00  0.00    +0.000 A 
ATOM     16  F   UNL     1       1.802   6.205  20.706  0.00  0.00    +0.000 F 
ATOM     17  C   UNL     1       2.806   6.885  18.683  0.00  0.00    +0.000 A 
ATOM     18  C   UNL     1       3.762   6.675  17.685  0.00  0.00    +0.000 A 
ENDBRANCH  11  12
BRANCH   1  19
ATOM     19  C   UNL     1       7.342   6.658  17.723  0.00  0.00    +0.000 C 
BRANCH  19  22
ATOM     20  O   UNL     1       8.901   8.387  19.163  0.00  0.00    +0.000 OA
ATOM     21  C   UNL     1       8.308   8.848  18.195  0.00  0.00    +0.000 C 
ATOM     22  N   UNL     1       7.457   8.085  17.432  0.00  0.00    +0.000 N 
ATOM     23  N   UNL     1       8.388  10.150  17.749  0.00  0.00    +0.000 N 
ATOM     24  H   UNL     1       7.325   8.354  16.466  0.00  0.00    +0.000 HD
ATOM     25  H   UNL     1       7.624  10.453  17.161  0.00  0.00    +0.000 HD
BRANCH  23  26
ATOM     26  C   UNL     1       9.307  11.134  18.194  0.00  0.00    +0.000 A 
ATOM     27  C   UNL     1      10.308  11.669  17.384  0.00  0.00    +0.000 A 
ATOM     28  C   UNL     1      11.116  12.667  17.906  0.00  0.00    +0.000 A 
ATOM     29 CL   UNL     1      12.333  13.401  16.945  0.00  0.00    +0.000 Cl
ATOM     30  N   UNL     1      11.011  13.165  19.149  0.00  0.00    +0.000 NA
ATOM     31  C   UNL     1      10.044  12.625  19.908  0.00  0.00    +0.000 A 
ATOM     32 CL   UNL     1       9.931  13.287  21.486  0.00  0.00    +0.000 Cl
ATOM     33  C   UNL     1       9.173  11.628  19.492  0.00  0.00    +0.000 A 
ENDBRANCH  23  26
ENDBRANCH  19  22
ENDBRANCH   1  19
TORSDOF 4
ENDMDL
MODEL 3
REMARK VINA RESULT:     -10.2      1.043      1.178
REMARK  Name = 
REMARK  4 active torsions:
REMARK  status: ('A' for Active; 'I' for Inactive)
REMARK    1  A    between atoms: N_3  and  C_4
REMARK    2  A    between atoms: C_4  and  C_5
REMARK    3  A    between atoms: N_15  and  C_16
REMARK    4  A    between atoms: N_23  and  C_24
REMARK                            x       y       z     vdW  Elec       q    Type
REMARK                         _______ _______ _______ _____ _____    ______ ____
ROOT
ATOM      1  C   UNL     1       6.855   5.904  16.503  0.00  0.00    +0.000 A 
ATOM      2  N   UNL     1       7.595   5.739  15.444  0.00  0.00    +0.000 NA
ATOM      3  C   UNL     1       7.071   5.005  14.372  0.00  0.00    +0.000 A 
ATOM      4  C   UNL     1       7.783   4.952  13.169  0.00  0.00    +0.000 A 
ATOM      5  C   UNL     1       7.276   4.255  12.065  0.00  0.00    +0.000 A 
ATOM      6  C   UNL     1       6.053   3.594  12.155  0.00  0.00    +0.000 A 
ATOM      7  C   UNL     1       5.337   3.630  13.347  0.00  0.00    +0.000 A 
ATOM      8  C   UNL     1       5.852   4.338  14.442  0.00  0.00    +0.000 A 
ATOM      9  C   UNL     1       5.081   4.453  15.688  0.00  0.00    +0.000 A 
ATOM     10  O   UNL     1       4.041   3.806  15.791  0.00  0.00    +0.000 OA
ATOM     11  N   UNL     1       5.587   5.342  16.641  0.00  0.00    +0.000 N 
ENDROOT
BRANCH  11  12
ATOM     12  C   UNL     1       4.723   5.659  17.730  0.00  0.00    +0.000 A 
ATOM     13  C   UNL     1       4.669   4.821  18.855  0.00  0.00    +0.000 A 
ATOM     14  C   UNL     1       3.731   5.050  19.861  0.00  0.00    +0.000 A 
ATOM     15  C   UNL     1       2.835   6.104  19.732  0.00  0.00    +0.000 A 
ATOM     16  F   UNL     1       1.906   6.299  20.676  0.00  0.00    +0.000 F 
ATOM     17  C   UNL     1       2.873   6.945  18.625  0.00  0.00    +0.000 A 
ATOM     18  C   UNL     1       3.824   6.731  17.623  0.00  0.00    +0.000 A 
ENDBRANCH  11  12
BRANCH   1  19
ATOM     19  C   UNL     1       7.429   6.743  17.662  0.00  0.00    +0.000 C 
BRANCH  19  22
ATOM     20  O   UNL     1       8.839   8.536  19.177  0.00  0.00    +0.000 OA
ATOM     21  C   UNL     1       8.284   8.970  18.175  0.00  0.00    +0.000 C 
ATOM     22  N   UNL     1       7.506   8.172  17.370  0.00  0.00    +0.000 N 
ATOM     23  N   UNL     1       8.341  10.272  17.726  0.00  0.00    +0.000 N 
ATOM     24  H   UNL     1       7.419   8.433  16.396  0.00  0.00    +0.000 HD
ATOM     25  H   UNL     1       7.600  10.544  17.095  0.00  0.00    +0.000 HD
BRANCH  23  26
ATOM     26  C   UNL     1       9.196  11.292  18.216  0.00  0.00    +0.000 A 
ATOM     27  C   UNL     1       9.115  11.801  19.511  0.00  0.00    +0.000 A 
ATOM     28  C   UNL     1      10.038  12.759  19.902  0.00  0.00    +0.000 A 
ATOM     29 CL   UNL     1      10.025  13.389  21.497  0.00  0.00    +0.000 Cl
ATOM     30  N   UNL     1      11.016  13.244  19.119  0.00  0.00    +0.000 NA
ATOM     31  C   UNL     1      11.063  12.741  17.876  0.00  0.00    +0.000 A 
ATOM     32 CL   UNL     1      12.327  13.375  16.904  0.00  0.00    +0.000 Cl
ATOM     33  C   UNL     1      10.199  11.777  17.376  0.00  0.00    +0.000 A 
ENDBRANCH  23  26
ENDBRANCH  19  22
ENDBRANCH   1  19
TORSDOF 4
ENDMDL
MODEL 4
REMARK VINA RESULT:      -9.0      5.208      6.646
REMARK  Name = 
REMARK  4 active torsions:
REMARK  status: ('A' for Active; 'I' for Inactive)
REMARK    1  A    between atoms: N_3  and  C_4
REMARK    2  A    between atoms: C_4  and  C_5
REMARK    3  A    between atoms: N_15  and  C_16
REMARK    4  A    between atoms: N_23  and  C_24
REMARK                            x       y       z     vdW  Elec       q    Type
REMARK                         _______ _______ _______ _____ _____    ______ ____
ROOT
ATOM      1  C   UNL     1       3.555   6.111  18.161  0.00  0.00    +0.000 A 
ATOM      2  N   UNL     1       4.204   6.597  17.142  0.00  0.00    +0.000 NA
ATOM      3  C   UNL     1       4.890   5.710  16.303  0.00  0.00    +0.000 A 
ATOM      4  C   UNL     1       5.458   6.190  15.118  0.00  0.00    +0.000 A 
ATOM      5  C   UNL     1       6.122   5.328  14.239  0.00  0.00    +0.000 A 
ATOM      6  C   UNL     1       6.236   3.971  14.539  0.00  0.00    +0.000 A 
ATOM      7  C   UNL     1       5.684   3.479  15.717  0.00  0.00    +0.000 A 
ATOM      8  C   UNL     1       5.013   4.353  16.585  0.00  0.00    +0.000 A 
ATOM      9  C   UNL     1       4.358   3.844  17.798  0.00  0.00    +0.000 A 
ATOM     10  O   UNL     1       4.526   2.664  18.100  0.00  0.00    +0.000 OA
ATOM     11  N   UNL     1       3.551   4.756  18.486  0.00  0.00    +0.000 N 
ENDROOT
BRANCH  11  12
ATOM     12  C   UNL     1       2.712   4.213  19.502  0.00  0.00    +0.000 A 
ATOM     13  C   UNL     1       3.159   4.158  20.831  0.00  0.00    +0.000 A 
ATOM     14  C   UNL     1       2.400   3.508  21.805  0.00  0.00    +0.000 A 
ATOM     15  C   UNL     1       1.206   2.898  21.444  0.00  0.00    +0.000 A 
ATOM     16  F   UNL     1       0.498   2.237  22.369  0.00  0.00    +0.000 F 
ATOM     17  C   UNL     1       0.745   2.944  20.132  0.00  0.00    +0.000 A 
ATOM     18  C   UNL     1       1.493   3.610  19.157  0.00  0.00    +0.000 A 
ENDBRANCH  11  12
BRANCH   1  19
ATOM     19  C   UNL     1       2.776   7.095  19.057  0.00  0.00    +0.000 C 
BRANCH  19  22
ATOM     20  O   UNL     1       1.178   8.993  20.216  0.00  0.00    +0.000 OA
ATOM     21  C   UNL     1       1.389   9.102  19.014  0.00  0.00    +0.000 C 
ATOM     22  N   UNL     1       2.133   8.179  18.318  0.00  0.00    +0.000 N 
ATOM     23  N   UNL     1       0.924  10.118  18.205  0.00  0.00    +0.000 N 
ATOM     24  H   UNL     1       2.611   8.494  17.485  0.00  0.00    +0.000 HD
ATOM     25  H   UNL     1       0.907   9.909  17.217  0.00  0.00    +0.000 HD
BRANCH  23  26
ATOM     26  C   UNL     1       0.292  11.311  18.638  0.00  0.00    +0.000 A 
ATOM     27  C   UNL     1       0.943  12.543  18.699  0.00  0.00    +0.000 A 
ATOM     28  C   UNL     1       0.212  13.656  19.084  0.00  0.00    +0.000 A 
ATOM     29 CL   UNL     1       0.940  15.209  19.132  0.00  0.00    +0.000 Cl
ATOM     30  N   UNL     1      -1.091  13.642  19.410  0.00  0.00    +0.000 NA
ATOM     31  C   UNL     1      -1.688  12.441  19.349  0.00  0.00    +0.000 A 
ATOM     32 CL   UNL     1      -3.352  12.457  19.764  0.00  0.00    +0.000 Cl
ATOM     33  C   UNL     1      -1.061  11.261  18.973  0.00  0.00    +0.000 A 
ENDBRANCH  23  26
ENDBRANCH  19  22
ENDBRANCH   1  19
TORSDOF 4
ENDMDL
MODEL 5
REMARK VINA RESULT:      -9.0      5.161      6.587
REMARK  Name = 
REMARK  4 active torsions:
REMARK  status: ('A' for Active; 'I' for Inactive)
REMARK    1  A    between atoms: N_3  and  C_4
REMARK    2  A    between atoms: C_4  and  C_5
REMARK    3  A    between atoms: N_15  and  C_16
REMARK    4  A    between atoms: N_23  and  C_24
REMARK                            x       y       z     vdW  Elec       q    Type
REMARK                         _______ _______ _______ _____ _____    ______ ____
ROOT
ATOM      1  C   UNL     1       3.528   6.137  18.165  0.00  0.00    +0.000 A 
ATOM      2  N   UNL     1       4.179   6.626  17.149  0.00  0.00    +0.000 NA
ATOM      3  C   UNL     1       4.890   5.744  16.325  0.00  0.00    +0.000 A 
ATOM      4  C   UNL     1       5.461   6.225  15.142  0.00  0.00    +0.000 A 
ATOM      5  C   UNL     1       6.151   5.367  14.277  0.00  0.00    +0.000 A 
ATOM      6  C   UNL     1       6.287   4.016  14.590  0.00  0.00    +0.000 A 
ATOM      7  C   UNL     1       5.732   3.524  15.767  0.00  0.00    +0.000 A 
ATOM      8  C   UNL     1       5.036   4.392  16.621  0.00  0.00    +0.000 A 
ATOM      9  C   UNL     1       4.378   3.882  17.831  0.00  0.00    +0.000 A 
ATOM     10  O   UNL     1       4.564   2.708  18.145  0.00  0.00    +0.000 OA
ATOM     11  N   UNL     1       3.547   4.784  18.502  0.00  0.00    +0.000 N 
ENDROOT
BRANCH  11  12
ATOM     12  C   UNL     1       2.707   4.235  19.515  0.00  0.00    +0.000 A 
ATOM     13  C   UNL     1       3.141   4.198  20.849  0.00  0.00    +0.000 A 
ATOM     14  C   UNL     1       2.384   3.543  21.820  0.00  0.00    +0.000 A 
ATOM     15  C   UNL     1       1.205   2.907  21.452  0.00  0.00    +0.000 A 
ATOM     16  F   UNL     1       0.500   2.241  22.375  0.00  0.00    +0.000 F 
ATOM     17  C   UNL     1       0.757   2.933  20.135  0.00  0.00    +0.000 A 
ATOM     18  C   UNL     1       1.503   3.606  19.162  0.00  0.00    +0.000 A 
ENDBRANCH  11  12
BRANCH   1  19
ATOM     19  C   UNL     1       2.721   7.113  19.044  0.00  0.00    +0.000 C 
BRANCH  19  22
ATOM     20  O   UNL     1       1.061   8.984  20.158  0.00  0.00    +0.000 OA
ATOM     21  C   UNL     1       1.343   9.125  18.974  0.00  0.00    +0.000 C 
ATOM     22  N   UNL     1       2.124   8.218  18.299  0.00  0.00    +0.000 N 
ATOM     23  N   UNL     1       0.928  10.163  18.168  0.00  0.00    +0.000 N 
ATOM     24  H   UNL     1       2.652   8.554  17.504  0.00  0.00    +0.000 HD
ATOM     25  H   UNL     1       0.969   9.982  17.175  0.00  0.00    +0.000 HD
BRANCH  23  26
ATOM     26  C   UNL     1       0.274  11.347  18.594  0.00  0.00    +0.000 A 
ATOM     27  C   UNL     1      -1.056  11.378  19.010  0.00  0.00    +0.000 A 
ATOM     28  C   UNL     1      -1.578  12.581  19.460  0.00  0.00    +0.000 A 
ATOM     29 CL   UNL     1      -3.193  12.677  20.033  0.00  0.00    +0.000 Cl
ATOM     30  N   UNL     1      -0.895  13.737  19.524  0.00  0.00    +0.000 NA
ATOM     31  C   UNL     1       0.380  13.677  19.109  0.00  0.00    +0.000 A 
ATOM     32 CL   UNL     1       1.227  15.165  19.211  0.00  0.00    +0.000 Cl
ATOM     33  C   UNL     1       1.011  12.531  18.646  0.00  0.00    +0.000 A 
ENDBRANCH  23  26
ENDBRANCH  19  22
ENDBRANCH   1  19
TORSDOF 4
ENDMDL
MODEL 6
REMARK VINA RESULT:      -8.9      7.178      9.999
REMARK  Name = 
REMARK  4 active torsions:
REMARK  status: ('A' for Active; 'I' for Inactive)
REMARK    1  A    between atoms: N_3  and  C_4
REMARK    2  A    between atoms: C_4  and  C_5
REMARK    3  A    between atoms: N_15  and  C_16
REMARK    4  A    between atoms: N_23  and  C_24
REMARK                            x       y       z     vdW  Elec       q    Type
REMARK                         _______ _______ _______ _____ _____    ______ ____
ROOT
ATOM      1  C   UNL     1      -0.714  10.490  18.793  0.00  0.00    +0.000 A 
ATOM      2  N   UNL     1      -0.971   9.926  17.648  0.00  0.00    +0.000 NA
ATOM      3  C   UNL     1      -2.148  10.283  16.978  0.00  0.00    +0.000 A 
ATOM      4  C   UNL     1      -2.364   9.812  15.679  0.00  0.00    +0.000 A 
ATOM      5  C   UNL     1      -3.514  10.173  14.966  0.00  0.00    +0.000 A 
ATOM      6  C   UNL     1      -4.469  11.003  15.549  0.00  0.00    +0.000 A 
ATOM      7  C   UNL     1      -4.273  11.473  16.844  0.00  0.00    +0.000 A 
ATOM      8  C   UNL     1      -3.113  11.111  17.544  0.00  0.00    +0.000 A 
ATOM      9  C   UNL     1      -2.848  11.653  18.884  0.00  0.00    +0.000 A 
ATOM     10  O   UNL     1      -3.726  12.322  19.426  0.00  0.00    +0.000 OA
ATOM     11  N   UNL     1      -1.579  11.392  19.409  0.00  0.00    +0.000 N 
ENDROOT
BRANCH  11  12
ATOM     12  C   UNL     1      -1.219  12.124  20.579  0.00  0.00    +0.000 A 
ATOM     13  C   UNL     1      -1.528  11.619  21.851  0.00  0.00    +0.000 A 
ATOM     14  C   UNL     1      -1.301  12.389  22.991  0.00  0.00    +0.000 A 
ATOM     15  C   UNL     1      -0.782  13.670  22.857  0.00  0.00    +0.000 A 
ATOM     16  F   UNL     1      -0.603  14.426  23.947  0.00  0.00    +0.000 F 
ATOM     17  C   UNL     1      -0.467  14.189  21.605  0.00  0.00    +0.000 A 
ATOM     18  C   UNL     1      -0.676  13.413  20.461  0.00  0.00    +0.000 A 
ENDBRANCH  11  12
BRANCH   1  19
ATOM     19  C   UNL     1       0.602  10.115  19.504  0.00  0.00    +0.000 C 
BRANCH  19  22
ATOM     20  O   UNL     1       1.763   7.693  20.035  0.00  0.00    +0.000 OA
ATOM     21  C   UNL     1       2.060   8.232  18.975  0.00  0.00    +0.000 C 
ATOM     22  N   UNL     1       1.579   9.472  18.629  0.00  0.00    +0.000 N 
ATOM     23  N   UNL     1       2.896   7.706  18.013  0.00  0.00    +0.000 N 
ATOM     24  H   UNL     1       1.503   9.687  17.644  0.00  0.00    +0.000 HD
ATOM     25  H   UNL     1       3.289   8.378  17.369  0.00  0.00    +0.000 HD
BRANCH  23  26
ATOM     26  C   UNL     1       3.405   6.383  17.976  0.00  0.00    +0.000 A 
ATOM     27  C   UNL     1       2.591   5.252  17.924  0.00  0.00    +0.000 A 
ATOM     28  C   UNL     1       3.196   4.008  17.835  0.00  0.00    +0.000 A 
ATOM     29 CL   UNL     1       2.252   2.580  17.717  0.00  0.00    +0.000 Cl
ATOM     30  N   UNL     1       4.523   3.803  17.796  0.00  0.00    +0.000 NA
ATOM     31  C   UNL     1       5.280   4.910  17.857  0.00  0.00    +0.000 A 
ATOM     32 CL   UNL     1       6.969   4.615  17.798  0.00  0.00    +0.000 Cl
ATOM     33  C   UNL     1       4.788   6.204  17.941  0.00  0.00    +0.000 A 
ENDBRANCH  23  26
ENDBRANCH  19  22
ENDBRANCH   1  19
TORSDOF 4
ENDMDL
MODEL 7
REMARK VINA RESULT:      -8.8      7.800     10.816
REMARK  Name = 
REMARK  4 active torsions:
REMARK  status: ('A' for Active; 'I' for Inactive)
REMARK    1  A    between atoms: N_3  and  C_4
REMARK    2  A    between atoms: C_4  and  C_5
REMARK    3  A    between atoms: N_15  and  C_16
REMARK    4  A    between atoms: N_23  and  C_24
REMARK                            x       y       z     vdW  Elec       q    Type
REMARK                         _______ _______ _______ _____ _____    ______ ____
ROOT
ATOM      1  C   UNL     1      -1.002  10.901  19.767  0.00  0.00    +0.000 A 
ATOM      2  N   UNL     1      -1.070  10.226  18.656  0.00  0.00    +0.000 NA
ATOM      3  C   UNL     1      -2.124  10.495  17.775  0.00  0.00    +0.000 A 
ATOM      4  C   UNL     1      -2.126   9.899  16.510  0.00  0.00    +0.000 A 
ATOM      5  C   UNL     1      -3.147  10.168  15.590  0.00  0.00    +0.000 A 
ATOM      6  C   UNL     1      -4.186  11.032  15.929  0.00  0.00    +0.000 A 
ATOM      7  C   UNL     1      -4.203  11.627  17.187  0.00  0.00    +0.000 A 
ATOM      8  C   UNL     1      -3.171  11.355  18.095  0.00  0.00    +0.000 A 
ATOM      9  C   UNL     1      -3.128  12.027  19.401  0.00  0.00    +0.000 A 
ATOM     10  O   UNL     1      -4.083  12.727  19.728  0.00  0.00    +0.000 OA
ATOM     11  N   UNL     1      -1.959  11.841  20.146  0.00  0.00    +0.000 N 
ENDROOT
BRANCH  11  12
ATOM     12  C   UNL     1      -1.794  12.688  21.282  0.00  0.00    +0.000 A 
ATOM     13  C   UNL     1      -0.996  13.839  21.195  0.00  0.00    +0.000 A 
ATOM     14  C   UNL     1      -0.722  14.596  22.333  0.00  0.00    +0.000 A 
ATOM     15  C   UNL     1      -1.230  14.191  23.561  0.00  0.00    +0.000 A 
ATOM     16  F   UNL     1      -0.933  14.893  24.661  0.00  0.00    +0.000 F 
ATOM     17  C   UNL     1      -2.025  13.054  23.668  0.00  0.00    +0.000 A 
ATOM     18  C   UNL     1      -2.318  12.303  22.525  0.00  0.00    +0.000 A 
ENDBRANCH  11  12
BRANCH   1  19
ATOM     19  C   UNL     1       0.183  10.621  20.713  0.00  0.00    +0.000 C 
BRANCH  19  22
ATOM     20  O   UNL     1       0.442   7.945  21.233  0.00  0.00    +0.000 OA
ATOM     21  C   UNL     1       1.221   8.432  20.421  0.00  0.00    +0.000 C 
ATOM     22  N   UNL     1       1.217   9.774  20.123  0.00  0.00    +0.000 N 
ATOM     23  N   UNL     1       2.187   7.742  19.721  0.00  0.00    +0.000 N 
ATOM     24  H   UNL     1       1.552  10.052  19.210  0.00  0.00    +0.000 HD
ATOM     25  H   UNL     1       2.936   8.308  19.348  0.00  0.00    +0.000 HD
BRANCH  23  26
ATOM     26  C   UNL     1       2.332   6.332  19.659  0.00  0.00    +0.000 A 
ATOM     27  C   UNL     1       1.936   5.476  20.685  0.00  0.00    +0.000 A 
ATOM     28  C   UNL     1       2.074   4.111  20.494  0.00  0.00    +0.000 A 
ATOM     29 CL   UNL     1       1.559   3.001  21.698  0.00  0.00    +0.000 Cl
ATOM     30  N   UNL     1       2.568   3.538  19.384  0.00  0.00    +0.000 NA
ATOM     31  C   UNL     1       2.948   4.388  18.417  0.00  0.00    +0.000 A 
ATOM     32 CL   UNL     1       3.567   3.627  17.010  0.00  0.00    +0.000 Cl
ATOM     33  C   UNL     1       2.853   5.770  18.493  0.00  0.00    +0.000 A 
ENDBRANCH  23  26
ENDBRANCH  19  22
ENDBRANCH   1  19
TORSDOF 4
ENDMDL
MODEL 8
REMARK VINA RESULT:      -8.8      5.230      6.718
REMARK  Name = 
REMARK  4 active torsions:
REMARK  status: ('A' for Active; 'I' for Inactive)
REMARK    1  A    between atoms: N_3  and  C_4
REMARK    2  A    between atoms: C_4  and  C_5
REMARK    3  A    between atoms: N_15  and  C_16
REMARK    4  A    between atoms: N_23  and  C_24
REMARK                            x       y       z     vdW  Elec       q    Type
REMARK                         _______ _______ _______ _____ _____    ______ ____
ROOT
ATOM      1  C   UNL     1       3.693   5.759  18.320  0.00  0.00    +0.000 A 
ATOM      2  N   UNL     1       4.313   6.347  17.338  0.00  0.00    +0.000 NA
ATOM      3  C   UNL     1       4.934   5.550  16.368  0.00  0.00    +0.000 A 
ATOM      4  C   UNL     1       5.466   6.156  15.225  0.00  0.00    +0.000 A 
ATOM      5  C   UNL     1       6.065   5.389  14.219  0.00  0.00    +0.000 A 
ATOM      6  C   UNL     1       6.150   4.004  14.349  0.00  0.00    +0.000 A 
ATOM      7  C   UNL     1       5.634   3.388  15.484  0.00  0.00    +0.000 A 
ATOM      8  C   UNL     1       5.028   4.166  16.480  0.00  0.00    +0.000 A 
ATOM      9  C   UNL     1       4.410   3.532  17.653  0.00  0.00    +0.000 A 
ATOM     10  O   UNL     1       4.553   2.320  17.803  0.00  0.00    +0.000 OA
ATOM     11  N   UNL     1       3.662   4.375  18.480  0.00  0.00    +0.000 N 
ENDROOT
BRANCH  11  12
ATOM     12  C   UNL     1       2.850   3.735  19.462  0.00  0.00    +0.000 A 
ATOM     13  C   UNL     1       1.451   3.790  19.367  0.00  0.00    +0.000 A 
ATOM     14  C   UNL     1       0.652   3.284  20.392  0.00  0.00    +0.000 A 
ATOM     15  C   UNL     1       1.253   2.740  21.520  0.00  0.00    +0.000 A 
ATOM     16  F   UNL     1       0.488   2.293  22.523  0.00  0.00    +0.000 F 
ATOM     17  C   UNL     1       2.638   2.675  21.633  0.00  0.00    +0.000 A 
ATOM     18  C   UNL     1       3.442   3.164  20.599  0.00  0.00    +0.000 A 
ENDBRANCH  11  12
BRANCH   1  19
ATOM     19  C   UNL     1       2.983   6.646  19.362  0.00  0.00    +0.000 C 
BRANCH  19  22
ATOM     20  O   UNL     1       1.385   8.347  20.794  0.00  0.00    +0.000 OA
ATOM     21  C   UNL     1       1.551   8.606  19.608  0.00  0.00    +0.000 C 
ATOM     22  N   UNL     1       2.290   7.793  18.781  0.00  0.00    +0.000 N 
ATOM     23  N   UNL     1       1.034   9.698  18.944  0.00  0.00    +0.000 N 
ATOM     24  H   UNL     1       2.732   8.220  17.978  0.00  0.00    +0.000 HD
ATOM     25  H   UNL     1       0.987   9.610  17.939  0.00  0.00    +0.000 HD
BRANCH  23  26
ATOM     26  C   UNL     1       0.391  10.814  19.538  0.00  0.00    +0.000 A 
ATOM     27  C   UNL     1       1.072  11.804  20.244  0.00  0.00    +0.000 A 
ATOM     28  C   UNL     1       0.349  12.879  20.736  0.00  0.00    +0.000 A 
ATOM     29 CL   UNL     1       1.135  14.156  21.570  0.00  0.00    +0.000 Cl
ATOM     30  N   UNL     1      -0.976  13.044  20.586  0.00  0.00    +0.000 NA
ATOM     31  C   UNL     1      -1.606  12.071  19.909  0.00  0.00    +0.000 A 
ATOM     32 CL   UNL     1      -3.294  12.314  19.729  0.00  0.00    +0.000 Cl
ATOM     33  C   UNL     1      -0.987  10.953  19.367  0.00  0.00    +0.000 A 
ENDBRANCH  23  26
ENDBRANCH  19  22
ENDBRANCH   1  19
TORSDOF 4
ENDMDL
MODEL 9
REMARK VINA RESULT:      -8.7      7.120      9.950
REMARK  Name = 
REMARK  4 active torsions:
REMARK  status: ('A' for Active; 'I' for Inactive)
REMARK    1  A    between atoms: N_3  and  C_4
REMARK    2  A    between atoms: C_4  and  C_5
REMARK    3  A    between atoms: N_15  and  C_16
REMARK    4  A    between atoms: N_23  and  C_24
REMARK                            x       y       z     vdW  Elec       q    Type
REMARK                         _______ _______ _______ _____ _____    ______ ____
ROOT
ATOM      1  C   UNL     1      -0.675  10.442  18.759  0.00  0.00    +0.000 A 
ATOM      2  N   UNL     1      -0.934   9.872  17.618  0.00  0.00    +0.000 NA
ATOM      3  C   UNL     1      -2.107  10.232  16.943  0.00  0.00    +0.000 A 
ATOM      4  C   UNL     1      -2.325   9.754  15.647  0.00  0.00    +0.000 A 
ATOM      5  C   UNL     1      -3.470  10.118  14.929  0.00  0.00    +0.000 A 
ATOM      6  C   UNL     1      -4.420  10.960  15.505  0.00  0.00    +0.000 A 
ATOM      7  C   UNL     1      -4.223  11.437  16.797  0.00  0.00    +0.000 A 
ATOM      8  C   UNL     1      -3.067  11.072  17.501  0.00  0.00    +0.000 A 
ATOM      9  C   UNL     1      -2.801  11.622  18.838  0.00  0.00    +0.000 A 
ATOM     10  O   UNL     1      -3.675  12.300  19.373  0.00  0.00    +0.000 OA
ATOM     11  N   UNL     1      -1.534  11.355  19.367  0.00  0.00    +0.000 N 
ENDROOT
BRANCH  11  12
ATOM     12  C   UNL     1      -1.171  12.093  20.532  0.00  0.00    +0.000 A 
ATOM     13  C   UNL     1      -1.500  11.606  21.807  0.00  0.00    +0.000 A 
ATOM     14  C   UNL     1      -1.268  12.383  22.941  0.00  0.00    +0.000 A 
ATOM     15  C   UNL     1      -0.726  13.654  22.798  0.00  0.00    +0.000 A 
ATOM     16  F   UNL     1      -0.542  14.418  23.882  0.00  0.00    +0.000 F 
ATOM     17  C   UNL     1      -0.392  14.154  21.544  0.00  0.00    +0.000 A 
ATOM     18  C   UNL     1      -0.605  13.370  20.406  0.00  0.00    +0.000 A 
ENDBRANCH  11  12
BRANCH   1  19
ATOM     19  C   UNL     1       0.637  10.063  19.475  0.00  0.00    +0.000 C 
BRANCH  19  22
ATOM     20  O   UNL     1       1.881   7.666  19.925  0.00  0.00    +0.000 OA
ATOM     21  C   UNL     1       2.169   8.256  18.890  0.00  0.00    +0.000 C 
ATOM     22  N   UNL     1       1.646   9.491  18.587  0.00  0.00    +0.000 N 
ATOM     23  N   UNL     1       3.033   7.799  17.918  0.00  0.00    +0.000 N 
ATOM     24  H   UNL     1       1.572   9.741  17.610  0.00  0.00    +0.000 HD
ATOM     25  H   UNL     1       3.407   8.509  17.305  0.00  0.00    +0.000 HD
BRANCH  23  26
ATOM     26  C   UNL     1       3.590   6.498  17.836  0.00  0.00    +0.000 A 
ATOM     27  C   UNL     1       4.961   6.255  17.766  0.00  0.00    +0.000 A 
ATOM     28  C   UNL     1       5.398   4.940  17.744  0.00  0.00    +0.000 A 
ATOM     29 CL   UNL     1       7.074   4.573  17.709  0.00  0.00    +0.000 Cl
ATOM     30  N   UNL     1       4.594   3.865  17.783  0.00  0.00    +0.000 NA
ATOM     31  C   UNL     1       3.279   4.130  17.841  0.00  0.00    +0.000 A 
ATOM     32 CL   UNL     1       2.279   2.738  17.897  0.00  0.00    +0.000 Cl
ATOM     33  C   UNL     1       2.727   5.403  17.874  0.00  0.00    +0.000 A 
ENDBRANCH  23  26
ENDBRANCH  19  22
ENDBRANCH   1  19
TORSDOF 4
ENDMDL
