MODEL 1
REMARK VINA RESULT:      -7.3      0.000      0.000
REMARK  Name = 
REMARK  3 active torsions:
REMARK  status: ('A' for Active; 'I' for Inactive)
REMARK    1  A    between atoms: N_1  and  C_2
REMARK    2  A    between atoms: C_8  and  C_9
REMARK    3  A    between atoms: N_11  and  C_12
REMARK                            x       y       z     vdW  Elec       q    Type
REMARK                         _______ _______ _______ _____ _____    ______ ____
ROOT
ATOM      1  C   UNL     1       6.930   5.380  16.128  0.00  0.00    +0.000 A 
ATOM      2  N   UNL     1       7.663   5.518  15.004  0.00  0.00    +0.000 NA
ATOM      3  C   UNL     1       7.243   4.864  13.889  0.00  0.00    +0.000 A 
ATOM      4  C   UNL     1       6.098   4.094  13.839  0.00  0.00    +0.000 A 
ATOM      5 BR   UNL     1       5.571   3.228  12.252  0.00  0.00    +0.000 Br
ATOM      6  C   UNL     1       5.345   3.967  14.994  0.00  0.00    +0.000 A 
ATOM      7  C   UNL     1       5.763   4.615  16.168  0.00  0.00    +0.000 A 
ENDROOT
BRANCH   7   8
ATOM      8  C   UNL     1       4.953   4.385  17.389  0.00  0.00    +0.000 C 
ATOM      9  O   UNL     1       5.557   4.042  18.400  0.00  0.00    +0.000 OA
ATOM     10  N   UNL     1       3.580   4.514  17.266  0.00  0.00    +0.000 N 
ATOM     11  H   UNL     1       3.217   4.711  16.335  0.00  0.00    +0.000 HD
BRANCH  10  12
ATOM     12  C   UNL     1       2.637   4.269  18.292  0.00  0.00    +0.000 A 
ATOM     13  C   UNL     1       2.441   5.132  19.369  0.00  0.00    +0.000 A 
ATOM     14  C   UNL     1       1.526   4.785  20.348  0.00  0.00    +0.000 A 
ATOM     15  N   UNL     1       0.800   3.649  20.325  0.00  0.00    +0.000 NA
ATOM     16  C   UNL     1       0.994   2.833  19.268  0.00  0.00    +0.000 A 
ATOM     17  C   UNL     1       1.876   3.103  18.230  0.00  0.00    +0.000 A 
ENDBRANCH  10  12
ENDBRANCH   7   8
BRANCH   1  18
ATOM     18  N   UNL     1       7.438   6.070  17.230  0.00  0.00    +0.000 N 
ATOM     19  H   UNL     1       6.979   6.979  17.230  0.00  0.00    +0.000 HD
ATOM     20  H   UNL     1       8.447   6.184  17.156  0.00  0.00    +0.000 HD
ENDBRANCH   1  18
TORSDOF 3
ENDMDL
MODEL 2
REMARK VINA RESULT:      -7.2      0.196      1.151
REMARK  Name = 
REMARK  3 active torsions:
REMARK  status: ('A' for Active; 'I' for Inactive)
REMARK    1  A    between atoms: N_1  and  C_2
REMARK    2  A    between atoms: C_8  and  C_9
REMARK    3  A    between atoms: N_11  and  C_12
REMARK                            x       y       z     vdW  Elec       q    Type
REMARK                         _______ _______ _______ _____ _____    ______ ____
ROOT
ATOM      1  C   UNL     1       6.981   5.391  16.075  0.00  0.00    +0.000 A 
ATOM      2  N   UNL     1       7.688   5.523  14.933  0.00  0.00    +0.000 NA
ATOM      3  C   UNL     1       7.244   4.861  13.833  0.00  0.00    +0.000 A 
ATOM      4  C   UNL     1       6.101   4.086  13.815  0.00  0.00    +0.000 A 
ATOM      5 BR   UNL     1       5.539   3.208  12.247  0.00  0.00    +0.000 Br
ATOM      6  C   UNL     1       5.375   3.965  14.988  0.00  0.00    +0.000 A 
ATOM      7  C   UNL     1       5.819   4.623  16.148  0.00  0.00    +0.000 A 
ENDROOT
BRANCH   7   8
ATOM      8  C   UNL     1       5.038   4.398  17.388  0.00  0.00    +0.000 C 
ATOM      9  O   UNL     1       5.658   4.012  18.374  0.00  0.00    +0.000 OA
ATOM     10  N   UNL     1       3.668   4.582  17.312  0.00  0.00    +0.000 N 
ATOM     11  H   UNL     1       3.284   4.811  16.396  0.00  0.00    +0.000 HD
BRANCH  10  12
ATOM     12  C   UNL     1       2.747   4.352  18.362  0.00  0.00    +0.000 A 
ATOM     13  C   UNL     1       1.898   3.248  18.402  0.00  0.00    +0.000 A 
ATOM     14  C   UNL     1       0.999   3.133  19.448  0.00  0.00    +0.000 A 
ATOM     15  N   UNL     1       0.893   4.033  20.448  0.00  0.00    +0.000 NA
ATOM     16  C   UNL     1       1.733   5.087  20.397  0.00  0.00    +0.000 A 
ATOM     17  C   UNL     1       2.678   5.281  19.399  0.00  0.00    +0.000 A 
ENDBRANCH  10  12
ENDBRANCH   7   8
BRANCH   1  18
ATOM     18  N   UNL     1       7.513   6.090  17.160  0.00  0.00    +0.000 N 
ATOM     19  H   UNL     1       6.914   5.872  17.956  0.00  0.00    +0.000 HD
ATOM     20  H   UNL     1       7.515   7.092  16.984  0.00  0.00    +0.000 HD
ENDBRANCH   1  18
TORSDOF 3
ENDMDL
MODEL 3
REMARK VINA RESULT:      -7.2      1.173      1.415
REMARK  Name = 
REMARK  3 active torsions:
REMARK  status: ('A' for Active; 'I' for Inactive)
REMARK    1  A    between atoms: N_1  and  C_2
REMARK    2  A    between atoms: C_8  and  C_9
REMARK    3  A    between atoms: N_11  and  C_12
REMARK                            x       y       z     vdW  Elec       q    Type
REMARK                         _______ _______ _______ _____ _____    ______ ____
ROOT
ATOM      1  C   UNL     1       6.591   5.544  16.335  0.00  0.00    +0.000 A 
ATOM      2  N   UNL     1       7.547   5.556  15.384  0.00  0.00    +0.000 NA
ATOM      3  C   UNL     1       7.307   4.870  14.236  0.00  0.00    +0.000 A 
ATOM      4  C   UNL     1       6.133   4.187  13.983  0.00  0.00    +0.000 A 
ATOM      5 BR   UNL     1       5.866   3.269  12.360  0.00  0.00    +0.000 Br
ATOM      6  C   UNL     1       5.152   4.190  14.960  0.00  0.00    +0.000 A 
ATOM      7  C   UNL     1       5.378   4.875  16.166  0.00  0.00    +0.000 A 
ENDROOT
BRANCH   7   8
ATOM      8  C   UNL     1       4.319   4.783  17.200  0.00  0.00    +0.000 C 
ATOM      9  O   UNL     1       3.859   5.840  17.620  0.00  0.00    +0.000 OA
ATOM     10  N   UNL     1       3.985   3.516  17.648  0.00  0.00    +0.000 N 
ATOM     11  H   UNL     1       4.524   2.737  17.272  0.00  0.00    +0.000 HD
BRANCH  10  12
ATOM     12  C   UNL     1       3.053   3.226  18.673  0.00  0.00    +0.000 A 
ATOM     13  C   UNL     1       1.680   3.138  18.451  0.00  0.00    +0.000 A 
ATOM     14  C   UNL     1       0.843   2.894  19.526  0.00  0.00    +0.000 A 
ATOM     15  N   UNL     1       1.278   2.731  20.792  0.00  0.00    +0.000 NA
ATOM     16  C   UNL     1       2.611   2.806  20.983  0.00  0.00    +0.000 A 
ATOM     17  C   UNL     1       3.531   3.031  19.967  0.00  0.00    +0.000 A 
ENDBRANCH  10  12
ENDBRANCH   7   8
BRANCH   1  18
ATOM     18  N   UNL     1       6.922   6.259  17.488  0.00  0.00    +0.000 N 
ATOM     19  H   UNL     1       7.596   6.966  17.196  0.00  0.00    +0.000 HD
ATOM     20  H   UNL     1       7.334   5.648  18.190  0.00  0.00    +0.000 HD
ENDBRANCH   1  18
TORSDOF 3
ENDMDL
MODEL 4
REMARK VINA RESULT:      -7.1      1.133      1.160
REMARK  Name = 
REMARK  3 active torsions:
REMARK  status: ('A' for Active; 'I' for Inactive)
REMARK    1  A    between atoms: N_1  and  C_2
REMARK    2  A    between atoms: C_8  and  C_9
REMARK    3  A    between atoms: N_11  and  C_12
REMARK                            x       y       z     vdW  Elec       q    Type
REMARK                         _______ _______ _______ _____ _____    ______ ____
ROOT
ATOM      1  C   UNL     1       6.662   5.535  16.202  0.00  0.00    +0.000 A 
ATOM      2  N   UNL     1       7.593   5.523  15.225  0.00  0.00    +0.000 NA
ATOM      3  C   UNL     1       7.315   4.826  14.093  0.00  0.00    +0.000 A 
ATOM      4  C   UNL     1       6.126   4.156  13.878  0.00  0.00    +0.000 A 
ATOM      5 BR   UNL     1       5.805   3.223  12.274  0.00  0.00    +0.000 Br
ATOM      6  C   UNL     1       5.171   4.182  14.881  0.00  0.00    +0.000 A 
ATOM      7  C   UNL     1       5.437   4.878  16.072  0.00  0.00    +0.000 A 
ENDROOT
BRANCH   7   8
ATOM      8  C   UNL     1       4.404   4.811  17.134  0.00  0.00    +0.000 C 
ATOM      9  O   UNL     1       3.987   5.879  17.572  0.00  0.00    +0.000 OA
ATOM     10  N   UNL     1       4.045   3.553  17.584  0.00  0.00    +0.000 N 
ATOM     11  H   UNL     1       4.550   2.761  17.190  0.00  0.00    +0.000 HD
BRANCH  10  12
ATOM     12  C   UNL     1       3.133   3.284  18.633  0.00  0.00    +0.000 A 
ATOM     13  C   UNL     1       3.530   3.077  19.953  0.00  0.00    +0.000 A 
ATOM     14  C   UNL     1       2.568   2.775  20.901  0.00  0.00    +0.000 A 
ATOM     15  N   UNL     1       1.252   2.669  20.627  0.00  0.00    +0.000 NA
ATOM     16  C   UNL     1       0.887   2.885  19.346  0.00  0.00    +0.000 A 
ATOM     17  C   UNL     1       1.775   3.209  18.329  0.00  0.00    +0.000 A 
ENDBRANCH  10  12
ENDBRANCH   7   8
BRANCH   1  18
ATOM     18  N   UNL     1       7.032   6.258  17.336  0.00  0.00    +0.000 N 
ATOM     19  H   UNL     1       6.179   6.697  17.682  0.00  0.00    +0.000 HD
ATOM     20  H   UNL     1       7.725   6.967  17.107  0.00  0.00    +0.000 HD
ENDBRANCH   1  18
TORSDOF 3
ENDMDL
MODEL 5
REMARK VINA RESULT:      -6.9      0.986      1.189
REMARK  Name = 
REMARK  3 active torsions:
REMARK  status: ('A' for Active; 'I' for Inactive)
REMARK    1  A    between atoms: N_1  and  C_2
REMARK    2  A    between atoms: C_8  and  C_9
REMARK    3  A    between atoms: N_11  and  C_12
REMARK                            x       y       z     vdW  Elec       q    Type
REMARK                         _______ _______ _______ _____ _____    ______ ____
ROOT
ATOM      1  C   UNL     1       7.015   5.449  16.469  0.00  0.00    +0.000 A 
ATOM      2  N   UNL     1       7.608   5.641  15.273  0.00  0.00    +0.000 NA
ATOM      3  C   UNL     1       7.088   4.997  14.196  0.00  0.00    +0.000 A 
ATOM      4  C   UNL     1       5.975   4.181  14.256  0.00  0.00    +0.000 A 
ATOM      5 BR   UNL     1       5.302   3.331  12.717  0.00  0.00    +0.000 Br
ATOM      6  C   UNL     1       5.365   3.997  15.485  0.00  0.00    +0.000 A 
ATOM      7  C   UNL     1       5.891   4.636  16.621  0.00  0.00    +0.000 A 
ENDROOT
BRANCH   7   8
ATOM      8  C   UNL     1       5.235   4.345  17.919  0.00  0.00    +0.000 C 
ATOM      9  O   UNL     1       5.969   4.196  18.891  0.00  0.00    +0.000 OA
ATOM     10  N   UNL     1       3.858   4.203  17.912  0.00  0.00    +0.000 N 
ATOM     11  H   UNL     1       3.394   4.260  17.007  0.00  0.00    +0.000 HD
BRANCH  10  12
ATOM     12  C   UNL     1       3.061   3.859  19.029  0.00  0.00    +0.000 A 
ATOM     13  C   UNL     1       3.387   2.829  19.908  0.00  0.00    +0.000 A 
ATOM     14  C   UNL     1       2.520   2.537  20.948  0.00  0.00    +0.000 A 
ATOM     15  N   UNL     1       1.365   3.197  21.168  0.00  0.00    +0.000 NA
ATOM     16  C   UNL     1       1.075   4.200  20.314  0.00  0.00    +0.000 A 
ATOM     17  C   UNL     1       1.888   4.577  19.253  0.00  0.00    +0.000 A 
ENDBRANCH  10  12
ENDBRANCH   7   8
BRANCH   1  18
ATOM     18  N   UNL     1       7.620   6.133  17.524  0.00  0.00    +0.000 N 
ATOM     19  H   UNL     1       6.867   6.607  18.022  0.00  0.00    +0.000 HD
ATOM     20  H   UNL     1       8.296   6.811  17.180  0.00  0.00    +0.000 HD
ENDBRANCH   1  18
TORSDOF 3
ENDMDL
MODEL 6
REMARK VINA RESULT:      -6.3      1.342      1.639
REMARK  Name = 
REMARK  3 active torsions:
REMARK  status: ('A' for Active; 'I' for Inactive)
REMARK    1  A    between atoms: N_1  and  C_2
REMARK    2  A    between atoms: C_8  and  C_9
REMARK    3  A    between atoms: N_11  and  C_12
REMARK                            x       y       z     vdW  Elec       q    Type
REMARK                         _______ _______ _______ _____ _____    ______ ____
ROOT
ATOM      1  C   UNL     1       6.841   5.577  16.133  0.00  0.00    +0.000 A 
ATOM      2  N   UNL     1       7.652   5.441  15.064  0.00  0.00    +0.000 NA
ATOM      3  C   UNL     1       7.180   4.750  13.994  0.00  0.00    +0.000 A 
ATOM      4  C   UNL     1       5.912   4.206  13.933  0.00  0.00    +0.000 A 
ATOM      5 BR   UNL     1       5.320   3.272  12.408  0.00  0.00    +0.000 Br
ATOM      6  C   UNL     1       5.081   4.360  15.030  0.00  0.00    +0.000 A 
ATOM      7  C   UNL     1       5.548   5.054  16.160  0.00  0.00    +0.000 A 
ENDROOT
BRANCH   7   8
ATOM      8  C   UNL     1       4.637   5.125  17.328  0.00  0.00    +0.000 C 
ATOM      9  O   UNL     1       4.128   6.215  17.570  0.00  0.00    +0.000 OA
ATOM     10  N   UNL     1       4.490   3.973  18.082  0.00  0.00    +0.000 N 
ATOM     11  H   UNL     1       5.054   3.170  17.812  0.00  0.00    +0.000 HD
BRANCH  10  12
ATOM     12  C   UNL     1       3.724   3.859  19.267  0.00  0.00    +0.000 A 
ATOM     13  C   UNL     1       3.649   2.686  20.014  0.00  0.00    +0.000 A 
ATOM     14  C   UNL     1       2.836   2.658  21.135  0.00  0.00    +0.000 A 
ATOM     15  N   UNL     1       2.104   3.709  21.557  0.00  0.00    +0.000 NA
ATOM     16  C   UNL     1       2.201   4.839  20.826  0.00  0.00    +0.000 A 
ATOM     17  C   UNL     1       3.000   4.969  19.698  0.00  0.00    +0.000 A 
ENDBRANCH  10  12
ENDBRANCH   7   8
BRANCH   1  18
ATOM     18  N   UNL     1       7.408   6.285  17.194  0.00  0.00    +0.000 N 
ATOM     19  H   UNL     1       8.066   6.941  16.775  0.00  0.00    +0.000 HD
ATOM     20  H   UNL     1       7.894   5.659  17.833  0.00  0.00    +0.000 HD
ENDBRANCH   1  18
TORSDOF 3
ENDMDL
MODEL 7
REMARK VINA RESULT:      -6.2      3.707      6.811
REMARK  Name = 
REMARK  3 active torsions:
REMARK  status: ('A' for Active; 'I' for Inactive)
REMARK    1  A    between atoms: N_1  and  C_2
REMARK    2  A    between atoms: C_8  and  C_9
REMARK    3  A    between atoms: N_11  and  C_12
REMARK                            x       y       z     vdW  Elec       q    Type
REMARK                         _______ _______ _______ _____ _____    ______ ____
ROOT
ATOM      1  C   UNL     1       1.985   6.827  20.276  0.00  0.00    +0.000 A 
ATOM      2  N   UNL     1       1.290   7.684  21.052  0.00  0.00    +0.000 NA
ATOM      3  C   UNL     1       1.007   8.912  20.545  0.00  0.00    +0.000 A 
ATOM      4  C   UNL     1       1.368   9.318  19.275  0.00  0.00    +0.000 A 
ATOM      5 BR   UNL     1       0.927  11.033  18.634  0.00  0.00    +0.000 Br
ATOM      6  C   UNL     1       2.071   8.428  18.480  0.00  0.00    +0.000 A 
ATOM      7  C   UNL     1       2.395   7.157  18.983  0.00  0.00    +0.000 A 
ENDROOT
BRANCH   7   8
ATOM      8  C   UNL     1       3.209   6.276  18.111  0.00  0.00    +0.000 C 
ATOM      9  O   UNL     1       2.736   5.178  17.834  0.00  0.00    +0.000 OA
ATOM     10  N   UNL     1       4.457   6.741  17.736  0.00  0.00    +0.000 N 
ATOM     11  H   UNL     1       4.752   7.635  18.124  0.00  0.00    +0.000 HD
BRANCH  10  12
ATOM     12  C   UNL     1       5.405   6.024  16.967  0.00  0.00    +0.000 A 
ATOM     13  C   UNL     1       5.341   5.924  15.579  0.00  0.00    +0.000 A 
ATOM     14  C   UNL     1       6.289   5.161  14.918  0.00  0.00    +0.000 A 
ATOM     15  N   UNL     1       7.287   4.502  15.541  0.00  0.00    +0.000 NA
ATOM     16  C   UNL     1       7.339   4.623  16.884  0.00  0.00    +0.000 A 
ATOM     17  C   UNL     1       6.445   5.376  17.632  0.00  0.00    +0.000 A 
ENDBRANCH  10  12
ENDBRANCH   7   8
BRANCH   1  18
ATOM     18  N   UNL     1       2.248   5.595  20.877  0.00  0.00    +0.000 N 
ATOM     19  H   UNL     1       2.656   5.808  21.787  0.00  0.00    +0.000 HD
ATOM     20  H   UNL     1       2.899   5.048  20.319  0.00  0.00    +0.000 HD
ENDBRANCH   1  18
TORSDOF 3
ENDMDL
MODEL 8
REMARK VINA RESULT:      -6.1      3.648      6.757
REMARK  Name = 
REMARK  3 active torsions:
REMARK  status: ('A' for Active; 'I' for Inactive)
REMARK    1  A    between atoms: N_1  and  C_2
REMARK    2  A    between atoms: C_8  and  C_9
REMARK    3  A    between atoms: N_11  and  C_12
REMARK                            x       y       z     vdW  Elec       q    Type
REMARK                         _______ _______ _______ _____ _____    ______ ____
ROOT
ATOM      1  C   UNL     1       1.992   6.794  20.302  0.00  0.00    +0.000 A 
ATOM      2  N   UNL     1       1.288   7.679  21.039  0.00  0.00    +0.000 NA
ATOM      3  C   UNL     1       1.019   8.891  20.488  0.00  0.00    +0.000 A 
ATOM      4  C   UNL     1       1.403   9.254  19.212  0.00  0.00    +0.000 A 
ATOM      5 BR   UNL     1       0.981  10.950  18.509  0.00  0.00    +0.000 Br
ATOM      6  C   UNL     1       2.116   8.337  18.458  0.00  0.00    +0.000 A 
ATOM      7  C   UNL     1       2.426   7.081  19.007  0.00  0.00    +0.000 A 
ENDROOT
BRANCH   7   8
ATOM      8  C   UNL     1       3.251   6.170  18.177  0.00  0.00    +0.000 C 
ATOM      9  O   UNL     1       2.812   5.040  17.989  0.00  0.00    +0.000 OA
ATOM     10  N   UNL     1       4.473   6.650  17.739  0.00  0.00    +0.000 N 
ATOM     11  H   UNL     1       4.744   7.579  18.057  0.00  0.00    +0.000 HD
BRANCH  10  12
ATOM     12  C   UNL     1       5.428   5.914  16.998  0.00  0.00    +0.000 A 
ATOM     13  C   UNL     1       6.471   5.207  17.592  0.00  0.00    +0.000 A 
ATOM     14  C   UNL     1       7.383   4.554  16.781  0.00  0.00    +0.000 A 
ATOM     15  N   UNL     1       7.324   4.556  15.434  0.00  0.00    +0.000 NA
ATOM     16  C   UNL     1       6.299   5.235  14.879  0.00  0.00    +0.000 A 
ATOM     17  C   UNL     1       5.327   5.907  15.608  0.00  0.00    +0.000 A 
ENDBRANCH  10  12
ENDBRANCH   7   8
BRANCH   1  18
ATOM     18  N   UNL     1       2.239   5.581  20.947  0.00  0.00    +0.000 N 
ATOM     19  H   UNL     1       2.299   4.878  20.211  0.00  0.00    +0.000 HD
ATOM     20  H   UNL     1       1.487   5.351  21.593  0.00  0.00    +0.000 HD
ENDBRANCH   1  18
TORSDOF 3
ENDMDL
MODEL 9
REMARK VINA RESULT:      -6.0      2.822      6.377
REMARK  Name = 
REMARK  3 active torsions:
REMARK  status: ('A' for Active; 'I' for Inactive)
REMARK    1  A    between atoms: N_1  and  C_2
REMARK    2  A    between atoms: C_8  and  C_9
REMARK    3  A    between atoms: N_11  and  C_12
REMARK                            x       y       z     vdW  Elec       q    Type
REMARK                         _______ _______ _______ _____ _____    ______ ____
ROOT
ATOM      1  C   UNL     1       5.271   3.970  18.751  0.00  0.00    +0.000 A 
ATOM      2  N   UNL     1       4.736   3.510  19.901  0.00  0.00    +0.000 NA
ATOM      3  C   UNL     1       3.441   3.100  19.878  0.00  0.00    +0.000 A 
ATOM      4  C   UNL     1       2.657   3.105  18.741  0.00  0.00    +0.000 A 
ATOM      5 BR   UNL     1       0.872   2.507  18.782  0.00  0.00    +0.000 Br
ATOM      6  C   UNL     1       3.217   3.568  17.563  0.00  0.00    +0.000 A 
ATOM      7  C   UNL     1       4.549   4.017  17.558  0.00  0.00    +0.000 A 
ENDROOT
BRANCH   7   8
ATOM      8  C   UNL     1       5.069   4.566  16.283  0.00  0.00    +0.000 C 
ATOM      9  O   UNL     1       4.774   5.727  16.016  0.00  0.00    +0.000 OA
ATOM     10  N   UNL     1       5.788   3.704  15.473  0.00  0.00    +0.000 N 
ATOM     11  H   UNL     1       5.870   2.738  15.786  0.00  0.00    +0.000 HD
BRANCH  10  12
ATOM     12  C   UNL     1       6.306   4.017  14.194  0.00  0.00    +0.000 A 
ATOM     13  C   UNL     1       5.870   3.399  13.024  0.00  0.00    +0.000 A 
ATOM     14  C   UNL     1       6.469   3.740  11.824  0.00  0.00    +0.000 A 
ATOM     15  N   UNL     1       7.461   4.647  11.712  0.00  0.00    +0.000 NA
ATOM     16  C   UNL     1       7.860   5.244  12.855  0.00  0.00    +0.000 A 
ATOM     17  C   UNL     1       7.309   4.980  14.102  0.00  0.00    +0.000 A 
ENDBRANCH  10  12
ENDBRANCH   7   8
BRANCH   1  18
ATOM     18  N   UNL     1       6.599   4.386  18.865  0.00  0.00    +0.000 N 
ATOM     19  H   UNL     1       7.125   3.568  19.172  0.00  0.00    +0.000 HD
ATOM     20  H   UNL     1       6.689   5.138  19.545  0.00  0.00    +0.000 HD
ENDBRANCH   1  18
TORSDOF 3
ENDMDL
