MODEL 1
REMARK VINA RESULT:      -9.8      0.000      0.000
REMARK  Name = 
REMARK  6 active torsions:
REMARK  status: ('A' for Active; 'I' for Inactive)
REMARK    1  A    between atoms: C_1  and  C_2
REMARK    2  A    between atoms: C_2  and  C_23
REMARK    3  A    between atoms: C_3  and  C_5
REMARK    4  A    between atoms: N_7  and  C_8
REMARK    5  A    between atoms: C_11  and  C_12
REMARK    6  A    between atoms: C_17  and  C_18
REMARK                            x       y       z     vdW  Elec       q    Type
REMARK                         _______ _______ _______ _____ _____    ______ ____
ROOT
ATOM      1  C   UNL     1       2.037   4.751  20.458  0.00  0.00    +0.000 C 
ATOM      2  O   UNL     1       0.857   4.592  20.173  0.00  0.00    +0.000 OA
ATOM      3  N   UNL     1       2.718   5.959  20.401  0.00  0.00    +0.000 N 
ATOM      4  H   UNL     1       3.723   5.940  20.514  0.00  0.00    +0.000 HD
ENDROOT
BRANCH   3   5
ATOM      5  C   UNL     1       2.105   7.169  20.006  0.00  0.00    +0.000 A 
ATOM      6  C   UNL     1       2.270   7.708  18.733  0.00  0.00    +0.000 A 
ATOM      7  C   UNL     1       1.735   8.949  18.392  0.00  0.00    +0.000 A 
ATOM      8  C   UNL     1       1.053   9.729  19.327  0.00  0.00    +0.000 A 
ATOM      9  C   UNL     1       0.818   9.140  20.589  0.00  0.00    +0.000 A 
ATOM     10  C   UNL     1       1.317   7.867  20.921  0.00  0.00    +0.000 A 
BRANCH   8  11
ATOM     11  C   UNL     1       0.587  11.101  18.993  0.00  0.00    +0.000 A 
ATOM     12  C   UNL     1       1.435  12.191  19.293  0.00  0.00    +0.000 A 
ATOM     13  C   UNL     1       1.069  13.514  19.028  0.00  0.00    +0.000 A 
ATOM     14  C   UNL     1      -0.168  13.793  18.467  0.00  0.00    +0.000 A 
ATOM     15  C   UNL     1      -1.037  12.749  18.163  0.00  0.00    +0.000 A 
ATOM     16  C   UNL     1      -0.674  11.411  18.416  0.00  0.00    +0.000 A 
BRANCH  16  17
ATOM     17  C   UNL     1      -1.656  10.374  17.975  0.00  0.00    +0.000 C 
ATOM     18  N   UNL     1      -1.568   9.960  16.671  0.00  0.00    +0.000 N 
ATOM     19  O   UNL     1      -2.497   9.894  18.721  0.00  0.00    +0.000 OA
ATOM     20  H   UNL     1      -0.939  10.361  15.990  0.00  0.00    +0.000 HD
ATOM     21  H   UNL     1      -2.263   9.295  16.355  0.00  0.00    +0.000 HD
ENDBRANCH  16  17
ENDBRANCH   8  11
ENDBRANCH   3   5
BRANCH   1  24
ATOM     22  C   UNL     1       4.398   1.648  20.618  0.00  0.00    +0.000 C 
ATOM     23  C   UNL     1       3.764   2.939  20.193  0.00  0.00    +0.000 C 
ATOM     24  C   UNL     1       2.857   3.596  20.944  0.00  0.00    +0.000 C 
ATOM     25  F   UNL     1       2.556   3.173  22.192  0.00  0.00    +0.000 F 
BRANCH  23  26
ATOM     26  C   UNL     1       4.191   3.431  18.868  0.00  0.00    +0.000 A 
ATOM     27  C   UNL     1       3.523   3.011  17.715  0.00  0.00    +0.000 A 
ATOM     28  C   UNL     1       3.990   3.385  16.451  0.00  0.00    +0.000 A 
ATOM     29  C   UNL     1       5.139   4.184  16.318  0.00  0.00    +0.000 A 
ATOM     30  C   UNL     1       5.620   4.558  15.059  0.00  0.00    +0.000 A 
ATOM     31  C   UNL     1       6.756   5.344  14.991  0.00  0.00    +0.000 A 
ATOM     32  N   UNL     1       7.448   5.766  16.069  0.00  0.00    +0.000 NA
ATOM     33  C   UNL     1       6.991   5.388  17.278  0.00  0.00    +0.000 A 
ATOM     34  N   UNL     1       7.760   5.839  18.360  0.00  0.00    +0.000 N 
ATOM     35  C   UNL     1       5.827   4.615  17.471  0.00  0.00    +0.000 A 
ATOM     36  C   UNL     1       5.329   4.238  18.741  0.00  0.00    +0.000 A 
ATOM     37  H   UNL     1       8.559   6.316  17.948  0.00  0.00    +0.000 HD
ATOM     38  H   UNL     1       8.050   5.049  18.926  0.00  0.00    +0.000 HD
ENDBRANCH  23  26
ENDBRANCH   1  24
TORSDOF 5
ENDMDL
MODEL 2
REMARK VINA RESULT:      -9.5      1.390      1.995
REMARK  Name = 
REMARK  6 active torsions:
REMARK  status: ('A' for Active; 'I' for Inactive)
REMARK    1  A    between atoms: C_1  and  C_2
REMARK    2  A    between atoms: C_2  and  C_23
REMARK    3  A    between atoms: C_3  and  C_5
REMARK    4  A    between atoms: N_7  and  C_8
REMARK    5  A    between atoms: C_11  and  C_12
REMARK    6  A    between atoms: C_17  and  C_18
REMARK                            x       y       z     vdW  Elec       q    Type
REMARK                         _______ _______ _______ _____ _____    ______ ____
ROOT
ATOM      1  C   UNL     1       2.129   4.664  20.476  0.00  0.00    +0.000 C 
ATOM      2  O   UNL     1       0.944   4.515  20.207  0.00  0.00    +0.000 OA
ATOM      3  N   UNL     1       2.808   5.875  20.457  0.00  0.00    +0.000 N 
ATOM      4  H   UNL     1       3.815   5.852  20.550  0.00  0.00    +0.000 HD
ENDROOT
BRANCH   3   5
ATOM      5  C   UNL     1       2.188   7.099  20.124  0.00  0.00    +0.000 A 
ATOM      6  C   UNL     1       1.468   7.848  21.052  0.00  0.00    +0.000 A 
ATOM      7  C   UNL     1       0.784   9.005  20.682  0.00  0.00    +0.000 A 
ATOM      8  C   UNL     1       0.750   9.436  19.355  0.00  0.00    +0.000 A 
ATOM      9  C   UNL     1       1.549   8.721  18.437  0.00  0.00    +0.000 A 
ATOM     10  C   UNL     1       2.278   7.578  18.818  0.00  0.00    +0.000 A 
BRANCH   8  11
ATOM     11  C   UNL     1      -0.076  10.603  18.945  0.00  0.00    +0.000 A 
ATOM     12  C   UNL     1      -1.467  10.418  18.778  0.00  0.00    +0.000 A 
ATOM     13  C   UNL     1      -2.314  11.455  18.379  0.00  0.00    +0.000 A 
ATOM     14  C   UNL     1      -1.795  12.714  18.118  0.00  0.00    +0.000 A 
ATOM     15  C   UNL     1      -0.429  12.938  18.264  0.00  0.00    +0.000 A 
ATOM     16  C   UNL     1       0.433  11.902  18.676  0.00  0.00    +0.000 A 
BRANCH  16  17
ATOM     17  C   UNL     1       1.864  12.284  18.872  0.00  0.00    +0.000 C 
ATOM     18  N   UNL     1       2.676  12.212  17.769  0.00  0.00    +0.000 N 
ATOM     19  O   UNL     1       2.313  12.656  19.947  0.00  0.00    +0.000 OA
ATOM     20  H   UNL     1       2.383  11.855  16.872  0.00  0.00    +0.000 HD
ATOM     21  H   UNL     1       3.657  12.423  17.909  0.00  0.00    +0.000 HD
ENDBRANCH  16  17
ENDBRANCH   8  11
ENDBRANCH   3   5
BRANCH   1  24
ATOM     22  C   UNL     1       4.496   1.561  20.463  0.00  0.00    +0.000 C 
ATOM     23  C   UNL     1       3.852   2.869  20.104  0.00  0.00    +0.000 C 
ATOM     24  C   UNL     1       2.958   3.491  20.898  0.00  0.00    +0.000 C 
ATOM     25  F   UNL     1       2.679   3.015  22.132  0.00  0.00    +0.000 F 
BRANCH  23  26
ATOM     26  C   UNL     1       4.257   3.418  18.794  0.00  0.00    +0.000 A 
ATOM     27  C   UNL     1       3.582   3.029  17.634  0.00  0.00    +0.000 A 
ATOM     28  C   UNL     1       4.029   3.459  16.380  0.00  0.00    +0.000 A 
ATOM     29  C   UNL     1       5.162   4.282  16.265  0.00  0.00    +0.000 A 
ATOM     30  C   UNL     1       5.623   4.711  15.016  0.00  0.00    +0.000 A 
ATOM     31  C   UNL     1       6.744   5.519  14.966  0.00  0.00    +0.000 A 
ATOM     32  N   UNL     1       7.441   5.913  16.051  0.00  0.00    +0.000 NA
ATOM     33  C   UNL     1       7.004   5.482  17.250  0.00  0.00    +0.000 A 
ATOM     34  N   UNL     1       7.777   5.905  18.339  0.00  0.00    +0.000 N 
ATOM     35  C   UNL     1       5.856   4.681  17.426  0.00  0.00    +0.000 A 
ATOM     36  C   UNL     1       5.378   4.248  18.686  0.00  0.00    +0.000 A 
ATOM     37  H   UNL     1       8.563   6.411  17.938  0.00  0.00    +0.000 HD
ATOM     38  H   UNL     1       8.088   5.099  18.873  0.00  0.00    +0.000 HD
ENDBRANCH  23  26
ENDBRANCH   1  24
TORSDOF 5
ENDMDL
MODEL 3
REMARK VINA RESULT:      -8.7      3.362      8.508
REMARK  Name = 
REMARK  6 active torsions:
REMARK  status: ('A' for Active; 'I' for Inactive)
REMARK    1  A    between atoms: C_1  and  C_2
REMARK    2  A    between atoms: C_2  and  C_23
REMARK    3  A    between atoms: C_3  and  C_5
REMARK    4  A    between atoms: N_7  and  C_8
REMARK    5  A    between atoms: C_11  and  C_12
REMARK    6  A    between atoms: C_17  and  C_18
REMARK                            x       y       z     vdW  Elec       q    Type
REMARK                         _______ _______ _______ _____ _____    ______ ____
ROOT
ATOM      1  C   UNL     1       0.632   9.913  21.804  0.00  0.00    +0.000 C 
ATOM      2  O   UNL     1       1.628   9.696  22.481  0.00  0.00    +0.000 OA
ATOM      3  N   UNL     1       0.418   9.435  20.518  0.00  0.00    +0.000 N 
ATOM      4  H   UNL     1      -0.372   9.803  20.004  0.00  0.00    +0.000 HD
ENDROOT
BRANCH   3   5
ATOM      5  C   UNL     1       1.349   8.621  19.837  0.00  0.00    +0.000 A 
ATOM      6  C   UNL     1       1.840   8.943  18.574  0.00  0.00    +0.000 A 
ATOM      7  C   UNL     1       2.684   8.080  17.878  0.00  0.00    +0.000 A 
ATOM      8  C   UNL     1       3.035   6.832  18.394  0.00  0.00    +0.000 A 
ATOM      9  C   UNL     1       2.604   6.549  19.709  0.00  0.00    +0.000 A 
ATOM     10  C   UNL     1       1.788   7.439  20.433  0.00  0.00    +0.000 A 
BRANCH   8  11
ATOM     11  C   UNL     1       3.840   5.867  17.599  0.00  0.00    +0.000 A 
ATOM     12  C   UNL     1       5.072   6.301  17.060  0.00  0.00    +0.000 A 
ATOM     13  C   UNL     1       5.883   5.466  16.288  0.00  0.00    +0.000 A 
ATOM     14  C   UNL     1       5.480   4.168  16.012  0.00  0.00    +0.000 A 
ATOM     15  C   UNL     1       4.270   3.702  16.518  0.00  0.00    +0.000 A 
ATOM     16  C   UNL     1       3.449   4.532  17.307  0.00  0.00    +0.000 A 
BRANCH  16  17
ATOM     17  C   UNL     1       2.214   3.896  17.857  0.00  0.00    +0.000 C 
ATOM     18  N   UNL     1       2.381   3.046  18.920  0.00  0.00    +0.000 N 
ATOM     19  O   UNL     1       1.097   4.113  17.409  0.00  0.00    +0.000 OA
ATOM     20  H   UNL     1       3.279   2.778  19.295  0.00  0.00    +0.000 HD
ATOM     21  H   UNL     1       1.553   2.575  19.263  0.00  0.00    +0.000 HD
ENDBRANCH  16  17
ENDBRANCH   8  11
ENDBRANCH   3   5
BRANCH   1  24
ATOM     22  C   UNL     1      -1.686  12.874  22.849  0.00  0.00    +0.000 C 
ATOM     23  C   UNL     1      -0.697  12.030  22.100  0.00  0.00    +0.000 C 
ATOM     24  C   UNL     1      -0.498  10.723  22.363  0.00  0.00    +0.000 C 
ATOM     25  F   UNL     1      -1.275  10.070  23.254  0.00  0.00    +0.000 F 
BRANCH  23  26
ATOM     26  C   UNL     1       0.066  12.747  21.059  0.00  0.00    +0.000 A 
ATOM     27  C   UNL     1      -0.437  12.836  19.758  0.00  0.00    +0.000 A 
ATOM     28  C   UNL     1       0.330  13.417  18.743  0.00  0.00    +0.000 A 
ATOM     29  C   UNL     1       1.615  13.917  19.011  0.00  0.00    +0.000 A 
ATOM     30  C   UNL     1       2.394  14.493  18.002  0.00  0.00    +0.000 A 
ATOM     31  C   UNL     1       3.653  14.967  18.326  0.00  0.00    +0.000 A 
ATOM     32  N   UNL     1       4.192  14.895  19.560  0.00  0.00    +0.000 NA
ATOM     33  C   UNL     1       3.446  14.323  20.524  0.00  0.00    +0.000 A 
ATOM     34  N   UNL     1       4.064  14.258  21.779  0.00  0.00    +0.000 N 
ATOM     35  C   UNL     1       2.139  13.834  20.318  0.00  0.00    +0.000 A 
ATOM     36  C   UNL     1       1.341  13.256  21.334  0.00  0.00    +0.000 A 
ATOM     37  H   UNL     1       5.005  14.621  21.641  0.00  0.00    +0.000 HD
ATOM     38  H   UNL     1       4.080  13.297  22.104  0.00  0.00    +0.000 HD
ENDBRANCH  23  26
ENDBRANCH   1  24
TORSDOF 5
ENDMDL
MODEL 4
REMARK VINA RESULT:      -8.5      1.306      1.577
REMARK  Name = 
REMARK  6 active torsions:
REMARK  status: ('A' for Active; 'I' for Inactive)
REMARK    1  A    between atoms: C_1  and  C_2
REMARK    2  A    between atoms: C_2  and  C_23
REMARK    3  A    between atoms: C_3  and  C_5
REMARK    4  A    between atoms: N_7  and  C_8
REMARK    5  A    between atoms: C_11  and  C_12
REMARK    6  A    between atoms: C_17  and  C_18
REMARK                            x       y       z     vdW  Elec       q    Type
REMARK                         _______ _______ _______ _____ _____    ______ ____
ROOT
ATOM      1  C   UNL     1       2.514   6.236  20.190  0.00  0.00    +0.000 C 
ATOM      2  O   UNL     1       3.255   6.626  19.297  0.00  0.00    +0.000 OA
ATOM      3  N   UNL     1       1.539   7.004  20.813  0.00  0.00    +0.000 N 
ATOM      4  H   UNL     1       1.093   6.621  21.637  0.00  0.00    +0.000 HD
ENDROOT
BRANCH   3   5
ATOM      5  C   UNL     1       1.285   8.350  20.471  0.00  0.00    +0.000 A 
ATOM      6  C   UNL     1       1.400   8.823  19.166  0.00  0.00    +0.000 A 
ATOM      7  C   UNL     1       1.238  10.174  18.864  0.00  0.00    +0.000 A 
ATOM      8  C   UNL     1       1.002  11.120  19.862  0.00  0.00    +0.000 A 
ATOM      9  C   UNL     1       0.804  10.623  21.169  0.00  0.00    +0.000 A 
ATOM     10  C   UNL     1       0.922   9.253  21.470  0.00  0.00    +0.000 A 
BRANCH   8  11
ATOM     11  C   UNL     1       0.947  12.572  19.550  0.00  0.00    +0.000 A 
ATOM     12  C   UNL     1       2.087  13.362  19.817  0.00  0.00    +0.000 A 
ATOM     13  C   UNL     1       2.116  14.737  19.569  0.00  0.00    +0.000 A 
ATOM     14  C   UNL     1       0.995  15.374  19.059  0.00  0.00    +0.000 A 
ATOM     15  C   UNL     1      -0.152  14.635  18.788  0.00  0.00    +0.000 A 
ATOM     16  C   UNL     1      -0.189  13.246  19.024  0.00  0.00    +0.000 A 
BRANCH  16  17
ATOM     17  C   UNL     1      -1.448  12.549  18.621  0.00  0.00    +0.000 C 
ATOM     18  N   UNL     1      -1.583  12.245  17.291  0.00  0.00    +0.000 N 
ATOM     19  O   UNL     1      -2.324  12.243  19.417  0.00  0.00    +0.000 OA
ATOM     20  H   UNL     1      -0.927  12.524  16.576  0.00  0.00    +0.000 HD
ATOM     21  H   UNL     1      -2.455  11.817  17.006  0.00  0.00    +0.000 HD
ENDBRANCH  16  17
ENDBRANCH   8  11
ENDBRANCH   3   5
BRANCH   1  24
ATOM     22  C   UNL     1       2.883   2.354  20.334  0.00  0.00    +0.000 C 
ATOM     23  C   UNL     1       3.033   3.788  19.921  0.00  0.00    +0.000 C 
ATOM     24  C   UNL     1       2.592   4.819  20.670  0.00  0.00    +0.000 C 
ATOM     25  F   UNL     1       2.088   4.611  21.906  0.00  0.00    +0.000 F 
BRANCH  23  26
ATOM     26  C   UNL     1       3.682   3.990  18.610  0.00  0.00    +0.000 A 
ATOM     27  C   UNL     1       2.949   3.824  17.432  0.00  0.00    +0.000 A 
ATOM     28  C   UNL     1       3.584   3.905  16.188  0.00  0.00    +0.000 A 
ATOM     29  C   UNL     1       4.965   4.148  16.101  0.00  0.00    +0.000 A 
ATOM     30  C   UNL     1       5.612   4.223  14.864  0.00  0.00    +0.000 A 
ATOM     31  C   UNL     1       6.974   4.463  14.841  0.00  0.00    +0.000 A 
ATOM     32  N   UNL     1       7.732   4.616  15.946  0.00  0.00    +0.000 NA
ATOM     33  C   UNL     1       7.108   4.526  17.136  0.00  0.00    +0.000 A 
ATOM     34  N   UNL     1       7.948   4.672  18.248  0.00  0.00    +0.000 N 
ATOM     35  C   UNL     1       5.720   4.314  17.281  0.00  0.00    +0.000 A 
ATOM     36  C   UNL     1       5.056   4.245  18.529  0.00  0.00    +0.000 A 
ATOM     37  H   UNL     1       8.889   4.754  17.872  0.00  0.00    +0.000 HD
ATOM     38  H   UNL     1       7.858   3.864  18.854  0.00  0.00    +0.000 HD
ENDBRANCH  23  26
ENDBRANCH   1  24
TORSDOF 5
ENDMDL
MODEL 5
REMARK VINA RESULT:      -8.4      3.584      8.621
REMARK  Name = 
REMARK  6 active torsions:
REMARK  status: ('A' for Active; 'I' for Inactive)
REMARK    1  A    between atoms: C_1  and  C_2
REMARK    2  A    between atoms: C_2  and  C_23
REMARK    3  A    between atoms: C_3  and  C_5
REMARK    4  A    between atoms: N_7  and  C_8
REMARK    5  A    between atoms: C_11  and  C_12
REMARK    6  A    between atoms: C_17  and  C_18
REMARK                            x       y       z     vdW  Elec       q    Type
REMARK                         _______ _______ _______ _____ _____    ______ ____
ROOT
ATOM      1  C   UNL     1       0.560  10.602  21.504  0.00  0.00    +0.000 C 
ATOM      2  O   UNL     1       1.494  10.221  22.198  0.00  0.00    +0.000 OA
ATOM      3  N   UNL     1       0.262  10.128  20.233  0.00  0.00    +0.000 N 
ATOM      4  H   UNL     1      -0.440  10.622  19.698  0.00  0.00    +0.000 HD
ENDROOT
BRANCH   3   5
ATOM      5  C   UNL     1       1.019   9.124  19.590  0.00  0.00    +0.000 A 
ATOM      6  C   UNL     1       1.534   8.025  20.272  0.00  0.00    +0.000 A 
ATOM      7  C   UNL     1       2.358   7.095  19.640  0.00  0.00    +0.000 A 
ATOM      8  C   UNL     1       2.744   7.252  18.308  0.00  0.00    +0.000 A 
ATOM      9  C   UNL     1       2.151   8.321  17.601  0.00  0.00    +0.000 A 
ATOM     10  C   UNL     1       1.282   9.235  18.225  0.00  0.00    +0.000 A 
BRANCH   8  11
ATOM     11  C   UNL     1       3.715   6.323  17.673  0.00  0.00    +0.000 A 
ATOM     12  C   UNL     1       4.946   6.845  17.216  0.00  0.00    +0.000 A 
ATOM     13  C   UNL     1       5.909   6.047  16.594  0.00  0.00    +0.000 A 
ATOM     14  C   UNL     1       5.666   4.697  16.390  0.00  0.00    +0.000 A 
ATOM     15  C   UNL     1       4.463   4.143  16.818  0.00  0.00    +0.000 A 
ATOM     16  C   UNL     1       3.489   4.936  17.457  0.00  0.00    +0.000 A 
BRANCH  16  17
ATOM     17  C   UNL     1       2.274   4.214  17.940  0.00  0.00    +0.000 C 
ATOM     18  N   UNL     1       2.398   3.520  19.117  0.00  0.00    +0.000 N 
ATOM     19  O   UNL     1       1.207   4.232  17.344  0.00  0.00    +0.000 OA
ATOM     20  H   UNL     1       3.265   3.415  19.623  0.00  0.00    +0.000 HD
ATOM     21  H   UNL     1       1.592   2.989  19.422  0.00  0.00    +0.000 HD
ENDBRANCH  16  17
ENDBRANCH   8  11
ENDBRANCH   3   5
BRANCH   1  24
ATOM     22  C   UNL     1      -1.099  13.989  22.507  0.00  0.00    +0.000 C 
ATOM     23  C   UNL     1      -0.278  12.958  21.790  0.00  0.00    +0.000 C 
ATOM     24  C   UNL     1      -0.393  11.634  22.023  0.00  0.00    +0.000 C 
ATOM     25  F   UNL     1      -1.352  11.157  22.846  0.00  0.00    +0.000 F 
BRANCH  23  26
ATOM     26  C   UNL     1       0.691  13.504  20.819  0.00  0.00    +0.000 A 
ATOM     27  C   UNL     1       0.362  13.568  19.462  0.00  0.00    +0.000 A 
ATOM     28  C   UNL     1       1.313  13.981  18.524  0.00  0.00    +0.000 A 
ATOM     29  C   UNL     1       2.612  14.333  18.925  0.00  0.00    +0.000 A 
ATOM     30  C   UNL     1       3.574  14.740  17.995  0.00  0.00    +0.000 A 
ATOM     31  C   UNL     1       4.837  15.074  18.451  0.00  0.00    +0.000 A 
ATOM     32  N   UNL     1       5.212  15.017  19.745  0.00  0.00    +0.000 NA
ATOM     33  C   UNL     1       4.288  14.607  20.635  0.00  0.00    +0.000 A 
ATOM     34  N   UNL     1       4.740  14.548  21.960  0.00  0.00    +0.000 N 
ATOM     35  C   UNL     1       2.962  14.272  20.291  0.00  0.00    +0.000 A 
ATOM     36  C   UNL     1       1.980  13.867  21.226  0.00  0.00    +0.000 A 
ATOM     37  H   UNL     1       5.729  14.781  21.923  0.00  0.00    +0.000 HD
ATOM     38  H   UNL     1       4.591  13.616  22.332  0.00  0.00    +0.000 HD
ENDBRANCH  23  26
ENDBRANCH   1  24
TORSDOF 5
ENDMDL
MODEL 6
REMARK VINA RESULT:      -8.4      1.789      1.968
REMARK  Name = 
REMARK  6 active torsions:
REMARK  status: ('A' for Active; 'I' for Inactive)
REMARK    1  A    between atoms: C_1  and  C_2
REMARK    2  A    between atoms: C_2  and  C_23
REMARK    3  A    between atoms: C_3  and  C_5
REMARK    4  A    between atoms: N_7  and  C_8
REMARK    5  A    between atoms: C_11  and  C_12
REMARK    6  A    between atoms: C_17  and  C_18
REMARK                            x       y       z     vdW  Elec       q    Type
REMARK                         _______ _______ _______ _____ _____    ______ ____
ROOT
ATOM      1  C   UNL     1       1.884   4.561  20.620  0.00  0.00    +0.000 C 
ATOM      2  O   UNL     1       0.791   4.328  20.122  0.00  0.00    +0.000 OA
ATOM      3  N   UNL     1       2.398   5.826  20.869  0.00  0.00    +0.000 N 
ATOM      4  H   UNL     1       3.370   5.895  21.143  0.00  0.00    +0.000 HD
ENDROOT
BRANCH   3   5
ATOM      5  C   UNL     1       1.694   7.014  20.573  0.00  0.00    +0.000 A 
ATOM      6  C   UNL     1       2.064   7.861  19.532  0.00  0.00    +0.000 A 
ATOM      7  C   UNL     1       1.414   9.075  19.315  0.00  0.00    +0.000 A 
ATOM      8  C   UNL     1       0.397   9.518  20.162  0.00  0.00    +0.000 A 
ATOM      9  C   UNL     1      -0.029   8.616  21.162  0.00  0.00    +0.000 A 
ATOM     10  C   UNL     1       0.595   7.369  21.354  0.00  0.00    +0.000 A 
BRANCH   8  11
ATOM     11  C   UNL     1      -0.212  10.864  19.997  0.00  0.00    +0.000 A 
ATOM     12  C   UNL     1      -0.311  11.403  18.694  0.00  0.00    +0.000 A 
ATOM     13  C   UNL     1      -0.855  12.667  18.450  0.00  0.00    +0.000 A 
ATOM     14  C   UNL     1      -1.305  13.445  19.506  0.00  0.00    +0.000 A 
ATOM     15  C   UNL     1      -1.220  12.955  20.806  0.00  0.00    +0.000 A 
ATOM     16  C   UNL     1      -0.683  11.677  21.063  0.00  0.00    +0.000 A 
BRANCH  16  17
ATOM     17  C   UNL     1      -0.716  11.230  22.488  0.00  0.00    +0.000 C 
ATOM     18  N   UNL     1      -1.910  11.370  23.148  0.00  0.00    +0.000 N 
ATOM     19  O   UNL     1       0.252  10.751  23.058  0.00  0.00    +0.000 OA
ATOM     20  H   UNL     1      -2.727  11.814  22.755  0.00  0.00    +0.000 HD
ATOM     21  H   UNL     1      -1.924  11.114  24.128  0.00  0.00    +0.000 HD
ENDBRANCH  16  17
ENDBRANCH   8  11
ENDBRANCH   3   5
BRANCH   1  24
ATOM     22  C   UNL     1       4.447   1.617  20.631  0.00  0.00    +0.000 C 
ATOM     23  C   UNL     1       3.734   2.889  20.276  0.00  0.00    +0.000 C 
ATOM     24  C   UNL     1       2.772   3.432  21.049  0.00  0.00    +0.000 C 
ATOM     25  F   UNL     1       2.478   2.909  22.259  0.00  0.00    +0.000 F 
BRANCH  23  26
ATOM     26  C   UNL     1       4.151   3.496  18.997  0.00  0.00    +0.000 A 
ATOM     27  C   UNL     1       3.456   3.199  17.821  0.00  0.00    +0.000 A 
ATOM     28  C   UNL     1       3.911   3.682  16.590  0.00  0.00    +0.000 A 
ATOM     29  C   UNL     1       5.074   4.467  16.512  0.00  0.00    +0.000 A 
ATOM     30  C   UNL     1       5.544   4.948  15.286  0.00  0.00    +0.000 A 
ATOM     31  C   UNL     1       6.694   5.715  15.272  0.00  0.00    +0.000 A 
ATOM     32  N   UNL     1       7.413   6.019  16.373  0.00  0.00    +0.000 NA
ATOM     33  C   UNL     1       6.967   5.539  17.549  0.00  0.00    +0.000 A 
ATOM     34  N   UNL     1       7.762   5.869  18.654  0.00  0.00    +0.000 N 
ATOM     35  C   UNL     1       5.790   4.773  17.689  0.00  0.00    +0.000 A 
ATOM     36  C   UNL     1       5.303   4.288  18.926  0.00  0.00    +0.000 A 
ATOM     37  H   UNL     1       8.564   6.368  18.275  0.00  0.00    +0.000 HD
ATOM     38  H   UNL     1       8.044   5.024  19.138  0.00  0.00    +0.000 HD
ENDBRANCH  23  26
ENDBRANCH   1  24
TORSDOF 5
ENDMDL
MODEL 7
REMARK VINA RESULT:      -8.4      1.547      1.925
REMARK  Name = 
REMARK  6 active torsions:
REMARK  status: ('A' for Active; 'I' for Inactive)
REMARK    1  A    between atoms: C_1  and  C_2
REMARK    2  A    between atoms: C_2  and  C_23
REMARK    3  A    between atoms: C_3  and  C_5
REMARK    4  A    between atoms: N_7  and  C_8
REMARK    5  A    between atoms: C_11  and  C_12
REMARK    6  A    between atoms: C_17  and  C_18
REMARK                            x       y       z     vdW  Elec       q    Type
REMARK                         _______ _______ _______ _____ _____    ______ ____
ROOT
ATOM      1  C   UNL     1       2.022   4.798  20.452  0.00  0.00    +0.000 C 
ATOM      2  O   UNL     1       0.917   4.544  19.991  0.00  0.00    +0.000 OA
ATOM      3  N   UNL     1       2.573   6.068  20.558  0.00  0.00    +0.000 N 
ATOM      4  H   UNL     1       3.549   6.138  20.815  0.00  0.00    +0.000 HD
ENDROOT
BRANCH   3   5
ATOM      5  C   UNL     1       1.898   7.236  20.142  0.00  0.00    +0.000 A 
ATOM      6  C   UNL     1       2.143   7.841  18.912  0.00  0.00    +0.000 A 
ATOM      7  C   UNL     1       1.536   9.045  18.559  0.00  0.00    +0.000 A 
ATOM      8  C   UNL     1       0.695   9.723  19.442  0.00  0.00    +0.000 A 
ATOM      9  C   UNL     1       0.385   9.062  20.651  0.00  0.00    +0.000 A 
ATOM     10  C   UNL     1       0.961   7.823  20.991  0.00  0.00    +0.000 A 
BRANCH   8  11
ATOM     11  C   UNL     1       0.143  11.063  19.108  0.00  0.00    +0.000 A 
ATOM     12  C   UNL     1      -0.969  11.135  18.240  0.00  0.00    +0.000 A 
ATOM     13  C   UNL     1      -1.541  12.352  17.861  0.00  0.00    +0.000 A 
ATOM     14  C   UNL     1      -1.005  13.545  18.324  0.00  0.00    +0.000 A 
ATOM     15  C   UNL     1       0.095  13.519  19.176  0.00  0.00    +0.000 A 
ATOM     16  C   UNL     1       0.673  12.297  19.573  0.00  0.00    +0.000 A 
BRANCH  16  17
ATOM     17  C   UNL     1       1.799  12.394  20.550  0.00  0.00    +0.000 C 
ATOM     18  N   UNL     1       2.802  13.278  20.244  0.00  0.00    +0.000 N 
ATOM     19  O   UNL     1       1.845  11.741  21.581  0.00  0.00    +0.000 OA
ATOM     20  H   UNL     1       2.855  13.800  19.382  0.00  0.00    +0.000 HD
ATOM     21  H   UNL     1       3.592  13.312  20.878  0.00  0.00    +0.000 HD
ENDBRANCH  16  17
ENDBRANCH   8  11
ENDBRANCH   3   5
BRANCH   1  24
ATOM     22  C   UNL     1       4.499   1.798  20.758  0.00  0.00    +0.000 C 
ATOM     23  C   UNL     1       3.818   3.044  20.273  0.00  0.00    +0.000 C 
ATOM     24  C   UNL     1       2.884   3.697  20.992  0.00  0.00    +0.000 C 
ATOM     25  F   UNL     1       2.593   3.320  22.256  0.00  0.00    +0.000 F 
BRANCH  23  26
ATOM     26  C   UNL     1       4.233   3.492  18.929  0.00  0.00    +0.000 A 
ATOM     27  C   UNL     1       3.581   3.001  17.794  0.00  0.00    +0.000 A 
ATOM     28  C   UNL     1       4.039   3.337  16.516  0.00  0.00    +0.000 A 
ATOM     29  C   UNL     1       5.162   4.165  16.350  0.00  0.00    +0.000 A 
ATOM     30  C   UNL     1       5.634   4.501  15.078  0.00  0.00    +0.000 A 
ATOM     31  C   UNL     1       6.744   5.320  14.977  0.00  0.00    +0.000 A 
ATOM     32  N   UNL     1       7.419   5.810  16.037  0.00  0.00    +0.000 NA
ATOM     33  C   UNL     1       6.972   5.469  17.261  0.00  0.00    +0.000 A 
ATOM     34  N   UNL     1       7.723   5.990  18.322  0.00  0.00    +0.000 N 
ATOM     35  C   UNL     1       5.833   4.667  17.485  0.00  0.00    +0.000 A 
ATOM     36  C   UNL     1       5.344   4.329  18.769  0.00  0.00    +0.000 A 
ATOM     37  H   UNL     1       8.507   6.475  17.892  0.00  0.00    +0.000 HD
ATOM     38  H   UNL     1       8.037   5.235  18.923  0.00  0.00    +0.000 HD
ENDBRANCH  23  26
ENDBRANCH   1  24
TORSDOF 5
ENDMDL
MODEL 8
REMARK VINA RESULT:      -8.3      3.238      9.990
REMARK  Name = 
REMARK  6 active torsions:
REMARK  status: ('A' for Active; 'I' for Inactive)
REMARK    1  A    between atoms: C_1  and  C_2
REMARK    2  A    between atoms: C_2  and  C_23
REMARK    3  A    between atoms: C_3  and  C_5
REMARK    4  A    between atoms: N_7  and  C_8
REMARK    5  A    between atoms: C_11  and  C_12
REMARK    6  A    between atoms: C_17  and  C_18
REMARK                            x       y       z     vdW  Elec       q    Type
REMARK                         _______ _______ _______ _____ _____    ______ ____
ROOT
ATOM      1  C   UNL     1       0.620  10.734  20.231  0.00  0.00    +0.000 C 
ATOM      2  O   UNL     1      -0.222  10.102  20.855  0.00  0.00    +0.000 OA
ATOM      3  N   UNL     1       1.609  10.176  19.432  0.00  0.00    +0.000 N 
ATOM      4  H   UNL     1       2.338  10.789  19.088  0.00  0.00    +0.000 HD
ENDROOT
BRANCH   3   5
ATOM      5  C   UNL     1       1.752   8.784  19.244  0.00  0.00    +0.000 A 
ATOM      6  C   UNL     1       1.699   7.879  20.301  0.00  0.00    +0.000 A 
ATOM      7  C   UNL     1       1.936   6.519  20.108  0.00  0.00    +0.000 A 
ATOM      8  C   UNL     1       2.286   6.012  18.856  0.00  0.00    +0.000 A 
ATOM      9  C   UNL     1       2.255   6.921  17.776  0.00  0.00    +0.000 A 
ATOM     10  C   UNL     1       1.970   8.287  17.960  0.00  0.00    +0.000 A 
BRANCH   8  11
ATOM     11  C   UNL     1       2.652   4.582  18.678  0.00  0.00    +0.000 A 
ATOM     12  C   UNL     1       1.614   3.626  18.599  0.00  0.00    +0.000 A 
ATOM     13  C   UNL     1       1.868   2.260  18.449  0.00  0.00    +0.000 A 
ATOM     14  C   UNL     1       3.175   1.800  18.389  0.00  0.00    +0.000 A 
ATOM     15  C   UNL     1       4.228   2.707  18.470  0.00  0.00    +0.000 A 
ATOM     16  C   UNL     1       3.983   4.088  18.611  0.00  0.00    +0.000 A 
BRANCH  16  17
ATOM     17  C   UNL     1       5.190   4.968  18.608  0.00  0.00    +0.000 C 
ATOM     18  N   UNL     1       5.683   5.331  17.381  0.00  0.00    +0.000 N 
ATOM     19  O   UNL     1       5.724   5.369  19.632  0.00  0.00    +0.000 OA
ATOM     20  H   UNL     1       5.327   4.985  16.503  0.00  0.00    +0.000 HD
ATOM     21  H   UNL     1       6.530   5.887  17.375  0.00  0.00    +0.000 HD
ENDBRANCH  16  17
ENDBRANCH   8  11
ENDBRANCH   3   5
BRANCH   1  24
ATOM     22  C   UNL     1      -0.204  14.484  19.529  0.00  0.00    +0.000 C 
ATOM     23  C   UNL     1      -0.338  12.998  19.691  0.00  0.00    +0.000 C 
ATOM     24  C   UNL     1       0.614  12.232  20.261  0.00  0.00    +0.000 C 
ATOM     25  F   UNL     1       1.704  12.790  20.829  0.00  0.00    +0.000 F 
BRANCH  23  26
ATOM     26  C   UNL     1      -1.589  12.428  19.154  0.00  0.00    +0.000 A 
ATOM     27  C   UNL     1      -1.617  11.889  17.865  0.00  0.00    +0.000 A 
ATOM     28  C   UNL     1      -2.823  11.448  17.309  0.00  0.00    +0.000 A 
ATOM     29  C   UNL     1      -4.024  11.543  18.032  0.00  0.00    +0.000 A 
ATOM     30  C   UNL     1      -5.236  11.113  17.484  0.00  0.00    +0.000 A 
ATOM     31  C   UNL     1      -6.386  11.233  18.243  0.00  0.00    +0.000 A 
ATOM     32  N   UNL     1      -6.420  11.758  19.485  0.00  0.00    +0.000 NA
ATOM     33  C   UNL     1      -5.252  12.187  20.002  0.00  0.00    +0.000 A 
ATOM     34  N   UNL     1      -5.351  12.740  21.286  0.00  0.00    +0.000 N 
ATOM     35  C   UNL     1      -4.014  12.087  19.334  0.00  0.00    +0.000 A 
ATOM     36  C   UNL     1      -2.781  12.512  19.883  0.00  0.00    +0.000 A 
ATOM     37  H   UNL     1      -6.343  12.743  21.508  0.00  0.00    +0.000 HD
ATOM     38  H   UNL     1      -4.967  13.679  21.285  0.00  0.00    +0.000 HD
ENDBRANCH  23  26
ENDBRANCH   1  24
TORSDOF 5
ENDMDL
MODEL 9
REMARK VINA RESULT:      -8.3      1.533      1.869
REMARK  Name = 
REMARK  6 active torsions:
REMARK  status: ('A' for Active; 'I' for Inactive)
REMARK    1  A    between atoms: C_1  and  C_2
REMARK    2  A    between atoms: C_2  and  C_23
REMARK    3  A    between atoms: C_3  and  C_5
REMARK    4  A    between atoms: N_7  and  C_8
REMARK    5  A    between atoms: C_11  and  C_12
REMARK    6  A    between atoms: C_17  and  C_18
REMARK                            x       y       z     vdW  Elec       q    Type
REMARK                         _______ _______ _______ _____ _____    ______ ____
ROOT
ATOM      1  C   UNL     1       1.464   4.814  20.471  0.00  0.00    +0.000 C 
ATOM      2  O   UNL     1       0.286   4.786  20.138  0.00  0.00    +0.000 OA
ATOM      3  N   UNL     1       2.183   5.962  20.774  0.00  0.00    +0.000 N 
ATOM      4  H   UNL     1       3.185   5.874  20.888  0.00  0.00    +0.000 HD
ENDROOT
BRANCH   3   5
ATOM      5  C   UNL     1       1.618   7.255  20.737  0.00  0.00    +0.000 A 
ATOM      6  C   UNL     1       0.795   7.739  21.750  0.00  0.00    +0.000 A 
ATOM      7  C   UNL     1       0.171   8.982  21.651  0.00  0.00    +0.000 A 
ATOM      8  C   UNL     1       0.303   9.774  20.510  0.00  0.00    +0.000 A 
ATOM      9  C   UNL     1       1.205   9.315  19.524  0.00  0.00    +0.000 A 
ATOM     10  C   UNL     1       1.873   8.081  19.643  0.00  0.00    +0.000 A 
BRANCH   8  11
ATOM     11  C   UNL     1      -0.457  11.043  20.359  0.00  0.00    +0.000 A 
ATOM     12  C   UNL     1      -0.207  12.089  21.275  0.00  0.00    +0.000 A 
ATOM     13  C   UNL     1      -0.887  13.308  21.216  0.00  0.00    +0.000 A 
ATOM     14  C   UNL     1      -1.856  13.517  20.247  0.00  0.00    +0.000 A 
ATOM     15  C   UNL     1      -2.139  12.510  19.329  0.00  0.00    +0.000 A 
ATOM     16  C   UNL     1      -1.451  11.280  19.372  0.00  0.00    +0.000 A 
BRANCH  16  17
ATOM     17  C   UNL     1      -1.786  10.307  18.288  0.00  0.00    +0.000 C 
ATOM     18  N   UNL     1      -1.175  10.504  17.076  0.00  0.00    +0.000 N 
ATOM     19  O   UNL     1      -2.552   9.369  18.449  0.00  0.00    +0.000 OA
ATOM     20  H   UNL     1      -0.583  11.293  16.861  0.00  0.00    +0.000 HD
ATOM     21  H   UNL     1      -1.437   9.877  16.325  0.00  0.00    +0.000 HD
ENDBRANCH  16  17
ENDBRANCH   8  11
ENDBRANCH   3   5
BRANCH   1  24
ATOM     22  C   UNL     1       4.004   1.901  19.926  0.00  0.00    +0.000 C 
ATOM     23  C   UNL     1       3.378   3.264  19.950  0.00  0.00    +0.000 C 
ATOM     24  C   UNL     1       2.236   3.538  20.613  0.00  0.00    +0.000 C 
ATOM     25  F   UNL     1       1.652   2.607  21.399  0.00  0.00    +0.000 F 
BRANCH  23  26
ATOM     26  C   UNL     1       4.097   4.288  19.166  0.00  0.00    +0.000 A 
ATOM     27  C   UNL     1       3.545   4.776  17.978  0.00  0.00    +0.000 A 
ATOM     28  C   UNL     1       4.270   5.664  17.175  0.00  0.00    +0.000 A 
ATOM     29  C   UNL     1       5.562   6.075  17.545  0.00  0.00    +0.000 A 
ATOM     30  C   UNL     1       6.299   6.955  16.746  0.00  0.00    +0.000 A 
ATOM     31  C   UNL     1       7.566   7.323  17.162  0.00  0.00    +0.000 A 
ATOM     32  N   UNL     1       8.152   6.872  18.290  0.00  0.00    +0.000 NA
ATOM     33  C   UNL     1       7.445   6.011  19.046  0.00  0.00    +0.000 A 
ATOM     34  N   UNL     1       8.111   5.561  20.194  0.00  0.00    +0.000 N 
ATOM     35  C   UNL     1       6.134   5.590  18.739  0.00  0.00    +0.000 A 
ATOM     36  C   UNL     1       5.378   4.706  19.545  0.00  0.00    +0.000 A 
ATOM     37  H   UNL     1       9.043   5.966  20.147  0.00  0.00    +0.000 HD
ATOM     38  H   UNL     1       8.144   4.547  20.196  0.00  0.00    +0.000 HD
ENDBRANCH  23  26
ENDBRANCH   1  24
TORSDOF 5
ENDMDL
