MODEL 1
REMARK VINA RESULT:      -7.3      0.000      0.000
REMARK  Name = 
REMARK  7 active torsions:
REMARK  status: ('A' for Active; 'I' for Inactive)
REMARK    1  A    between atoms: C_1  and  C_2
REMARK    2  A    between atoms: C_2  and  O_4
REMARK    3  A    between atoms: O_4  and  C_5
REMARK    4  A    between atoms: C_5  and  C_6
REMARK    5  A    between atoms: C_6  and  C_7
REMARK    6  A    between atoms: C_23  and  C_24
REMARK    7  A    between atoms: C_28  and  C_29
REMARK                            x       y       z     vdW  Elec       q    Type
REMARK                         _______ _______ _______ _____ _____    ______ ____
ROOT
ATOM      1  C   UNL     1       2.211   2.978  19.136  0.00  0.00    +0.000 C 
ATOM      2  C   UNL     1       2.736   1.735  18.374  0.00  0.00    +0.000 C 
ATOM      3  C   UNL     1       3.985   2.237  17.690  0.00  0.00    +0.000 C 
ATOM      4  C   UNL     1       3.558   3.580  17.080  0.00  0.00    +0.000 C 
ATOM      5  C   UNL     1       4.714   4.504  16.577  0.00  0.00    +0.000 C 
ATOM      6  C   UNL     1       5.874   3.663  15.999  0.00  0.00    +0.000 C 
ATOM      7  C   UNL     1       6.972   4.357  15.664  0.00  0.00    +0.000 C 
ATOM      8 CL   UNL     1       7.018   5.044  14.062  0.00  0.00    +0.000 Cl
ATOM      9  C   UNL     1       7.290   5.281  16.720  0.00  0.00    +0.000 C 
ATOM     10  C   UNL     1       7.893   4.894  17.882  0.00  0.00    +0.000 C 
ATOM     11  C   UNL     1       7.883   5.917  19.017  0.00  0.00    +0.000 C 
ATOM     12  O   UNL     1       7.519   5.669  20.153  0.00  0.00    +0.000 OA
ATOM     13  C   UNL     1       8.369   7.244  18.582  0.00  0.00    +0.000 C 
ATOM     14  C   UNL     1       7.916   8.616  18.003  0.00  0.00    +0.000 C 
ATOM     15  C   UNL     1       7.790   7.388  17.207  0.00  0.00    +0.000 C 
ATOM     16  C   UNL     1       6.463   6.587  16.806  0.00  0.00    +0.000 C 
ATOM     17  C   UNL     1       5.848   7.643  15.858  0.00  0.00    +0.000 C 
ATOM     18  C   UNL     1       5.159   5.785  17.512  0.00  0.00    +0.000 C 
ATOM     19  C   UNL     1       3.785   6.463  17.735  0.00  0.00    +0.000 C 
ATOM     20  C   UNL     1       2.893   5.552  18.643  0.00  0.00    +0.000 C 
ATOM     21  C   UNL     1       2.459   4.165  18.046  0.00  0.00    +0.000 C 
ATOM     22  C   UNL     1       1.159   4.380  17.228  0.00  0.00    +0.000 C 
ENDROOT
BRANCH   1  23
ATOM     23  C   UNL     1       0.718   2.686  19.502  0.00  0.00    +0.000 C 
ATOM     24  C   UNL     1       0.016   3.557  20.502  0.00  0.00    +0.000 C 
ATOM     25  O   UNL     1       0.104   1.742  18.995  0.00  0.00    +0.000 OA
ENDBRANCH   1  23
BRANCH   1  26
ATOM     26  O   UNL     1       3.060   3.272  20.269  0.00  0.00    +0.000 OA
BRANCH  26  28
ATOM     27  C   UNL     1       4.630   1.690  21.003  0.00  0.00    +0.000 C 
ATOM     28  C   UNL     1       3.281   2.343  21.219  0.00  0.00    +0.000 C 
ATOM     29  O   UNL     1       2.546   2.041  22.159  0.00  0.00    +0.000 OA
ENDBRANCH  26  28
ENDBRANCH   1  26
TORSDOF 3
ENDMDL
MODEL 2
REMARK VINA RESULT:      -6.5     10.010     12.001
REMARK  Name = 
REMARK  7 active torsions:
REMARK  status: ('A' for Active; 'I' for Inactive)
REMARK    1  A    between atoms: C_1  and  C_2
REMARK    2  A    between atoms: C_2  and  O_4
REMARK    3  A    between atoms: O_4  and  C_5
REMARK    4  A    between atoms: C_5  and  C_6
REMARK    5  A    between atoms: C_6  and  C_7
REMARK    6  A    between atoms: C_23  and  C_24
REMARK    7  A    between atoms: C_28  and  C_29
REMARK                            x       y       z     vdW  Elec       q    Type
REMARK                         _______ _______ _______ _____ _____    ______ ____
ROOT
ATOM      1  C   UNL     1      -5.059  13.395  22.494  0.00  0.00    +0.000 C 
ATOM      2  C   UNL     1      -5.211  14.701  21.673  0.00  0.00    +0.000 C 
ATOM      3  C   UNL     1      -4.022  14.678  20.743  0.00  0.00    +0.000 C 
ATOM      4  C   UNL     1      -2.847  14.293  21.655  0.00  0.00    +0.000 C 
ATOM      5  C   UNL     1      -1.527  13.872  20.932  0.00  0.00    +0.000 C 
ATOM      6  C   UNL     1      -1.335  14.680  19.630  0.00  0.00    +0.000 C 
ATOM      7  C   UNL     1      -0.300  14.298  18.867  0.00  0.00    +0.000 C 
ATOM      8 CL   UNL     1       1.254  15.004  19.225  0.00  0.00    +0.000 Cl
ATOM      9  C   UNL     1      -0.294  12.864  18.760  0.00  0.00    +0.000 C 
ATOM     10  C   UNL     1      -1.146  12.181  17.939  0.00  0.00    +0.000 C 
ATOM     11  C   UNL     1      -1.230  10.672  18.164  0.00  0.00    +0.000 C 
ATOM     12  O   UNL     1      -2.277  10.062  18.299  0.00  0.00    +0.000 OA
ATOM     13  C   UNL     1       0.103  10.033  18.195  0.00  0.00    +0.000 C 
ATOM     14  C   UNL     1       1.268   9.611  19.137  0.00  0.00    +0.000 C 
ATOM     15  C   UNL     1       0.944  11.029  18.935  0.00  0.00    +0.000 C 
ATOM     16  C   UNL     1       0.261  12.055  19.958  0.00  0.00    +0.000 C 
ATOM     17  C   UNL     1       1.413  12.136  20.987  0.00  0.00    +0.000 C 
ATOM     18  C   UNL     1      -1.161  12.269  20.837  0.00  0.00    +0.000 C 
ATOM     19  C   UNL     1      -1.290  11.861  22.325  0.00  0.00    +0.000 C 
ATOM     20  C   UNL     1      -2.791  11.938  22.761  0.00  0.00    +0.000 C 
ATOM     21  C   UNL     1      -3.453  13.364  22.773  0.00  0.00    +0.000 C 
ATOM     22  C   UNL     1      -3.166  14.013  24.152  0.00  0.00    +0.000 C 
ENDROOT
BRANCH   1  23
ATOM     23  C   UNL     1      -5.970  13.547  23.756  0.00  0.00    +0.000 C 
ATOM     24  C   UNL     1      -6.677  14.847  24.008  0.00  0.00    +0.000 C 
ATOM     25  O   UNL     1      -6.115  12.622  24.562  0.00  0.00    +0.000 OA
ENDBRANCH   1  23
BRANCH   1  26
ATOM     26  O   UNL     1      -5.359  12.244  21.671  0.00  0.00    +0.000 OA
BRANCH  26  28
ATOM     27  C   UNL     1      -6.293  11.941  19.541  0.00  0.00    +0.000 C 
ATOM     28  C   UNL     1      -6.535  12.154  21.021  0.00  0.00    +0.000 C 
ATOM     29  O   UNL     1      -7.666  12.207  21.501  0.00  0.00    +0.000 OA
ENDBRANCH  26  28
ENDBRANCH   1  26
TORSDOF 3
ENDMDL
MODEL 3
REMARK VINA RESULT:      -6.4      9.640     11.454
REMARK  Name = 
REMARK  7 active torsions:
REMARK  status: ('A' for Active; 'I' for Inactive)
REMARK    1  A    between atoms: C_1  and  C_2
REMARK    2  A    between atoms: C_2  and  O_4
REMARK    3  A    between atoms: O_4  and  C_5
REMARK    4  A    between atoms: C_5  and  C_6
REMARK    5  A    between atoms: C_6  and  C_7
REMARK    6  A    between atoms: C_23  and  C_24
REMARK    7  A    between atoms: C_28  and  C_29
REMARK                            x       y       z     vdW  Elec       q    Type
REMARK                         _______ _______ _______ _____ _____    ______ ____
ROOT
ATOM      1  C   UNL     1       7.697  14.834  23.819  0.00  0.00    +0.000 C 
ATOM      2  C   UNL     1       7.960  13.492  24.547  0.00  0.00    +0.000 C 
ATOM      3  C   UNL     1       8.616  12.636  23.490  0.00  0.00    +0.000 C 
ATOM      4  C   UNL     1       7.745  12.853  22.245  0.00  0.00    +0.000 C 
ATOM      5  C   UNL     1       8.345  12.354  20.891  0.00  0.00    +0.000 C 
ATOM      6  C   UNL     1       9.182  11.073  21.104  0.00  0.00    +0.000 C 
ATOM      7  C   UNL     1       9.851  10.642  20.023  0.00  0.00    +0.000 C 
ATOM      8 CL   UNL     1       8.997   9.588  18.929  0.00  0.00    +0.000 Cl
ATOM      9  C   UNL     1      10.503  11.758  19.392  0.00  0.00    +0.000 C 
ATOM     10  C   UNL     1      11.653  12.313  19.878  0.00  0.00    +0.000 C 
ATOM     11  C   UNL     1      12.047  13.665  19.287  0.00  0.00    +0.000 C 
ATOM     12  O   UNL     1      12.333  14.643  19.957  0.00  0.00    +0.000 OA
ATOM     13  C   UNL     1      12.046  13.655  17.809  0.00  0.00    +0.000 C 
ATOM     14  C   UNL     1      11.163  13.920  16.555  0.00  0.00    +0.000 C 
ATOM     15  C   UNL     1      10.850  12.816  17.472  0.00  0.00    +0.000 C 
ATOM     16  C   UNL     1       9.638  12.692  18.511  0.00  0.00    +0.000 C 
ATOM     17  C   UNL     1       8.483  12.590  17.487  0.00  0.00    +0.000 C 
ATOM     18  C   UNL     1       8.993  13.466  19.862  0.00  0.00    +0.000 C 
ATOM     19  C   UNL     1       7.822  14.475  19.764  0.00  0.00    +0.000 C 
ATOM     20  C   UNL     1       7.645  15.206  21.136  0.00  0.00    +0.000 C 
ATOM     21  C   UNL     1       7.191  14.324  22.355  0.00  0.00    +0.000 C 
ATOM     22  C   UNL     1       5.641  14.260  22.350  0.00  0.00    +0.000 C 
ENDROOT
BRANCH   1  23
ATOM     23  C   UNL     1       6.643  15.612  24.674  0.00  0.00    +0.000 C 
ATOM     24  C   UNL     1       6.214  15.060  26.002  0.00  0.00    +0.000 C 
ATOM     25  O   UNL     1       6.145  16.670  24.277  0.00  0.00    +0.000 OA
ENDBRANCH   1  23
BRANCH   1  26
ATOM     26  O   UNL     1       8.938  15.544  23.603  0.00  0.00    +0.000 OA
BRANCH  26  28
ATOM     27  C   UNL     1       9.543  17.738  24.174  0.00  0.00    +0.000 C 
ATOM     28  C   UNL     1       9.486  16.282  24.588  0.00  0.00    +0.000 C 
ATOM     29  O   UNL     1       9.880  15.894  25.687  0.00  0.00    +0.000 OA
ENDBRANCH  26  28
ENDBRANCH   1  26
TORSDOF 3
ENDMDL
MODEL 4
REMARK VINA RESULT:      -6.3     10.208     12.680
REMARK  Name = 
REMARK  7 active torsions:
REMARK  status: ('A' for Active; 'I' for Inactive)
REMARK    1  A    between atoms: C_1  and  C_2
REMARK    2  A    between atoms: C_2  and  O_4
REMARK    3  A    between atoms: O_4  and  C_5
REMARK    4  A    between atoms: C_5  and  C_6
REMARK    5  A    between atoms: C_6  and  C_7
REMARK    6  A    between atoms: C_23  and  C_24
REMARK    7  A    between atoms: C_28  and  C_29
REMARK                            x       y       z     vdW  Elec       q    Type
REMARK                         _______ _______ _______ _____ _____    ______ ____
ROOT
ATOM      1  C   UNL     1       0.156  11.568  20.106  0.00  0.00    +0.000 C 
ATOM      2  C   UNL     1       1.139  12.566  20.770  0.00  0.00    +0.000 C 
ATOM      3  C   UNL     1       0.236  13.492  21.549  0.00  0.00    +0.000 C 
ATOM      4  C   UNL     1      -0.890  13.827  20.561  0.00  0.00    +0.000 C 
ATOM      5  C   UNL     1      -2.157  14.512  21.171  0.00  0.00    +0.000 C 
ATOM      6  C   UNL     1      -1.764  15.453  22.331  0.00  0.00    +0.000 C 
ATOM      7  C   UNL     1      -2.792  15.985  23.009  0.00  0.00    +0.000 C 
ATOM      8 CL   UNL     1      -3.473  17.465  22.385  0.00  0.00    +0.000 Cl
ATOM      9  C   UNL     1      -3.756  14.957  23.292  0.00  0.00    +0.000 C 
ATOM     10  C   UNL     1      -3.583  14.036  24.286  0.00  0.00    +0.000 C 
ATOM     11  C   UNL     1      -4.529  12.836  24.263  0.00  0.00    +0.000 C 
ATOM     12  O   UNL     1      -4.158  11.677  24.328  0.00  0.00    +0.000 OA
ATOM     13  C   UNL     1      -5.947  13.241  24.155  0.00  0.00    +0.000 C 
ATOM     14  C   UNL     1      -7.091  13.537  23.143  0.00  0.00    +0.000 C 
ATOM     15  C   UNL     1      -5.903  14.398  23.203  0.00  0.00    +0.000 C 
ATOM     16  C   UNL     1      -4.705  14.524  22.148  0.00  0.00    +0.000 C 
ATOM     17  C   UNL     1      -5.503  15.166  20.989  0.00  0.00    +0.000 C 
ATOM     18  C   UNL     1      -3.501  13.594  21.422  0.00  0.00    +0.000 C 
ATOM     19  C   UNL     1      -3.672  12.955  20.021  0.00  0.00    +0.000 C 
ATOM     20  C   UNL     1      -2.503  11.948  19.759  0.00  0.00    +0.000 C 
ATOM     21  C   UNL     1      -1.058  12.555  19.647  0.00  0.00    +0.000 C 
ATOM     22  C   UNL     1      -0.831  12.984  18.174  0.00  0.00    +0.000 C 
ENDROOT
BRANCH   1  23
ATOM     23  C   UNL     1       0.940  10.863  18.951  0.00  0.00    +0.000 C 
ATOM     24  C   UNL     1       0.320   9.696  18.240  0.00  0.00    +0.000 C 
ATOM     25  O   UNL     1       2.068  11.238  18.616  0.00  0.00    +0.000 OA
ENDBRANCH   1  23
BRANCH   1  26
ATOM     26  O   UNL     1      -0.394  10.668  21.096  0.00  0.00    +0.000 OA
BRANCH  26  28
ATOM     27  C   UNL     1      -0.178   8.389  21.607  0.00  0.00    +0.000 C 
ATOM     28  C   UNL     1       0.397   9.784  21.734  0.00  0.00    +0.000 C 
ATOM     29  O   UNL     1       1.449  10.011  22.329  0.00  0.00    +0.000 OA
ENDBRANCH  26  28
ENDBRANCH   1  26
TORSDOF 3
ENDMDL
MODEL 5
REMARK VINA RESULT:      -6.3      9.826     11.519
REMARK  Name = 
REMARK  7 active torsions:
REMARK  status: ('A' for Active; 'I' for Inactive)
REMARK    1  A    between atoms: C_1  and  C_2
REMARK    2  A    between atoms: C_2  and  O_4
REMARK    3  A    between atoms: O_4  and  C_5
REMARK    4  A    between atoms: C_5  and  C_6
REMARK    5  A    between atoms: C_6  and  C_7
REMARK    6  A    between atoms: C_23  and  C_24
REMARK    7  A    between atoms: C_28  and  C_29
REMARK                            x       y       z     vdW  Elec       q    Type
REMARK                         _______ _______ _______ _____ _____    ______ ____
ROOT
ATOM      1  C   UNL     1       6.241  14.116  23.879  0.00  0.00    +0.000 C 
ATOM      2  C   UNL     1       6.434  15.653  23.926  0.00  0.00    +0.000 C 
ATOM      3  C   UNL     1       7.441  15.920  22.833  0.00  0.00    +0.000 C 
ATOM      4  C   UNL     1       8.518  14.849  23.053  0.00  0.00    +0.000 C 
ATOM      5  C   UNL     1       9.540  14.653  21.887  0.00  0.00    +0.000 C 
ATOM      6  C   UNL     1       9.840  16.000  21.192  0.00  0.00    +0.000 C 
ATOM      7  C   UNL     1      10.604  15.918  20.092  0.00  0.00    +0.000 C 
ATOM      8 CL   UNL     1      12.332  15.950  20.320  0.00  0.00    +0.000 Cl
ATOM      9  C   UNL     1      10.129  14.842  19.265  0.00  0.00    +0.000 C 
ATOM     10  C   UNL     1       9.016  14.948  18.481  0.00  0.00    +0.000 C 
ATOM     11  C   UNL     1       8.470  13.641  17.910  0.00  0.00    +0.000 C 
ATOM     12  O   UNL     1       7.302  13.297  17.993  0.00  0.00    +0.000 OA
ATOM     13  C   UNL     1       9.516  12.839  17.240  0.00  0.00    +0.000 C 
ATOM     14  C   UNL     1      10.575  11.721  17.469  0.00  0.00    +0.000 C 
ATOM     15  C   UNL     1      10.712  13.029  18.123  0.00  0.00    +0.000 C 
ATOM     16  C   UNL     1      10.519  13.399  19.669  0.00  0.00    +0.000 C 
ATOM     17  C   UNL     1      11.740  12.634  20.231  0.00  0.00    +0.000 C 
ATOM     18  C   UNL     1       9.350  13.361  20.884  0.00  0.00    +0.000 C 
ATOM     19  C   UNL     1       9.260  12.212  21.918  0.00  0.00    +0.000 C 
ATOM     20  C   UNL     1       7.923  12.336  22.723  0.00  0.00    +0.000 C 
ATOM     21  C   UNL     1       7.769  13.597  23.649  0.00  0.00    +0.000 C 
ATOM     22  C   UNL     1       8.402  13.262  25.025  0.00  0.00    +0.000 C 
ENDROOT
BRANCH   1  23
ATOM     23  C   UNL     1       5.574  13.704  25.232  0.00  0.00    +0.000 C 
ATOM     24  C   UNL     1       5.434  14.719  26.329  0.00  0.00    +0.000 C 
ATOM     25  O   UNL     1       5.168  12.554  25.427  0.00  0.00    +0.000 OA
ENDBRANCH   1  23
BRANCH   1  26
ATOM     26  O   UNL     1       5.493  13.738  22.701  0.00  0.00    +0.000 OA
BRANCH  26  28
ATOM     27  C   UNL     1       4.695  14.863  20.803  0.00  0.00    +0.000 C 
ATOM     28  C   UNL     1       4.477  14.503  22.258  0.00  0.00    +0.000 C 
ATOM     29  O   UNL     1       3.484  14.870  22.885  0.00  0.00    +0.000 OA
ENDBRANCH  26  28
ENDBRANCH   1  26
TORSDOF 3
ENDMDL
MODEL 6
REMARK VINA RESULT:      -6.2      9.224     11.854
REMARK  Name = 
REMARK  7 active torsions:
REMARK  status: ('A' for Active; 'I' for Inactive)
REMARK    1  A    between atoms: C_1  and  C_2
REMARK    2  A    between atoms: C_2  and  O_4
REMARK    3  A    between atoms: O_4  and  C_5
REMARK    4  A    between atoms: C_5  and  C_6
REMARK    5  A    between atoms: C_6  and  C_7
REMARK    6  A    between atoms: C_23  and  C_24
REMARK    7  A    between atoms: C_28  and  C_29
REMARK                            x       y       z     vdW  Elec       q    Type
REMARK                         _______ _______ _______ _____ _____    ______ ____
ROOT
ATOM      1  C   UNL     1       1.272  16.461  20.069  0.00  0.00    +0.000 C 
ATOM      2  C   UNL     1      -0.098  16.781  19.418  0.00  0.00    +0.000 C 
ATOM      3  C   UNL     1      -0.752  15.427  19.281  0.00  0.00    +0.000 C 
ATOM      4  C   UNL     1       0.358  14.537  18.703  0.00  0.00    +0.000 C 
ATOM      5  C   UNL     1       0.095  12.997  18.744  0.00  0.00    +0.000 C 
ATOM      6  C   UNL     1      -1.405  12.693  18.533  0.00  0.00    +0.000 C 
ATOM      7  C   UNL     1      -1.755  11.407  18.685  0.00  0.00    +0.000 C 
ATOM      8 CL   UNL     1      -1.617  10.376  17.285  0.00  0.00    +0.000 Cl
ATOM      9  C   UNL     1      -1.138  10.885  19.875  0.00  0.00    +0.000 C 
ATOM     10  C   UNL     1      -1.605  11.158  21.129  0.00  0.00    +0.000 C 
ATOM     11  C   UNL     1      -0.676  10.793  22.285  0.00  0.00    +0.000 C 
ATOM     12  O   UNL     1      -0.377  11.561  23.185  0.00  0.00    +0.000 OA
ATOM     13  C   UNL     1      -0.180   9.404  22.193  0.00  0.00    +0.000 C 
ATOM     14  C   UNL     1       0.974   8.520  21.637  0.00  0.00    +0.000 C 
ATOM     15  C   UNL     1       0.062   9.222  20.725  0.00  0.00    +0.000 C 
ATOM     16  C   UNL     1       0.358  10.492  19.796  0.00  0.00    +0.000 C 
ATOM     17  C   UNL     1       1.336   9.817  18.808  0.00  0.00    +0.000 C 
ATOM     18  C   UNL     1       0.847  12.102  19.905  0.00  0.00    +0.000 C 
ATOM     19  C   UNL     1       2.316  12.543  19.692  0.00  0.00    +0.000 C 
ATOM     20  C   UNL     1       2.482  14.038  20.123  0.00  0.00    +0.000 C 
ATOM     21  C   UNL     1       1.712  15.110  19.269  0.00  0.00    +0.000 C 
ATOM     22  C   UNL     1       2.612  15.503  18.069  0.00  0.00    +0.000 C 
ENDROOT
BRANCH   1  23
ATOM     23  C   UNL     1       2.180  17.715  19.846  0.00  0.00    +0.000 C 
ATOM     24  C   UNL     1       3.488  17.822  20.576  0.00  0.00    +0.000 C 
ATOM     25  O   UNL     1       1.841  18.630  19.090  0.00  0.00    +0.000 OA
ENDBRANCH   1  23
BRANCH   1  26
ATOM     26  O   UNL     1       1.098  16.084  21.454  0.00  0.00    +0.000 OA
BRANCH  26  28
ATOM     27  C   UNL     1      -0.717  15.962  22.936  0.00  0.00    +0.000 C 
ATOM     28  C   UNL     1       0.335  16.830  22.277  0.00  0.00    +0.000 C 
ATOM     29  O   UNL     1       0.440  18.032  22.515  0.00  0.00    +0.000 OA
ENDBRANCH  26  28
ENDBRANCH   1  26
TORSDOF 3
ENDMDL
MODEL 7
REMARK VINA RESULT:      -6.1      9.730     11.302
REMARK  Name = 
REMARK  7 active torsions:
REMARK  status: ('A' for Active; 'I' for Inactive)
REMARK    1  A    between atoms: C_1  and  C_2
REMARK    2  A    between atoms: C_2  and  O_4
REMARK    3  A    between atoms: O_4  and  C_5
REMARK    4  A    between atoms: C_5  and  C_6
REMARK    5  A    between atoms: C_6  and  C_7
REMARK    6  A    between atoms: C_23  and  C_24
REMARK    7  A    between atoms: C_28  and  C_29
REMARK                            x       y       z     vdW  Elec       q    Type
REMARK                         _______ _______ _______ _____ _____    ______ ____
ROOT
ATOM      1  C   UNL     1       7.654  13.930  24.477  0.00  0.00    +0.000 C 
ATOM      2  C   UNL     1       8.143  12.503  24.835  0.00  0.00    +0.000 C 
ATOM      3  C   UNL     1       8.822  12.031  23.572  0.00  0.00    +0.000 C 
ATOM      4  C   UNL     1       7.837  12.415  22.458  0.00  0.00    +0.000 C 
ATOM      5  C   UNL     1       8.392  12.349  20.998  0.00  0.00    +0.000 C 
ATOM      6  C   UNL     1       9.401  11.188  20.849  0.00  0.00    +0.000 C 
ATOM      7  C   UNL     1      10.036  11.131  19.669  0.00  0.00    +0.000 C 
ATOM      8 CL   UNL     1       9.243  10.260  18.383  0.00  0.00    +0.000 Cl
ATOM      9  C   UNL     1      10.488  12.448  19.309  0.00  0.00    +0.000 C 
ATOM     10  C   UNL     1      11.589  13.029  19.869  0.00  0.00    +0.000 C 
ATOM     11  C   UNL     1      11.760  14.526  19.617  0.00  0.00    +0.000 C 
ATOM     12  O   UNL     1      11.968  15.344  20.497  0.00  0.00    +0.000 OA
ATOM     13  C   UNL     1      11.647  14.872  18.185  0.00  0.00    +0.000 C 
ATOM     14  C   UNL     1      10.644  15.302  17.075  0.00  0.00    +0.000 C 
ATOM     15  C   UNL     1      10.548  13.977  17.700  0.00  0.00    +0.000 C 
ATOM     16  C   UNL     1       9.444  13.432  18.725  0.00  0.00    +0.000 C 
ATOM     17  C   UNL     1       8.238  13.415  17.758  0.00  0.00    +0.000 C 
ATOM     18  C   UNL     1       8.810  13.757  20.253  0.00  0.00    +0.000 C 
ATOM     19  C   UNL     1       7.514  14.580  20.459  0.00  0.00    +0.000 C 
ATOM     20  C   UNL     1       7.350  14.926  21.977  0.00  0.00    +0.000 C 
ATOM     21  C   UNL     1       7.108  13.720  22.955  0.00  0.00    +0.000 C 
ATOM     22  C   UNL     1       5.583  13.437  22.999  0.00  0.00    +0.000 C 
ENDROOT
BRANCH   1  23
ATOM     23  C   UNL     1       6.578  14.318  25.543  0.00  0.00    +0.000 C 
ATOM     24  C   UNL     1       6.248  13.357  26.648  0.00  0.00    +0.000 C 
ATOM     25  O   UNL     1       5.980  15.397  25.491  0.00  0.00    +0.000 OA
ENDBRANCH   1  23
BRANCH   1  26
ATOM     26  O   UNL     1       8.773  14.841  24.393  0.00  0.00    +0.000 OA
BRANCH  26  28
ATOM     27  C   UNL     1       9.184  16.933  25.372  0.00  0.00    +0.000 C 
ATOM     28  C   UNL     1       9.265  15.427  25.502  0.00  0.00    +0.000 C 
ATOM     29  O   UNL     1       9.708  14.876  26.509  0.00  0.00    +0.000 OA
ENDBRANCH  26  28
ENDBRANCH   1  26
TORSDOF 3
ENDMDL
MODEL 8
REMARK VINA RESULT:      -6.1     10.038     11.964
REMARK  Name = 
REMARK  7 active torsions:
REMARK  status: ('A' for Active; 'I' for Inactive)
REMARK    1  A    between atoms: C_1  and  C_2
REMARK    2  A    between atoms: C_2  and  O_4
REMARK    3  A    between atoms: O_4  and  C_5
REMARK    4  A    between atoms: C_5  and  C_6
REMARK    5  A    between atoms: C_6  and  C_7
REMARK    6  A    between atoms: C_23  and  C_24
REMARK    7  A    between atoms: C_28  and  C_29
REMARK                            x       y       z     vdW  Elec       q    Type
REMARK                         _______ _______ _______ _____ _____    ______ ____
ROOT
ATOM      1  C   UNL     1       7.636  15.788  23.486  0.00  0.00    +0.000 C 
ATOM      2  C   UNL     1       7.962  14.587  24.411  0.00  0.00    +0.000 C 
ATOM      3  C   UNL     1       8.670  13.616  23.497  0.00  0.00    +0.000 C 
ATOM      4  C   UNL     1       7.801  13.597  22.232  0.00  0.00    +0.000 C 
ATOM      5  C   UNL     1       8.439  12.930  20.970  0.00  0.00    +0.000 C 
ATOM      6  C   UNL     1       9.338  11.741  21.376  0.00  0.00    +0.000 C 
ATOM      7  C   UNL     1      10.038  11.187  20.375  0.00  0.00    +0.000 C 
ATOM      8 CL   UNL     1       9.249   9.936  19.452  0.00  0.00    +0.000 Cl
ATOM      9  C   UNL     1      10.638  12.226  19.583  0.00  0.00    +0.000 C 
ATOM     10  C   UNL     1      11.753  12.908  19.981  0.00  0.00    +0.000 C 
ATOM     11  C   UNL     1      12.084  14.173  19.192  0.00  0.00    +0.000 C 
ATOM     12  O   UNL     1      12.313  15.255  19.706  0.00  0.00    +0.000 OA
ATOM     13  C   UNL     1      12.097  13.939  17.732  0.00  0.00    +0.000 C 
ATOM     14  C   UNL     1      11.214  13.964  16.451  0.00  0.00    +0.000 C 
ATOM     15  C   UNL     1      10.949  12.998  17.525  0.00  0.00    +0.000 C 
ATOM     16  C   UNL     1       9.735  12.969  18.569  0.00  0.00    +0.000 C 
ATOM     17  C   UNL     1       8.597  12.654  17.571  0.00  0.00    +0.000 C 
ATOM     18  C   UNL     1       9.038  13.905  19.786  0.00  0.00    +0.000 C 
ATOM     19  C   UNL     1       7.818  14.825  19.534  0.00  0.00    +0.000 C 
ATOM     20  C   UNL     1       7.591  15.746  20.779  0.00  0.00    +0.000 C 
ATOM     21  C   UNL     1       7.171  15.036  22.117  0.00  0.00    +0.000 C 
ATOM     22  C   UNL     1       5.627  14.892  22.119  0.00  0.00    +0.000 C 
ENDROOT
BRANCH   1  23
ATOM     23  C   UNL     1       6.537  16.631  24.212  0.00  0.00    +0.000 C 
ATOM     24  C   UNL     1       6.112  17.950  23.635  0.00  0.00    +0.000 C 
ATOM     25  O   UNL     1       6.015  16.242  25.262  0.00  0.00    +0.000 OA
ENDBRANCH   1  23
BRANCH   1  26
ATOM     26  O   UNL     1       8.842  16.521  23.168  0.00  0.00    +0.000 OA
BRANCH  26  28
ATOM     27  C   UNL     1      11.110  16.448  23.765  0.00  0.00    +0.000 C 
ATOM     28  C   UNL     1       9.705  16.876  24.139  0.00  0.00    +0.000 C 
ATOM     29  O   UNL     1       9.457  17.476  25.183  0.00  0.00    +0.000 OA
ENDBRANCH  26  28
ENDBRANCH   1  26
TORSDOF 3
ENDMDL
MODEL 9
REMARK VINA RESULT:      -6.0     11.103     12.866
REMARK  Name = 
REMARK  7 active torsions:
REMARK  status: ('A' for Active; 'I' for Inactive)
REMARK    1  A    between atoms: C_1  and  C_2
REMARK    2  A    between atoms: C_2  and  O_4
REMARK    3  A    between atoms: O_4  and  C_5
REMARK    4  A    between atoms: C_5  and  C_6
REMARK    5  A    between atoms: C_6  and  C_7
REMARK    6  A    between atoms: C_23  and  C_24
REMARK    7  A    between atoms: C_28  and  C_29
REMARK                            x       y       z     vdW  Elec       q    Type
REMARK                         _______ _______ _______ _____ _____    ______ ____
ROOT
ATOM      1  C   UNL     1      -4.861  13.485  22.725  0.00  0.00    +0.000 C 
ATOM      2  C   UNL     1      -5.477  14.818  22.229  0.00  0.00    +0.000 C 
ATOM      3  C   UNL     1      -4.329  15.503  21.528  0.00  0.00    +0.000 C 
ATOM      4  C   UNL     1      -3.151  15.337  22.499  0.00  0.00    +0.000 C 
ATOM      5  C   UNL     1      -1.734  15.659  21.922  0.00  0.00    +0.000 C 
ATOM      6  C   UNL     1      -1.811  16.816  20.901  0.00  0.00    +0.000 C 
ATOM      7  C   UNL     1      -0.668  17.079  20.249  0.00  0.00    +0.000 C 
ATOM      8 CL   UNL     1       0.450  18.176  21.015  0.00  0.00    +0.000 Cl
ATOM      9  C   UNL     1      -0.083  15.844  19.802  0.00  0.00    +0.000 C 
ATOM     10  C   UNL     1      -0.543  15.159  18.714  0.00  0.00    +0.000 C 
ATOM     11  C   UNL     1      -0.028  13.730  18.552  0.00  0.00    +0.000 C 
ATOM     12  O   UNL     1      -0.749  12.765  18.364  0.00  0.00    +0.000 OA
ATOM     13  C   UNL     1       1.445  13.649  18.646  0.00  0.00    +0.000 C 
ATOM     14  C   UNL     1       2.627  13.437  19.636  0.00  0.00    +0.000 C 
ATOM     15  C   UNL     1       1.775  14.630  19.731  0.00  0.00    +0.000 C 
ATOM     16  C   UNL     1       0.683  14.992  20.845  0.00  0.00    +0.000 C 
ATOM     17  C   UNL     1       1.647  15.196  22.037  0.00  0.00    +0.000 C 
ATOM     18  C   UNL     1      -0.753  14.404  21.505  0.00  0.00    +0.000 C 
ATOM     19  C   UNL     1      -0.790  13.571  22.810  0.00  0.00    +0.000 C 
ATOM     20  C   UNL     1      -2.218  12.959  23.000  0.00  0.00    +0.000 C 
ATOM     21  C   UNL     1      -3.395  13.972  23.246  0.00  0.00    +0.000 C 
ATOM     22  C   UNL     1      -3.469  14.258  24.769  0.00  0.00    +0.000 C 
ENDROOT
BRANCH   1  23
ATOM     23  C   UNL     1      -5.825  12.922  23.820  0.00  0.00    +0.000 C 
ATOM     24  C   UNL     1      -7.112  13.637  24.112  0.00  0.00    +0.000 C 
ATOM     25  O   UNL     1      -5.547  11.905  24.463  0.00  0.00    +0.000 OA
ENDBRANCH   1  23
BRANCH   1  26
ATOM     26  O   UNL     1      -4.629  12.591  21.612  0.00  0.00    +0.000 OA
BRANCH  26  28
ATOM     27  C   UNL     1      -5.430  12.646  19.408  0.00  0.00    +0.000 C 
ATOM     28  C   UNL     1      -5.650  12.186  20.834  0.00  0.00    +0.000 C 
ATOM     29  O   UNL     1      -6.631  11.522  21.167  0.00  0.00    +0.000 OA
ENDBRANCH  26  28
ENDBRANCH   1  26
TORSDOF 3
ENDMDL
