MODEL 1
REMARK VINA RESULT:      -8.1      0.000      0.000
REMARK  Name = 
REMARK  6 active torsions:
REMARK  status: ('A' for Active; 'I' for Inactive)
REMARK    1  A    between atoms: C_1  and  C_2
REMARK    2  A    between atoms: C_2  and  C_3
REMARK    3  A    between atoms: N_5  and  C_6
REMARK    4  A    between atoms: C_6  and  C_7
REMARK    5  A    between atoms: N_21  and  C_22
REMARK    6  A    between atoms: C_22  and  C_23
REMARK                            x       y       z     vdW  Elec       q    Type
REMARK                         _______ _______ _______ _____ _____    ______ ____
ROOT
ATOM      1  C   UNL     1       2.940   3.868  18.381  0.00  0.00    +0.000 C 
ATOM      2  C   UNL     1       3.749   2.700  17.776  0.00  0.00    +0.000 C 
ATOM      3  O   UNL     1       3.451   1.511  17.813  0.00  0.00    +0.000 OA
ATOM      4  N   UNL     1       4.976   3.178  17.349  0.00  0.00    +0.000 N 
ATOM      5  C   UNL     1       5.047   4.520  17.492  0.00  0.00    +0.000 A 
ATOM      6  C   UNL     1       3.928   4.963  18.069  0.00  0.00    +0.000 A 
ATOM      7  C   UNL     1       3.713   6.406  18.117  0.00  0.00    +0.000 A 
ATOM      8  O   UNL     1       2.651   6.922  18.429  0.00  0.00    +0.000 OA
ATOM      9  N   UNL     1       4.769   7.168  17.700  0.00  0.00    +0.000 N 
ATOM     10  C   UNL     1       5.894   6.713  17.061  0.00  0.00    +0.000 A 
ATOM     11  O   UNL     1       6.674   7.508  16.541  0.00  0.00    +0.000 OA
ATOM     12  N   UNL     1       6.053   5.333  17.040  0.00  0.00    +0.000 N 
ATOM     13  H   UNL     1       5.657   2.595  16.876  0.00  0.00    +0.000 HD
ATOM     14  H   UNL     1       4.609   8.165  17.670  0.00  0.00    +0.000 HD
ENDROOT
BRANCH   1  17
ATOM     15  C   UNL     1       2.172   4.170  20.739  0.00  0.00    +0.000 C 
ATOM     16  O   UNL     1       1.586   5.208  20.460  0.00  0.00    +0.000 OA
ATOM     17  N   UNL     1       2.920   3.482  19.819  0.00  0.00    +0.000 N 
ATOM     18  H   UNL     1       3.039   2.490  20.008  0.00  0.00    +0.000 HD
BRANCH  15  20
ATOM     19  C   UNL     1       1.409   2.210  22.108  0.00  0.00    +0.000 C 
ATOM     20  C   UNL     1       2.148   3.539  22.114  0.00  0.00    +0.000 C 
ENDBRANCH  15  20
ENDBRANCH   1  17
BRANCH   1  21
ATOM     21  C   UNL     1       1.585   3.935  17.639  0.00  0.00    +0.000 C 
ATOM     22  F   UNL     1       0.658   3.123  18.198  0.00  0.00    +0.000 F 
ATOM     23  F   UNL     1       1.059   5.177  17.590  0.00  0.00    +0.000 F 
ATOM     24  F   UNL     1       1.694   3.548  16.341  0.00  0.00    +0.000 F 
ENDBRANCH   1  21
BRANCH  12  25
ATOM     25  C   UNL     1       7.286   4.802  16.464  0.00  0.00    +0.000 C 
BRANCH  25  26
ATOM     26  C   UNL     1       7.148   4.666  14.992  0.00  0.00    +0.000 A 
ATOM     27  C   UNL     1       6.340   3.890  14.187  0.00  0.00    +0.000 A 
ATOM     28  C   UNL     1       6.710   4.186  12.853  0.00  0.00    +0.000 A 
ATOM     29  C   UNL     1       7.700   5.138  12.931  0.00  0.00    +0.000 A 
ATOM     30  O   UNL     1       7.967   5.444  14.226  0.00  0.00    +0.000 OA
ENDBRANCH  25  26
ENDBRANCH  12  25
TORSDOF 5
ENDMDL
MODEL 2
REMARK VINA RESULT:      -7.1      2.759      6.240
REMARK  Name = 
REMARK  6 active torsions:
REMARK  status: ('A' for Active; 'I' for Inactive)
REMARK    1  A    between atoms: C_1  and  C_2
REMARK    2  A    between atoms: C_2  and  C_3
REMARK    3  A    between atoms: N_5  and  C_6
REMARK    4  A    between atoms: C_6  and  C_7
REMARK    5  A    between atoms: N_21  and  C_22
REMARK    6  A    between atoms: C_22  and  C_23
REMARK                            x       y       z     vdW  Elec       q    Type
REMARK                         _______ _______ _______ _____ _____    ______ ____
ROOT
ATOM      1  C   UNL     1       5.605   5.021  18.007  0.00  0.00    +0.000 C 
ATOM      2  C   UNL     1       5.216   4.105  19.188  0.00  0.00    +0.000 C 
ATOM      3  O   UNL     1       5.768   3.059  19.511  0.00  0.00    +0.000 OA
ATOM      4  N   UNL     1       4.015   4.544  19.718  0.00  0.00    +0.000 N 
ATOM      5  C   UNL     1       3.610   5.685  19.118  0.00  0.00    +0.000 A 
ATOM      6  C   UNL     1       4.467   6.000  18.145  0.00  0.00    +0.000 A 
ATOM      7  C   UNL     1       4.331   7.311  17.516  0.00  0.00    +0.000 A 
ATOM      8  O   UNL     1       5.166   7.794  16.768  0.00  0.00    +0.000 OA
ATOM      9  N   UNL     1       3.225   8.024  17.889  0.00  0.00    +0.000 N 
ATOM     10  C   UNL     1       2.376   7.722  18.923  0.00  0.00    +0.000 A 
ATOM     11  O   UNL     1       1.546   8.546  19.302  0.00  0.00    +0.000 OA
ATOM     12  N   UNL     1       2.548   6.465  19.489  0.00  0.00    +0.000 N 
ATOM     13  H   UNL     1       3.588   4.119  20.533  0.00  0.00    +0.000 HD
ATOM     14  H   UNL     1       3.153   8.957  17.508  0.00  0.00    +0.000 HD
ENDROOT
BRANCH   1  17
ATOM     15  C   UNL     1       5.863   4.413  15.597  0.00  0.00    +0.000 C 
ATOM     16  O   UNL     1       6.273   5.532  15.315  0.00  0.00    +0.000 OA
ATOM     17  N   UNL     1       5.442   4.085  16.859  0.00  0.00    +0.000 N 
ATOM     18  H   UNL     1       5.489   3.096  17.091  0.00  0.00    +0.000 HD
BRANCH  15  20
ATOM     19  C   UNL     1       6.102   3.745  13.190  0.00  0.00    +0.000 C 
ATOM     20  C   UNL     1       5.764   3.281  14.598  0.00  0.00    +0.000 C 
ENDBRANCH  15  20
ENDBRANCH   1  17
BRANCH   1  21
ATOM     21  C   UNL     1       7.023   5.572  18.285  0.00  0.00    +0.000 C 
ATOM     22  F   UNL     1       7.985   4.657  18.023  0.00  0.00    +0.000 F 
ATOM     23  F   UNL     1       7.316   6.684  17.578  0.00  0.00    +0.000 F 
ATOM     24  F   UNL     1       7.184   5.929  19.586  0.00  0.00    +0.000 F 
ENDBRANCH   1  21
BRANCH  12  25
ATOM     25  C   UNL     1       1.602   6.054  20.524  0.00  0.00    +0.000 C 
BRANCH  25  26
ATOM     26  C   UNL     1       1.428   4.580  20.504  0.00  0.00    +0.000 A 
ATOM     27  C   UNL     1       0.835   3.711  19.612  0.00  0.00    +0.000 A 
ATOM     28  C   UNL     1       0.961   2.419  20.175  0.00  0.00    +0.000 A 
ATOM     29  C   UNL     1       1.641   2.580  21.359  0.00  0.00    +0.000 A 
ATOM     30  O   UNL     1       1.938   3.889  21.564  0.00  0.00    +0.000 OA
ENDBRANCH  25  26
ENDBRANCH  12  25
TORSDOF 5
ENDMDL
MODEL 3
REMARK VINA RESULT:      -6.9      2.857      6.537
REMARK  Name = 
REMARK  6 active torsions:
REMARK  status: ('A' for Active; 'I' for Inactive)
REMARK    1  A    between atoms: C_1  and  C_2
REMARK    2  A    between atoms: C_2  and  C_3
REMARK    3  A    between atoms: N_5  and  C_6
REMARK    4  A    between atoms: C_6  and  C_7
REMARK    5  A    between atoms: N_21  and  C_22
REMARK    6  A    between atoms: C_22  and  C_23
REMARK                            x       y       z     vdW  Elec       q    Type
REMARK                         _______ _______ _______ _____ _____    ______ ____
ROOT
ATOM      1  C   UNL     1       6.868   5.806  16.962  0.00  0.00    +0.000 C 
ATOM      2  C   UNL     1       7.339   4.506  17.650  0.00  0.00    +0.000 C 
ATOM      3  O   UNL     1       8.497   4.119  17.762  0.00  0.00    +0.000 OA
ATOM      4  N   UNL     1       6.231   3.735  17.956  0.00  0.00    +0.000 N 
ATOM      5  C   UNL     1       5.088   4.393  17.661  0.00  0.00    +0.000 A 
ATOM      6  C   UNL     1       5.386   5.565  17.097  0.00  0.00    +0.000 A 
ATOM      7  C   UNL     1       4.300   6.522  16.899  0.00  0.00    +0.000 A 
ATOM      8  O   UNL     1       4.474   7.689  16.588  0.00  0.00    +0.000 OA
ATOM      9  N   UNL     1       3.048   6.046  17.173  0.00  0.00    +0.000 N 
ATOM     10  C   UNL     1       2.748   4.863  17.799  0.00  0.00    +0.000 A 
ATOM     11  O   UNL     1       1.603   4.641  18.186  0.00  0.00    +0.000 OA
ATOM     12  N   UNL     1       3.815   3.989  17.967  0.00  0.00    +0.000 N 
ATOM     13  H   UNL     1       6.296   2.855  18.455  0.00  0.00    +0.000 HD
ATOM     14  H   UNL     1       2.296   6.716  17.101  0.00  0.00    +0.000 HD
ENDROOT
BRANCH   1  17
ATOM     15  C   UNL     1       6.719   4.787  14.686  0.00  0.00    +0.000 C 
ATOM     16  O   UNL     1       5.758   4.101  15.010  0.00  0.00    +0.000 OA
ATOM     17  N   UNL     1       7.377   5.593  15.579  0.00  0.00    +0.000 N 
ATOM     18  H   UNL     1       7.878   6.378  15.170  0.00  0.00    +0.000 HD
BRANCH  15  20
ATOM     19  C   UNL     1       6.656   3.762  12.396  0.00  0.00    +0.000 C 
ATOM     20  C   UNL     1       7.291   4.818  13.285  0.00  0.00    +0.000 C 
ENDBRANCH  15  20
ENDBRANCH   1  17
BRANCH   1  21
ATOM     21  C   UNL     1       7.446   6.997  17.761  0.00  0.00    +0.000 C 
ATOM     22  F   UNL     1       6.473   7.776  18.289  0.00  0.00    +0.000 F 
ATOM     23  F   UNL     1       8.260   6.623  18.771  0.00  0.00    +0.000 F 
ATOM     24  F   UNL     1       8.203   7.814  16.982  0.00  0.00    +0.000 F 
ENDBRANCH   1  21
BRANCH  12  25
ATOM     25  C   UNL     1       3.530   2.673  18.533  0.00  0.00    +0.000 C 
BRANCH  25  26
ATOM     26  C   UNL     1       2.755   2.813  19.791  0.00  0.00    +0.000 A 
ATOM     27  C   UNL     1       1.592   2.232  20.254  0.00  0.00    +0.000 A 
ATOM     28  C   UNL     1       1.340   2.808  21.522  0.00  0.00    +0.000 A 
ATOM     29  C   UNL     1       2.374   3.683  21.760  0.00  0.00    +0.000 A 
ATOM     30  O   UNL     1       3.245   3.686  20.718  0.00  0.00    +0.000 OA
ENDBRANCH  25  26
ENDBRANCH  12  25
TORSDOF 5
ENDMDL
MODEL 4
REMARK VINA RESULT:      -6.8      3.676      6.652
REMARK  Name = 
REMARK  6 active torsions:
REMARK  status: ('A' for Active; 'I' for Inactive)
REMARK    1  A    between atoms: C_1  and  C_2
REMARK    2  A    between atoms: C_2  and  C_3
REMARK    3  A    between atoms: N_5  and  C_6
REMARK    4  A    between atoms: C_6  and  C_7
REMARK    5  A    between atoms: N_21  and  C_22
REMARK    6  A    between atoms: C_22  and  C_23
REMARK                            x       y       z     vdW  Elec       q    Type
REMARK                         _______ _______ _______ _____ _____    ______ ____
ROOT
ATOM      1  C   UNL     1       3.350   6.235  18.386  0.00  0.00    +0.000 C 
ATOM      2  C   UNL     1       3.264   7.365  17.336  0.00  0.00    +0.000 C 
ATOM      3  O   UNL     1       3.825   7.391  16.246  0.00  0.00    +0.000 OA
ATOM      4  N   UNL     1       2.607   8.447  17.896  0.00  0.00    +0.000 N 
ATOM      5  C   UNL     1       2.154   8.149  19.134  0.00  0.00    +0.000 A 
ATOM      6  C   UNL     1       2.544   6.917  19.463  0.00  0.00    +0.000 A 
ATOM      7  C   UNL     1       1.979   6.323  20.671  0.00  0.00    +0.000 A 
ATOM      8  O   UNL     1       2.095   5.144  20.964  0.00  0.00    +0.000 OA
ATOM      9  N   UNL     1       1.218   7.166  21.432  0.00  0.00    +0.000 N 
ATOM     10  C   UNL     1       0.776   8.412  21.069  0.00  0.00    +0.000 A 
ATOM     11  O   UNL     1      -0.077   8.987  21.742  0.00  0.00    +0.000 OA
ATOM     12  N   UNL     1       1.342   8.932  19.911  0.00  0.00    +0.000 N 
ATOM     13  H   UNL     1       2.395   9.289  17.373  0.00  0.00    +0.000 HD
ATOM     14  H   UNL     1       0.770   6.749  22.237  0.00  0.00    +0.000 HD
ENDROOT
BRANCH   1  17
ATOM     15  C   UNL     1       5.423   5.141  19.249  0.00  0.00    +0.000 C 
ATOM     16  O   UNL     1       4.789   4.192  19.692  0.00  0.00    +0.000 OA
ATOM     17  N   UNL     1       4.813   6.219  18.664  0.00  0.00    +0.000 N 
ATOM     18  H   UNL     1       5.389   6.744  18.009  0.00  0.00    +0.000 HD
BRANCH  15  20
ATOM     19  C   UNL     1       7.455   6.360  18.423  0.00  0.00    +0.000 C 
ATOM     20  C   UNL     1       6.932   5.238  19.304  0.00  0.00    +0.000 C 
ENDBRANCH  15  20
ENDBRANCH   1  17
BRANCH   1  21
ATOM     21  C   UNL     1       2.727   4.965  17.762  0.00  0.00    +0.000 C 
ATOM     22  F   UNL     1       3.464   4.488  16.733  0.00  0.00    +0.000 F 
ATOM     23  F   UNL     1       2.562   3.957  18.645  0.00  0.00    +0.000 F 
ATOM     24  F   UNL     1       1.485   5.199  17.261  0.00  0.00    +0.000 F 
ENDBRANCH   1  21
BRANCH  12  25
ATOM     25  C   UNL     1       0.985  10.298  19.538  0.00  0.00    +0.000 C 
BRANCH  25  26
ATOM     26  C   UNL     1      -0.320  10.312  18.831  0.00  0.00    +0.000 A 
ATOM     27  C   UNL     1      -1.561  10.825  19.149  0.00  0.00    +0.000 A 
ATOM     28  C   UNL     1      -2.417  10.481  18.076  0.00  0.00    +0.000 A 
ATOM     29  C   UNL     1      -1.641   9.804  17.166  0.00  0.00    +0.000 A 
ATOM     30  O   UNL     1      -0.362   9.704  17.610  0.00  0.00    +0.000 OA
ENDBRANCH  25  26
ENDBRANCH  12  25
TORSDOF 5
ENDMDL
MODEL 5
REMARK VINA RESULT:      -6.8      8.944     11.953
REMARK  Name = 
REMARK  6 active torsions:
REMARK  status: ('A' for Active; 'I' for Inactive)
REMARK    1  A    between atoms: C_1  and  C_2
REMARK    2  A    between atoms: C_2  and  C_3
REMARK    3  A    between atoms: N_5  and  C_6
REMARK    4  A    between atoms: C_6  and  C_7
REMARK    5  A    between atoms: N_21  and  C_22
REMARK    6  A    between atoms: C_22  and  C_23
REMARK                            x       y       z     vdW  Elec       q    Type
REMARK                         _______ _______ _______ _____ _____    ______ ____
ROOT
ATOM      1  C   UNL     1      -0.721  11.923  19.964  0.00  0.00    +0.000 C 
ATOM      2  C   UNL     1      -1.717  12.234  18.825  0.00  0.00    +0.000 C 
ATOM      3  O   UNL     1      -1.466  12.263  17.626  0.00  0.00    +0.000 OA
ATOM      4  N   UNL     1      -2.907  12.674  19.379  0.00  0.00    +0.000 N 
ATOM      5  C   UNL     1      -2.870  12.595  20.728  0.00  0.00    +0.000 A 
ATOM      6  C   UNL     1      -1.663  12.179  21.113  0.00  0.00    +0.000 A 
ATOM      7  C   UNL     1      -1.481  11.822  22.518  0.00  0.00    +0.000 A 
ATOM      8  O   UNL     1      -0.497  11.242  22.947  0.00  0.00    +0.000 OA
ATOM      9  N   UNL     1      -2.543  12.105  23.332  0.00  0.00    +0.000 N 
ATOM     10  C   UNL     1      -3.798  12.483  22.928  0.00  0.00    +0.000 A 
ATOM     11  O   UNL     1      -4.727  12.500  23.732  0.00  0.00    +0.000 OA
ATOM     12  N   UNL     1      -3.919  12.810  21.583  0.00  0.00    +0.000 N 
ATOM     13  H   UNL     1      -3.724  12.893  18.820  0.00  0.00    +0.000 HD
ATOM     14  H   UNL     1      -2.454  11.805  24.293  0.00  0.00    +0.000 HD
ENDROOT
BRANCH   1  17
ATOM     15  C   UNL     1       1.472  13.020  20.443  0.00  0.00    +0.000 C 
ATOM     16  O   UNL     1       1.726  12.220  21.334  0.00  0.00    +0.000 OA
ATOM     17  N   UNL     1       0.280  13.009  19.767  0.00  0.00    +0.000 N 
ATOM     18  H   UNL     1       0.301  13.421  18.838  0.00  0.00    +0.000 HD
BRANCH  15  20
ATOM     19  C   UNL     1       1.725  15.157  19.152  0.00  0.00    +0.000 C 
ATOM     20  C   UNL     1       2.426  14.106  19.997  0.00  0.00    +0.000 C 
ENDBRANCH  15  20
ENDBRANCH   1  17
BRANCH   1  21
ATOM     21  C   UNL     1      -0.240  10.465  19.783  0.00  0.00    +0.000 C 
ATOM     22  F   UNL     1       0.722  10.360  18.836  0.00  0.00    +0.000 F 
ATOM     23  F   UNL     1       0.244   9.914  20.916  0.00  0.00    +0.000 F 
ATOM     24  F   UNL     1      -1.247   9.641  19.392  0.00  0.00    +0.000 F 
ENDBRANCH   1  21
BRANCH  12  25
ATOM     25  C   UNL     1      -5.208  13.319  21.123  0.00  0.00    +0.000 C 
BRANCH  25  26
ATOM     26  C   UNL     1      -6.077  12.197  20.687  0.00  0.00    +0.000 A 
ATOM     27  C   UNL     1      -7.146  11.548  21.269  0.00  0.00    +0.000 A 
ATOM     28  C   UNL     1      -7.529  10.528  20.366  0.00  0.00    +0.000 A 
ATOM     29  C   UNL     1      -6.686  10.635  19.285  0.00  0.00    +0.000 A 
ATOM     30  O   UNL     1      -5.806  11.652  19.465  0.00  0.00    +0.000 OA
ENDBRANCH  25  26
ENDBRANCH  12  25
TORSDOF 5
ENDMDL
MODEL 6
REMARK VINA RESULT:      -6.8      2.808      6.246
REMARK  Name = 
REMARK  6 active torsions:
REMARK  status: ('A' for Active; 'I' for Inactive)
REMARK    1  A    between atoms: C_1  and  C_2
REMARK    2  A    between atoms: C_2  and  C_3
REMARK    3  A    between atoms: N_5  and  C_6
REMARK    4  A    between atoms: C_6  and  C_7
REMARK    5  A    between atoms: N_21  and  C_22
REMARK    6  A    between atoms: C_22  and  C_23
REMARK                            x       y       z     vdW  Elec       q    Type
REMARK                         _______ _______ _______ _____ _____    ______ ____
ROOT
ATOM      1  C   UNL     1       5.415   5.427  17.680  0.00  0.00    +0.000 C 
ATOM      2  C   UNL     1       5.295   4.485  18.897  0.00  0.00    +0.000 C 
ATOM      3  O   UNL     1       5.990   3.502  19.129  0.00  0.00    +0.000 OA
ATOM      4  N   UNL     1       4.144   4.803  19.598  0.00  0.00    +0.000 N 
ATOM      5  C   UNL     1       3.545   5.894  19.072  0.00  0.00    +0.000 A 
ATOM      6  C   UNL     1       4.216   6.288  17.989  0.00  0.00    +0.000 A 
ATOM      7  C   UNL     1       3.860   7.574  17.396  0.00  0.00    +0.000 A 
ATOM      8  O   UNL     1       4.526   8.133  16.540  0.00  0.00    +0.000 OA
ATOM      9  N   UNL     1       2.753   8.174  17.931  0.00  0.00    +0.000 N 
ATOM     10  C   UNL     1       2.097   7.796  19.074  0.00  0.00    +0.000 A 
ATOM     11  O   UNL     1       1.252   8.534  19.575  0.00  0.00    +0.000 OA
ATOM     12  N   UNL     1       2.474   6.566  19.600  0.00  0.00    +0.000 N 
ATOM     13  H   UNL     1       3.885   4.343  20.464  0.00  0.00    +0.000 HD
ATOM     14  H   UNL     1       2.534   9.093  17.572  0.00  0.00    +0.000 HD
ENDROOT
BRANCH   1  17
ATOM     15  C   UNL     1       5.435   4.815  15.258  0.00  0.00    +0.000 C 
ATOM     16  O   UNL     1       5.738   5.955  14.928  0.00  0.00    +0.000 OA
ATOM     17  N   UNL     1       5.183   4.472  16.560  0.00  0.00    +0.000 N 
ATOM     18  H   UNL     1       5.320   3.490  16.787  0.00  0.00    +0.000 HD
BRANCH  15  20
ATOM     19  C   UNL     1       6.287   3.790  13.131  0.00  0.00    +0.000 C 
ATOM     20  C   UNL     1       5.297   3.670  14.278  0.00  0.00    +0.000 C 
ENDBRANCH  15  20
ENDBRANCH   1  17
BRANCH   1  21
ATOM     21  C   UNL     1       6.796   6.120  17.755  0.00  0.00    +0.000 C 
ATOM     22  F   UNL     1       7.157   6.398  19.029  0.00  0.00    +0.000 F 
ATOM     23  F   UNL     1       7.791   5.397  17.200  0.00  0.00    +0.000 F 
ATOM     24  F   UNL     1       6.808   7.305  17.090  0.00  0.00    +0.000 F 
ENDBRANCH   1  21
BRANCH  12  25
ATOM     25  C   UNL     1       1.734   6.069  20.756  0.00  0.00    +0.000 C 
BRANCH  25  26
ATOM     26  C   UNL     1       1.532   4.602  20.645  0.00  0.00    +0.000 A 
ATOM     27  C   UNL     1       1.776   3.547  21.500  0.00  0.00    +0.000 A 
ATOM     28  C   UNL     1       1.405   2.376  20.799  0.00  0.00    +0.000 A 
ATOM     29  C   UNL     1       0.937   2.792  19.574  0.00  0.00    +0.000 A 
ATOM     30  O   UNL     1       1.002   4.144  19.474  0.00  0.00    +0.000 OA
ENDBRANCH  25  26
ENDBRANCH  12  25
TORSDOF 5
ENDMDL
MODEL 7
REMARK VINA RESULT:      -6.7      8.935     11.952
REMARK  Name = 
REMARK  6 active torsions:
REMARK  status: ('A' for Active; 'I' for Inactive)
REMARK    1  A    between atoms: C_1  and  C_2
REMARK    2  A    between atoms: C_2  and  C_3
REMARK    3  A    between atoms: N_5  and  C_6
REMARK    4  A    between atoms: C_6  and  C_7
REMARK    5  A    between atoms: N_21  and  C_22
REMARK    6  A    between atoms: C_22  and  C_23
REMARK                            x       y       z     vdW  Elec       q    Type
REMARK                         _______ _______ _______ _____ _____    ______ ____
ROOT
ATOM      1  C   UNL     1      -0.653  12.010  19.952  0.00  0.00    +0.000 C 
ATOM      2  C   UNL     1      -1.636  12.255  18.787  0.00  0.00    +0.000 C 
ATOM      3  O   UNL     1      -1.360  12.272  17.592  0.00  0.00    +0.000 OA
ATOM      4  N   UNL     1      -2.856  12.654  19.306  0.00  0.00    +0.000 N 
ATOM      5  C   UNL     1      -2.846  12.603  20.656  0.00  0.00    +0.000 A 
ATOM      6  C   UNL     1      -1.630  12.247  21.076  0.00  0.00    +0.000 A 
ATOM      7  C   UNL     1      -1.465  11.925  22.491  0.00  0.00    +0.000 A 
ATOM      8  O   UNL     1      -0.467  11.396  22.953  0.00  0.00    +0.000 OA
ATOM      9  N   UNL     1      -2.555  12.178  23.276  0.00  0.00    +0.000 N 
ATOM     10  C   UNL     1      -3.816  12.494  22.838  0.00  0.00    +0.000 A 
ATOM     11  O   UNL     1      -4.763  12.486  23.621  0.00  0.00    +0.000 OA
ATOM     12  N   UNL     1      -3.921  12.789  21.484  0.00  0.00    +0.000 N 
ATOM     13  H   UNL     1      -3.669  12.827  18.725  0.00  0.00    +0.000 HD
ATOM     14  H   UNL     1      -2.475  11.901  24.245  0.00  0.00    +0.000 HD
ENDROOT
BRANCH   1  17
ATOM     15  C   UNL     1       1.489  13.199  20.441  0.00  0.00    +0.000 C 
ATOM     16  O   UNL     1       1.767  12.417  21.341  0.00  0.00    +0.000 OA
ATOM     17  N   UNL     1       0.304  13.133  19.755  0.00  0.00    +0.000 N 
ATOM     18  H   UNL     1       0.318  13.538  18.822  0.00  0.00    +0.000 HD
BRANCH  15  20
ATOM     19  C   UNL     1       1.737  15.203  18.951  0.00  0.00    +0.000 C 
ATOM     20  C   UNL     1       2.402  14.319  19.994  0.00  0.00    +0.000 C 
ENDBRANCH  15  20
ENDBRANCH   1  17
BRANCH   1  21
ATOM     21  C   UNL     1      -0.106  10.570  19.811  0.00  0.00    +0.000 C 
ATOM     22  F   UNL     1      -1.085   9.678  19.535  0.00  0.00    +0.000 F 
ATOM     23  F   UNL     1       0.838  10.446  18.855  0.00  0.00    +0.000 F 
ATOM     24  F   UNL     1       0.490  10.138  20.953  0.00  0.00    +0.000 F 
ENDBRANCH   1  21
BRANCH  12  25
ATOM     25  C   UNL     1      -5.221  13.233  20.987  0.00  0.00    +0.000 C 
BRANCH  25  26
ATOM     26  C   UNL     1      -5.966  12.088  20.407  0.00  0.00    +0.000 A 
ATOM     27  C   UNL     1      -6.036  11.552  19.137  0.00  0.00    +0.000 A 
ATOM     28  C   UNL     1      -6.958  10.481  19.210  0.00  0.00    +0.000 A 
ATOM     29  C   UNL     1      -7.372  10.418  20.519  0.00  0.00    +0.000 A 
ATOM     30  O   UNL     1      -6.768  11.384  21.258  0.00  0.00    +0.000 OA
ENDBRANCH  25  26
ENDBRANCH  12  25
TORSDOF 5
ENDMDL
MODEL 8
REMARK VINA RESULT:      -6.7      3.731      6.724
REMARK  Name = 
REMARK  6 active torsions:
REMARK  status: ('A' for Active; 'I' for Inactive)
REMARK    1  A    between atoms: C_1  and  C_2
REMARK    2  A    between atoms: C_2  and  C_3
REMARK    3  A    between atoms: N_5  and  C_6
REMARK    4  A    between atoms: C_6  and  C_7
REMARK    5  A    between atoms: N_21  and  C_22
REMARK    6  A    between atoms: C_22  and  C_23
REMARK                            x       y       z     vdW  Elec       q    Type
REMARK                         _______ _______ _______ _____ _____    ______ ____
ROOT
ATOM      1  C   UNL     1       3.384   6.250  18.382  0.00  0.00    +0.000 C 
ATOM      2  C   UNL     1       3.300   7.363  17.314  0.00  0.00    +0.000 C 
ATOM      3  O   UNL     1       3.874   7.378  16.231  0.00  0.00    +0.000 OA
ATOM      4  N   UNL     1       2.626   8.447  17.850  0.00  0.00    +0.000 N 
ATOM      5  C   UNL     1       2.161   8.163  19.086  0.00  0.00    +0.000 A 
ATOM      6  C   UNL     1       2.559   6.939  19.439  0.00  0.00    +0.000 A 
ATOM      7  C   UNL     1       1.984   6.358  20.649  0.00  0.00    +0.000 A 
ATOM      8  O   UNL     1       2.108   5.185  20.961  0.00  0.00    +0.000 OA
ATOM      9  N   UNL     1       1.206   7.205  21.388  0.00  0.00    +0.000 N 
ATOM     10  C   UNL     1       0.757   8.442  21.001  0.00  0.00    +0.000 A 
ATOM     11  O   UNL     1      -0.110   9.018  21.655  0.00  0.00    +0.000 OA
ATOM     12  N   UNL     1       1.332   8.950  19.842  0.00  0.00    +0.000 N 
ATOM     13  H   UNL     1       2.412   9.279  17.312  0.00  0.00    +0.000 HD
ATOM     14  H   UNL     1       0.752   6.797  22.194  0.00  0.00    +0.000 HD
ENDROOT
BRANCH   1  17
ATOM     15  C   UNL     1       5.463   5.176  19.257  0.00  0.00    +0.000 C 
ATOM     16  O   UNL     1       4.838   4.212  19.681  0.00  0.00    +0.000 OA
ATOM     17  N   UNL     1       4.844   6.253  18.678  0.00  0.00    +0.000 N 
ATOM     18  H   UNL     1       5.419   6.794  18.037  0.00  0.00    +0.000 HD
BRANCH  15  20
ATOM     19  C   UNL     1       7.502   6.312  18.336  0.00  0.00    +0.000 C 
ATOM     20  C   UNL     1       6.970   5.295  19.332  0.00  0.00    +0.000 C 
ENDBRANCH  15  20
ENDBRANCH   1  17
BRANCH   1  21
ATOM     21  C   UNL     1       2.780   4.964  17.770  0.00  0.00    +0.000 C 
ATOM     22  F   UNL     1       1.530   5.165  17.292  0.00  0.00    +0.000 F 
ATOM     23  F   UNL     1       3.521   4.447  16.767  0.00  0.00    +0.000 F 
ATOM     24  F   UNL     1       2.679   3.964  18.684  0.00  0.00    +0.000 F 
ENDBRANCH   1  21
BRANCH  12  25
ATOM     25  C   UNL     1       0.966  10.306  19.444  0.00  0.00    +0.000 C 
BRANCH  25  26
ATOM     26  C   UNL     1      -0.334  10.298  18.727  0.00  0.00    +0.000 A 
ATOM     27  C   UNL     1      -0.783   9.653  17.594  0.00  0.00    +0.000 A 
ATOM     28  C   UNL     1      -2.116  10.085  17.395  0.00  0.00    +0.000 A 
ATOM     29  C   UNL     1      -2.400  10.944  18.430  0.00  0.00    +0.000 A 
ATOM     30  O   UNL     1      -1.327  11.074  19.251  0.00  0.00    +0.000 OA
ENDBRANCH  25  26
ENDBRANCH  12  25
TORSDOF 5
ENDMDL
MODEL 9
REMARK VINA RESULT:      -6.6      8.272     10.997
REMARK  Name = 
REMARK  6 active torsions:
REMARK  status: ('A' for Active; 'I' for Inactive)
REMARK    1  A    between atoms: C_1  and  C_2
REMARK    2  A    between atoms: C_2  and  C_3
REMARK    3  A    between atoms: N_5  and  C_6
REMARK    4  A    between atoms: C_6  and  C_7
REMARK    5  A    between atoms: N_21  and  C_22
REMARK    6  A    between atoms: C_22  and  C_23
REMARK                            x       y       z     vdW  Elec       q    Type
REMARK                         _______ _______ _______ _____ _____    ______ ____
ROOT
ATOM      1  C   UNL     1      -0.790  11.682  19.574  0.00  0.00    +0.000 C 
ATOM      2  C   UNL     1      -1.743  12.832  19.967  0.00  0.00    +0.000 C 
ATOM      3  O   UNL     1      -1.581  13.632  20.882  0.00  0.00    +0.000 OA
ATOM      4  N   UNL     1      -2.919  12.705  19.247  0.00  0.00    +0.000 N 
ATOM      5  C   UNL     1      -2.833  11.693  18.356  0.00  0.00    +0.000 A 
ATOM      6  C   UNL     1      -1.656  11.080  18.496  0.00  0.00    +0.000 A 
ATOM      7  C   UNL     1      -1.276  10.096  17.486  0.00  0.00    +0.000 A 
ATOM      8  O   UNL     1      -0.155   9.623  17.389  0.00  0.00    +0.000 OA
ATOM      9  N   UNL     1      -2.250   9.789  16.577  0.00  0.00    +0.000 N 
ATOM     10  C   UNL     1      -3.437  10.454  16.403  0.00  0.00    +0.000 A 
ATOM     11  O   UNL     1      -4.134  10.227  15.417  0.00  0.00    +0.000 OA
ATOM     12  N   UNL     1      -3.751  11.382  17.389  0.00  0.00    +0.000 N 
ATOM     13  H   UNL     1      -3.674  13.378  19.308  0.00  0.00    +0.000 HD
ATOM     14  H   UNL     1      -1.979   9.157  15.837  0.00  0.00    +0.000 HD
ENDROOT
BRANCH   1  17
ATOM     15  C   UNL     1       0.086   9.835  21.010  0.00  0.00    +0.000 C 
ATOM     16  O   UNL     1       0.794   9.411  20.107  0.00  0.00    +0.000 OA
ATOM     17  N   UNL     1      -0.776  10.886  20.833  0.00  0.00    +0.000 N 
ATOM     18  H   UNL     1      -1.018  11.398  21.678  0.00  0.00    +0.000 HD
BRANCH  15  20
ATOM     19  C   UNL     1      -0.789  10.076  23.350  0.00  0.00    +0.000 C 
ATOM     20  C   UNL     1       0.071   9.251  22.406  0.00  0.00    +0.000 C 
ENDBRANCH  15  20
ENDBRANCH   1  17
BRANCH   1  21
ATOM     21  C   UNL     1       0.543  12.313  19.111  0.00  0.00    +0.000 C 
ATOM     22  F   UNL     1       1.336  11.419  18.476  0.00  0.00    +0.000 F 
ATOM     23  F   UNL     1       0.381  13.369  18.287  0.00  0.00    +0.000 F 
ATOM     24  F   UNL     1       1.271  12.789  20.155  0.00  0.00    +0.000 F 
ENDBRANCH   1  21
BRANCH  12  25
ATOM     25  C   UNL     1      -5.052  12.042  17.307  0.00  0.00    +0.000 C 
BRANCH  25  26
ATOM     26  C   UNL     1      -5.954  11.533  18.369  0.00  0.00    +0.000 A 
ATOM     27  C   UNL     1      -6.697  12.150  19.354  0.00  0.00    +0.000 A 
ATOM     28  C   UNL     1      -7.324  11.114  20.085  0.00  0.00    +0.000 A 
ATOM     29  C   UNL     1      -6.944   9.936  19.487  0.00  0.00    +0.000 A 
ATOM     30  O   UNL     1      -6.118  10.179  18.437  0.00  0.00    +0.000 OA
ENDBRANCH  25  26
ENDBRANCH  12  25
TORSDOF 5
ENDMDL
