MODEL 1
REMARK VINA RESULT:      -6.5      0.000      0.000
REMARK  Name = 
REMARK  3 active torsions:
REMARK  status: ('A' for Active; 'I' for Inactive)
REMARK    1  A    between atoms: C_1  and  O_2
REMARK    2  A    between atoms: O_2  and  C_3
REMARK    3  A    between atoms: C_8  and  N_9
REMARK                            x       y       z     vdW  Elec       q    Type
REMARK                         _______ _______ _______ _____ _____    ______ ____
ROOT
ATOM      1  N   UNL     1       9.430  15.069  19.006  0.00  0.00    +0.000 N 
ATOM      2  C   UNL     1       8.285  15.054  19.847  0.00  0.00    +0.000 A 
ATOM      3  N   UNL     1       8.338  14.376  21.025  0.00  0.00    +0.000 NA
ATOM      4  C   UNL     1       7.244  14.236  21.805  0.00  0.00    +0.000 A 
ATOM      5  N   UNL     1       7.318  13.515  23.036  0.00  0.00    +0.000 N 
ATOM      6  C   UNL     1       8.553  12.916  23.511  0.00  0.00    +0.000 C 
ATOM      7  C   UNL     1       8.304  11.412  23.677  0.00  0.00    +0.000 C 
ATOM      8  O   UNL     1       7.202  11.180  24.543  0.00  0.00    +0.000 OA
ATOM      9  C   UNL     1       6.018  11.728  23.982  0.00  0.00    +0.000 C 
ATOM     10  C   UNL     1       6.144  13.250  23.845  0.00  0.00    +0.000 C 
ATOM     11  N   UNL     1       6.067  14.744  21.373  0.00  0.00    +0.000 NA
ATOM     12  C   UNL     1       5.983  15.430  20.201  0.00  0.00    +0.000 A 
ATOM     13  N   UNL     1       4.701  15.838  19.718  0.00  0.00    +0.000 N 
ATOM     14  C   UNL     1       3.468  15.383  20.346  0.00  0.00    +0.000 C 
ATOM     15  C   UNL     1       2.684  14.583  19.294  0.00  0.00    +0.000 C 
ATOM     16  O   UNL     1       2.459  15.371  18.134  0.00  0.00    +0.000 OA
ATOM     17  C   UNL     1       3.698  15.719  17.535  0.00  0.00    +0.000 C 
ATOM     18  C   UNL     1       4.534  16.585  18.488  0.00  0.00    +0.000 C 
ATOM     19  N   UNL     1       7.107  15.607  19.448  0.00  0.00    +0.000 NA
ATOM     20  H   UNL     1       9.586  15.867  18.368  0.00  0.00    +0.000 HD
ENDROOT
BRANCH   1  26
ATOM     21  C   UNL     1      10.024  12.868  17.985  0.00  0.00    +0.000 A 
ATOM     22  C   UNL     1      10.896  11.751  17.962  0.00  0.00    +0.000 A 
ATOM     23  C   UNL     1      11.968  11.657  18.846  0.00  0.00    +0.000 A 
ATOM     24  C   UNL     1      12.194  12.664  19.772  0.00  0.00    +0.000 A 
ATOM     25  C   UNL     1      11.364  13.774  19.804  0.00  0.00    +0.000 A 
ATOM     26  C   UNL     1      10.276  13.912  18.910  0.00  0.00    +0.000 A 
BRANCH  21  28
ATOM     27  C   UNL     1       7.748  12.333  17.316  0.00  0.00    +0.000 C 
ATOM     28  O   UNL     1       8.970  12.958  17.129  0.00  0.00    +0.000 OA
ENDBRANCH  21  28
ENDBRANCH   1  26
TORSDOF 2
ENDMDL
MODEL 2
REMARK VINA RESULT:      -6.4      3.058      3.708
REMARK  Name = 
REMARK  3 active torsions:
REMARK  status: ('A' for Active; 'I' for Inactive)
REMARK    1  A    between atoms: C_1  and  O_2
REMARK    2  A    between atoms: O_2  and  C_3
REMARK    3  A    between atoms: C_8  and  N_9
REMARK                            x       y       z     vdW  Elec       q    Type
REMARK                         _______ _______ _______ _____ _____    ______ ____
ROOT
ATOM      1  N   UNL     1       8.311  13.379  17.234  0.00  0.00    +0.000 N 
ATOM      2  C   UNL     1       7.604  14.451  17.840  0.00  0.00    +0.000 A 
ATOM      3  N   UNL     1       8.297  15.392  18.536  0.00  0.00    +0.000 NA
ATOM      4  C   UNL     1       7.663  16.367  19.225  0.00  0.00    +0.000 A 
ATOM      5  N   UNL     1       8.408  17.341  19.956  0.00  0.00    +0.000 N 
ATOM      6  C   UNL     1       9.860  17.346  19.986  0.00  0.00    +0.000 C 
ATOM      7  C   UNL     1      10.294  17.220  21.451  0.00  0.00    +0.000 C 
ATOM      8  O   UNL     1       9.717  18.255  22.234  0.00  0.00    +0.000 OA
ATOM      9  C   UNL     1       8.301  18.146  22.218  0.00  0.00    +0.000 C 
ATOM     10  C   UNL     1       7.764  18.334  20.794  0.00  0.00    +0.000 C 
ATOM     11  N   UNL     1       6.310  16.367  19.254  0.00  0.00    +0.000 NA
ATOM     12  C   UNL     1       5.589  15.442  18.566  0.00  0.00    +0.000 A 
ATOM     13  N   UNL     1       4.169  15.399  18.727  0.00  0.00    +0.000 N 
ATOM     14  C   UNL     1       3.490  16.192  19.742  0.00  0.00    +0.000 C 
ATOM     15  C   UNL     1       2.793  15.214  20.699  0.00  0.00    +0.000 C 
ATOM     16  O   UNL     1       1.914  14.358  19.984  0.00  0.00    +0.000 OA
ATOM     17  C   UNL     1       2.649  13.565  19.063  0.00  0.00    +0.000 C 
ATOM     18  C   UNL     1       3.333  14.453  18.015  0.00  0.00    +0.000 C 
ATOM     19  N   UNL     1       6.243  14.495  17.833  0.00  0.00    +0.000 NA
ATOM     20  H   UNL     1       7.925  12.923  16.391  0.00  0.00    +0.000 HD
ENDROOT
BRANCH   1  26
ATOM     21  C   UNL     1      10.782  13.252  17.584  0.00  0.00    +0.000 A 
ATOM     22  C   UNL     1      11.870  12.636  18.250  0.00  0.00    +0.000 A 
ATOM     23  C   UNL     1      11.664  11.599  19.157  0.00  0.00    +0.000 A 
ATOM     24  C   UNL     1      10.378  11.150  19.418  0.00  0.00    +0.000 A 
ATOM     25  C   UNL     1       9.296  11.748  18.791  0.00  0.00    +0.000 A 
ATOM     26  C   UNL     1       9.465  12.815  17.877  0.00  0.00    +0.000 A 
BRANCH  21  28
ATOM     27  C   UNL     1      11.543  15.486  16.997  0.00  0.00    +0.000 C 
ATOM     28  O   UNL     1      10.980  14.259  16.689  0.00  0.00    +0.000 OA
ENDBRANCH  21  28
ENDBRANCH   1  26
TORSDOF 2
ENDMDL
MODEL 3
REMARK VINA RESULT:      -6.4      7.999     10.635
REMARK  Name = 
REMARK  3 active torsions:
REMARK  status: ('A' for Active; 'I' for Inactive)
REMARK    1  A    between atoms: C_1  and  O_2
REMARK    2  A    between atoms: O_2  and  C_3
REMARK    3  A    between atoms: C_8  and  N_9
REMARK                            x       y       z     vdW  Elec       q    Type
REMARK                         _______ _______ _______ _____ _____    ______ ____
ROOT
ATOM      1  N   UNL     1       1.882   8.582  18.407  0.00  0.00    +0.000 N 
ATOM      2  C   UNL     1       2.633   7.377  18.336  0.00  0.00    +0.000 A 
ATOM      3  N   UNL     1       2.126   6.247  18.900  0.00  0.00    +0.000 NA
ATOM      4  C   UNL     1       2.848   5.107  18.960  0.00  0.00    +0.000 A 
ATOM      5  N   UNL     1       2.301   3.933  19.562  0.00  0.00    +0.000 N 
ATOM      6  C   UNL     1       0.961   3.899  20.120  0.00  0.00    +0.000 C 
ATOM      7  C   UNL     1       1.084   3.519  21.600  0.00  0.00    +0.000 C 
ATOM      8  O   UNL     1       1.778   2.288  21.743  0.00  0.00    +0.000 OA
ATOM      9  C   UNL     1       3.103   2.416  21.245  0.00  0.00    +0.000 C 
ATOM     10  C   UNL     1       3.083   2.725  19.743  0.00  0.00    +0.000 C 
ATOM     11  N   UNL     1       4.116   5.115  18.489  0.00  0.00    +0.000 NA
ATOM     12  C   UNL     1       4.649   6.227  17.917  0.00  0.00    +0.000 A 
ATOM     13  N   UNL     1       6.032   6.232  17.550  0.00  0.00    +0.000 N 
ATOM     14  C   UNL     1       6.930   5.154  17.937  0.00  0.00    +0.000 C 
ATOM     15  C   UNL     1       8.023   5.762  18.828  0.00  0.00    +0.000 C 
ATOM     16  O   UNL     1       8.686   6.820  18.153  0.00  0.00    +0.000 OA
ATOM     17  C   UNL     1       7.768   7.866  17.869  0.00  0.00    +0.000 C 
ATOM     18  C   UNL     1       6.666   7.374  16.921  0.00  0.00    +0.000 C 
ATOM     19  N   UNL     1       3.891   7.357  17.817  0.00  0.00    +0.000 NA
ATOM     20  H   UNL     1       1.998   9.300  17.673  0.00  0.00    +0.000 HD
ENDROOT
BRANCH   1  26
ATOM     21  C   UNL     1       0.017   9.798  19.538  0.00  0.00    +0.000 A 
ATOM     22  C   UNL     1      -0.701  10.053  20.733  0.00  0.00    +0.000 A 
ATOM     23  C   UNL     1      -0.343   9.438  21.931  0.00  0.00    +0.000 A 
ATOM     24  C   UNL     1       0.735   8.566  21.969  0.00  0.00    +0.000 A 
ATOM     25  C   UNL     1       1.442   8.290  20.810  0.00  0.00    +0.000 A 
ATOM     26  C   UNL     1       1.098   8.881  19.571  0.00  0.00    +0.000 A 
BRANCH  21  28
ATOM     27  C   UNL     1      -1.474  10.132  17.646  0.00  0.00    +0.000 C 
ATOM     28  O   UNL     1      -0.324  10.404  18.368  0.00  0.00    +0.000 OA
ENDBRANCH  21  28
ENDBRANCH   1  26
TORSDOF 2
ENDMDL
MODEL 4
REMARK VINA RESULT:      -6.3      1.968      2.575
REMARK  Name = 
REMARK  3 active torsions:
REMARK  status: ('A' for Active; 'I' for Inactive)
REMARK    1  A    between atoms: C_1  and  O_2
REMARK    2  A    between atoms: O_2  and  C_3
REMARK    3  A    between atoms: C_8  and  N_9
REMARK                            x       y       z     vdW  Elec       q    Type
REMARK                         _______ _______ _______ _____ _____    ______ ____
ROOT
ATOM      1  N   UNL     1       7.968  14.158  17.450  0.00  0.00    +0.000 N 
ATOM      2  C   UNL     1       7.092  14.620  18.469  0.00  0.00    +0.000 A 
ATOM      3  N   UNL     1       7.608  14.966  19.679  0.00  0.00    +0.000 NA
ATOM      4  C   UNL     1       6.808  15.301  20.715  0.00  0.00    +0.000 A 
ATOM      5  N   UNL     1       7.369  15.654  21.980  0.00  0.00    +0.000 N 
ATOM      6  C   UNL     1       8.803  15.684  22.213  0.00  0.00    +0.000 C 
ATOM      7  C   UNL     1       9.107  14.707  23.355  0.00  0.00    +0.000 C 
ATOM      8  O   UNL     1       8.348  15.037  24.509  0.00  0.00    +0.000 OA
ATOM      9  C   UNL     1       6.960  14.916  24.230  0.00  0.00    +0.000 C 
ATOM     10  C   UNL     1       6.543  15.914  23.144  0.00  0.00    +0.000 C 
ATOM     11  N   UNL     1       5.468  15.243  20.546  0.00  0.00    +0.000 NA
ATOM     12  C   UNL     1       4.922  14.905  19.348  0.00  0.00    +0.000 A 
ATOM     13  N   UNL     1       3.506  14.729  19.247  0.00  0.00    +0.000 N 
ATOM     14  C   UNL     1       2.651  14.721  20.425  0.00  0.00    +0.000 C 
ATOM     15  C   UNL     1       1.978  13.342  20.496  0.00  0.00    +0.000 C 
ATOM     16  O   UNL     1       1.270  13.070  19.296  0.00  0.00    +0.000 OA
ATOM     17  C   UNL     1       2.173  13.023  18.200  0.00  0.00    +0.000 C 
ATOM     18  C   UNL     1       2.851  14.385  18.000  0.00  0.00    +0.000 C 
ATOM     19  N   UNL     1       5.743  14.618  18.296  0.00  0.00    +0.000 NA
ATOM     20  H   UNL     1       7.716  14.296  16.458  0.00  0.00    +0.000 HD
ENDROOT
BRANCH   1  26
ATOM     21  C   UNL     1      10.407  13.912  17.932  0.00  0.00    +0.000 A 
ATOM     22  C   UNL     1      11.488  13.051  18.248  0.00  0.00    +0.000 A 
ATOM     23  C   UNL     1      11.297  11.678  18.386  0.00  0.00    +0.000 A 
ATOM     24  C   UNL     1      10.035  11.131  18.209  0.00  0.00    +0.000 A 
ATOM     25  C   UNL     1       8.959  11.955  17.914  0.00  0.00    +0.000 A 
ATOM     26  C   UNL     1       9.111  13.355  17.784  0.00  0.00    +0.000 A 
BRANCH  21  28
ATOM     27  C   UNL     1      11.208  15.849  16.700  0.00  0.00    +0.000 C 
ATOM     28  O   UNL     1      10.591  15.252  17.787  0.00  0.00    +0.000 OA
ENDBRANCH  21  28
ENDBRANCH   1  26
TORSDOF 2
ENDMDL
MODEL 5
REMARK VINA RESULT:      -6.3      1.102      1.791
REMARK  Name = 
REMARK  3 active torsions:
REMARK  status: ('A' for Active; 'I' for Inactive)
REMARK    1  A    between atoms: C_1  and  O_2
REMARK    2  A    between atoms: O_2  and  C_3
REMARK    3  A    between atoms: C_8  and  N_9
REMARK                            x       y       z     vdW  Elec       q    Type
REMARK                         _______ _______ _______ _____ _____    ______ ____
ROOT
ATOM      1  N   UNL     1       8.882  14.963  18.802  0.00  0.00    +0.000 N 
ATOM      2  C   UNL     1       7.800  14.922  19.723  0.00  0.00    +0.000 A 
ATOM      3  N   UNL     1       7.977  14.315  20.927  0.00  0.00    +0.000 NA
ATOM      4  C   UNL     1       6.950  14.150  21.789  0.00  0.00    +0.000 A 
ATOM      5  N   UNL     1       7.155  13.502  23.045  0.00  0.00    +0.000 N 
ATOM      6  C   UNL     1       8.456  13.008  23.461  0.00  0.00    +0.000 C 
ATOM      7  C   UNL     1       8.319  11.503  23.719  0.00  0.00    +0.000 C 
ATOM      8  O   UNL     1       7.296  11.250  24.672  0.00  0.00    +0.000 OA
ATOM      9  C   UNL     1       6.043  11.692  24.169  0.00  0.00    +0.000 C 
ATOM     10  C   UNL     1       6.059  13.209  23.949  0.00  0.00    +0.000 C 
ATOM     11  N   UNL     1       5.716  14.559  21.416  0.00  0.00    +0.000 NA
ATOM     12  C   UNL     1       5.508  15.173  20.221  0.00  0.00    +0.000 A 
ATOM     13  N   UNL     1       4.171  15.474  19.811  0.00  0.00    +0.000 N 
ATOM     14  C   UNL     1       3.017  14.978  20.546  0.00  0.00    +0.000 C 
ATOM     15  C   UNL     1       2.217  14.075  19.594  0.00  0.00    +0.000 C 
ATOM     16  O   UNL     1       1.863  14.783  18.416  0.00  0.00    +0.000 OA
ATOM     17  C   UNL     1       3.033  15.174  17.713  0.00  0.00    +0.000 C 
ATOM     18  C   UNL     1       3.873  16.141  18.559  0.00  0.00    +0.000 C 
ATOM     19  N   UNL     1       6.564  15.379  19.382  0.00  0.00    +0.000 NA
ATOM     20  H   UNL     1       8.941  15.733  18.116  0.00  0.00    +0.000 HD
ENDROOT
BRANCH   1  26
ATOM     21  C   UNL     1      11.124  13.931  19.192  0.00  0.00    +0.000 A 
ATOM     22  C   UNL     1      11.968  12.803  19.045  0.00  0.00    +0.000 A 
ATOM     23  C   UNL     1      11.519  11.646  18.412  0.00  0.00    +0.000 A 
ATOM     24  C   UNL     1      10.228  11.586  17.908  0.00  0.00    +0.000 A 
ATOM     25  C   UNL     1       9.379  12.673  18.053  0.00  0.00    +0.000 A 
ATOM     26  C   UNL     1       9.794  13.857  18.705  0.00  0.00    +0.000 A 
BRANCH  21  28
ATOM     27  C   UNL     1      12.333  16.041  19.189  0.00  0.00    +0.000 C 
ATOM     28  O   UNL     1      11.562  15.066  19.801  0.00  0.00    +0.000 OA
ENDBRANCH  21  28
ENDBRANCH   1  26
TORSDOF 2
ENDMDL
MODEL 6
REMARK VINA RESULT:      -6.3      2.565      5.600
REMARK  Name = 
REMARK  3 active torsions:
REMARK  status: ('A' for Active; 'I' for Inactive)
REMARK    1  A    between atoms: C_1  and  O_2
REMARK    2  A    between atoms: O_2  and  C_3
REMARK    3  A    between atoms: C_8  and  N_9
REMARK                            x       y       z     vdW  Elec       q    Type
REMARK                         _______ _______ _______ _____ _____    ______ ____
ROOT
ATOM      1  N   UNL     1       9.246  11.441  21.479  0.00  0.00    +0.000 N 
ATOM      2  C   UNL     1       8.475  12.546  21.932  0.00  0.00    +0.000 A 
ATOM      3  N   UNL     1       7.961  13.413  21.019  0.00  0.00    +0.000 NA
ATOM      4  C   UNL     1       7.320  14.539  21.403  0.00  0.00    +0.000 A 
ATOM      5  N   UNL     1       6.793  15.441  20.428  0.00  0.00    +0.000 N 
ATOM      6  C   UNL     1       6.904  15.194  19.001  0.00  0.00    +0.000 C 
ATOM      7  C   UNL     1       7.659  16.377  18.384  0.00  0.00    +0.000 C 
ATOM      8  O   UNL     1       7.005  17.601  18.689  0.00  0.00    +0.000 OA
ATOM      9  C   UNL     1       6.997  17.812  20.094  0.00  0.00    +0.000 C 
ATOM     10  C   UNL     1       6.196  16.710  20.797  0.00  0.00    +0.000 C 
ATOM     11  N   UNL     1       7.235  14.821  22.722  0.00  0.00    +0.000 NA
ATOM     12  C   UNL     1       7.736  13.973  23.659  0.00  0.00    +0.000 A 
ATOM     13  N   UNL     1       7.741  14.369  25.033  0.00  0.00    +0.000 N 
ATOM     14  C   UNL     1       7.398  15.724  25.439  0.00  0.00    +0.000 C 
ATOM     15  C   UNL     1       8.633  16.327  26.125  0.00  0.00    +0.000 C 
ATOM     16  O   UNL     1       9.049  15.512  27.210  0.00  0.00    +0.000 OA
ATOM     17  C   UNL     1       9.436  14.230  26.735  0.00  0.00    +0.000 C 
ATOM     18  C   UNL     1       8.244  13.512  26.089  0.00  0.00    +0.000 C 
ATOM     19  N   UNL     1       8.336  12.814  23.259  0.00  0.00    +0.000 NA
ATOM     20  H   UNL     1       9.281  10.576  22.044  0.00  0.00    +0.000 HD
ENDROOT
BRANCH   1  26
ATOM     21  C   UNL     1       9.761  11.050  19.066  0.00  0.00    +0.000 A 
ATOM     22  C   UNL     1      10.671  11.210  17.991  0.00  0.00    +0.000 A 
ATOM     23  C   UNL     1      11.897  11.846  18.175  0.00  0.00    +0.000 A 
ATOM     24  C   UNL     1      12.247  12.331  19.427  0.00  0.00    +0.000 A 
ATOM     25  C   UNL     1      11.367  12.200  20.490  0.00  0.00    +0.000 A 
ATOM     26  C   UNL     1      10.106  11.576  20.338  0.00  0.00    +0.000 A 
BRANCH  21  28
ATOM     27  C   UNL     1       8.384   9.273  18.139  0.00  0.00    +0.000 C 
ATOM     28  O   UNL     1       8.567  10.421  18.893  0.00  0.00    +0.000 OA
ENDBRANCH  21  28
ENDBRANCH   1  26
TORSDOF 2
ENDMDL
MODEL 7
REMARK VINA RESULT:      -5.9      5.893      8.576
REMARK  Name = 
REMARK  3 active torsions:
REMARK  status: ('A' for Active; 'I' for Inactive)
REMARK    1  A    between atoms: C_1  and  O_2
REMARK    2  A    between atoms: O_2  and  C_3
REMARK    3  A    between atoms: C_8  and  N_9
REMARK                            x       y       z     vdW  Elec       q    Type
REMARK                         _______ _______ _______ _____ _____    ______ ____
ROOT
ATOM      1  N   UNL     1       2.431  12.175  17.415  0.00  0.00    +0.000 N 
ATOM      2  C   UNL     1       1.973  10.961  17.994  0.00  0.00    +0.000 A 
ATOM      3  N   UNL     1       1.090  11.012  19.028  0.00  0.00    +0.000 NA
ATOM      4  C   UNL     1       0.712   9.894  19.685  0.00  0.00    +0.000 A 
ATOM      5  N   UNL     1      -0.211   9.969  20.773  0.00  0.00    +0.000 N 
ATOM      6  C   UNL     1      -0.791  11.226  21.213  0.00  0.00    +0.000 C 
ATOM      7  C   UNL     1      -0.415  11.419  22.687  0.00  0.00    +0.000 C 
ATOM      8  O   UNL     1      -0.841  10.306  23.461  0.00  0.00    +0.000 OA
ATOM      9  C   UNL     1      -0.180   9.127  23.024  0.00  0.00    +0.000 C 
ATOM     10  C   UNL     1      -0.556   8.809  21.572  0.00  0.00    +0.000 C 
ATOM     11  N   UNL     1       1.266   8.712  19.330  0.00  0.00    +0.000 NA
ATOM     12  C   UNL     1       2.148   8.628  18.299  0.00  0.00    +0.000 A 
ATOM     13  N   UNL     1       2.806   7.386  18.039  0.00  0.00    +0.000 N 
ATOM     14  C   UNL     1       2.702   6.259  18.955  0.00  0.00    +0.000 C 
ATOM     15  C   UNL     1       4.117   5.947  19.465  0.00  0.00    +0.000 C 
ATOM     16  O   UNL     1       4.995   5.698  18.377  0.00  0.00    +0.000 OA
ATOM     17  C   UNL     1       5.105   6.858  17.566  0.00  0.00    +0.000 C 
ATOM     18  C   UNL     1       3.746   7.216  16.949  0.00  0.00    +0.000 C 
ATOM     19  N   UNL     1       2.481   9.759  17.611  0.00  0.00    +0.000 NA
ATOM     20  H   UNL     1       2.727  12.190  16.426  0.00  0.00    +0.000 HD
ENDROOT
BRANCH   1  26
ATOM     21  C   UNL     1       1.581  14.166  18.661  0.00  0.00    +0.000 A 
ATOM     22  C   UNL     1       1.877  15.301  19.457  0.00  0.00    +0.000 A 
ATOM     23  C   UNL     1       3.190  15.619  19.798  0.00  0.00    +0.000 A 
ATOM     24  C   UNL     1       4.234  14.822  19.354  0.00  0.00    +0.000 A 
ATOM     25  C   UNL     1       3.968  13.697  18.587  0.00  0.00    +0.000 A 
ATOM     26  C   UNL     1       2.647  13.334  18.236  0.00  0.00    +0.000 A 
BRANCH  21  28
ATOM     27  C   UNL     1      -0.812  14.141  19.093  0.00  0.00    +0.000 C 
ATOM     28  O   UNL     1       0.301  13.859  18.318  0.00  0.00    +0.000 OA
ENDBRANCH  21  28
ENDBRANCH   1  26
TORSDOF 2
ENDMDL
MODEL 8
REMARK VINA RESULT:      -5.9      3.038      3.766
REMARK  Name = 
REMARK  3 active torsions:
REMARK  status: ('A' for Active; 'I' for Inactive)
REMARK    1  A    between atoms: C_1  and  O_2
REMARK    2  A    between atoms: O_2  and  C_3
REMARK    3  A    between atoms: C_8  and  N_9
REMARK                            x       y       z     vdW  Elec       q    Type
REMARK                         _______ _______ _______ _____ _____    ______ ____
ROOT
ATOM      1  N   UNL     1       8.093  13.308  17.034  0.00  0.00    +0.000 N 
ATOM      2  C   UNL     1       7.396  14.367  17.675  0.00  0.00    +0.000 A 
ATOM      3  N   UNL     1       8.106  15.358  18.279  0.00  0.00    +0.000 NA
ATOM      4  C   UNL     1       7.494  16.324  18.998  0.00  0.00    +0.000 A 
ATOM      5  N   UNL     1       8.258  17.351  19.631  0.00  0.00    +0.000 N 
ATOM      6  C   UNL     1       9.705  17.418  19.527  0.00  0.00    +0.000 C 
ATOM      7  C   UNL     1      10.275  17.355  20.949  0.00  0.00    +0.000 C 
ATOM      8  O   UNL     1       9.726  18.388  21.754  0.00  0.00    +0.000 OA
ATOM      9  C   UNL     1       8.320  18.218  21.872  0.00  0.00    +0.000 C 
ATOM     10  C   UNL     1       7.649  18.340  20.499  0.00  0.00    +0.000 C 
ATOM     11  N   UNL     1       6.151  16.268  19.151  0.00  0.00    +0.000 NA
ATOM     12  C   UNL     1       5.413  15.293  18.557  0.00  0.00    +0.000 A 
ATOM     13  N   UNL     1       4.017  15.194  18.848  0.00  0.00    +0.000 N 
ATOM     14  C   UNL     1       3.398  15.987  19.901  0.00  0.00    +0.000 C 
ATOM     15  C   UNL     1       2.835  15.010  20.944  0.00  0.00    +0.000 C 
ATOM     16  O   UNL     1       1.934  14.096  20.335  0.00  0.00    +0.000 OA
ATOM     17  C   UNL     1       2.618  13.309  19.371  0.00  0.00    +0.000 C 
ATOM     18  C   UNL     1       3.163  14.192  18.241  0.00  0.00    +0.000 C 
ATOM     19  N   UNL     1       6.040  14.353  17.791  0.00  0.00    +0.000 NA
ATOM     20  H   UNL     1       7.652  12.811  16.242  0.00  0.00    +0.000 HD
ENDROOT
BRANCH   1  26
ATOM     21  C   UNL     1       9.417  11.542  18.203  0.00  0.00    +0.000 A 
ATOM     22  C   UNL     1      10.664  11.130  18.735  0.00  0.00    +0.000 A 
ATOM     23  C   UNL     1      11.780  11.962  18.679  0.00  0.00    +0.000 A 
ATOM     24  C   UNL     1      11.680  13.219  18.100  0.00  0.00    +0.000 A 
ATOM     25  C   UNL     1      10.474  13.638  17.559  0.00  0.00    +0.000 A 
ATOM     26  C   UNL     1       9.324  12.813  17.582  0.00  0.00    +0.000 A 
BRANCH  21  28
ATOM     27  C   UNL     1       8.350   9.357  18.130  0.00  0.00    +0.000 C 
ATOM     28  O   UNL     1       8.322  10.735  18.266  0.00  0.00    +0.000 OA
ENDBRANCH  21  28
ENDBRANCH   1  26
TORSDOF 2
ENDMDL
MODEL 9
REMARK VINA RESULT:      -5.8      6.088      9.269
REMARK  Name = 
REMARK  3 active torsions:
REMARK  status: ('A' for Active; 'I' for Inactive)
REMARK    1  A    between atoms: C_1  and  O_2
REMARK    2  A    between atoms: O_2  and  C_3
REMARK    3  A    between atoms: C_8  and  N_9
REMARK                            x       y       z     vdW  Elec       q    Type
REMARK                         _______ _______ _______ _____ _____    ______ ____
ROOT
ATOM      1  N   UNL     1      -1.612  11.097  19.351  0.00  0.00    +0.000 N 
ATOM      2  C   UNL     1      -1.469  12.462  19.720  0.00  0.00    +0.000 A 
ATOM      3  N   UNL     1      -0.336  13.127  19.369  0.00  0.00    +0.000 NA
ATOM      4  C   UNL     1      -0.101  14.389  19.792  0.00  0.00    +0.000 A 
ATOM      5  N   UNL     1       1.099  15.068  19.419  0.00  0.00    +0.000 N 
ATOM      6  C   UNL     1       2.106  14.455  18.571  0.00  0.00    +0.000 C 
ATOM      7  C   UNL     1       3.422  14.432  19.357  0.00  0.00    +0.000 C 
ATOM      8  O   UNL     1       3.773  15.741  19.783  0.00  0.00    +0.000 OA
ATOM      9  C   UNL     1       2.781  16.248  20.665  0.00  0.00    +0.000 C 
ATOM     10  C   UNL     1       1.436  16.378  19.941  0.00  0.00    +0.000 C 
ATOM     11  N   UNL     1      -0.998  14.974  20.618  0.00  0.00    +0.000 NA
ATOM     12  C   UNL     1      -2.142  14.337  20.983  0.00  0.00    +0.000 A 
ATOM     13  N   UNL     1      -2.999  14.938  21.958  0.00  0.00    +0.000 N 
ATOM     14  C   UNL     1      -2.594  16.119  22.707  0.00  0.00    +0.000 C 
ATOM     15  C   UNL     1      -2.559  15.733  24.194  0.00  0.00    +0.000 C 
ATOM     16  O   UNL     1      -3.817  15.219  24.605  0.00  0.00    +0.000 OA
ATOM     17  C   UNL     1      -4.116  14.031  23.886  0.00  0.00    +0.000 C 
ATOM     18  C   UNL     1      -4.241  14.326  22.385  0.00  0.00    +0.000 C 
ATOM     19  N   UNL     1      -2.389  13.082  20.507  0.00  0.00    +0.000 NA
ATOM     20  H   UNL     1      -2.556  10.702  19.210  0.00  0.00    +0.000 HD
ENDROOT
BRANCH   1  26
ATOM     21  C   UNL     1       0.038   9.636  20.526  0.00  0.00    +0.000 A 
ATOM     22  C   UNL     1       1.177   8.798  20.437  0.00  0.00    +0.000 A 
ATOM     23  C   UNL     1       1.810   8.571  19.217  0.00  0.00    +0.000 A 
ATOM     24  C   UNL     1       1.330   9.174  18.064  0.00  0.00    +0.000 A 
ATOM     25  C   UNL     1       0.207   9.986  18.124  0.00  0.00    +0.000 A 
ATOM     26  C   UNL     1      -0.472  10.225  19.341  0.00  0.00    +0.000 A 
BRANCH  21  28
ATOM     27  C   UNL     1      -0.014   9.609  22.958  0.00  0.00    +0.000 C 
ATOM     28  O   UNL     1      -0.577   9.867  21.719  0.00  0.00    +0.000 OA
ENDBRANCH  21  28
ENDBRANCH   1  26
TORSDOF 2
ENDMDL
