MODEL 1
REMARK VINA RESULT:      -8.4      0.000      0.000
REMARK  Name = 
REMARK  3 active torsions:
REMARK  status: ('A' for Active; 'I' for Inactive)
REMARK    1  A    between atoms: C_2  and  C_18
REMARK    2  A    between atoms: C_8  and  O_9
REMARK    3  A    between atoms: O_9  and  C_10
REMARK                            x       y       z     vdW  Elec       q    Type
REMARK                         _______ _______ _______ _____ _____    ______ ____
ROOT
ATOM      1  O   UNL     1       7.608   9.800  17.645  0.00  0.00    +0.000 OA
ATOM      2  C   UNL     1       8.472   9.371  18.400  0.00  0.00    +0.000 C 
ATOM      3  N   UNL     1       8.661   8.050  18.731  0.00  0.00    +0.000 N 
ATOM      4  C   UNL     1       7.843   7.050  18.193  0.00  0.00    +0.000 A 
ATOM      5  C   UNL     1       7.493   7.010  16.841  0.00  0.00    +0.000 A 
ATOM      6  N   UNL     1       6.681   6.058  16.316  0.00  0.00    +0.000 NA
ATOM      7  C   UNL     1       6.198   5.169  17.212  0.00  0.00    +0.000 A 
ATOM      8  C   UNL     1       6.559   5.194  18.552  0.00  0.00    +0.000 A 
ATOM      9  N   UNL     1       7.412   6.115  19.065  0.00  0.00    +0.000 NA
ATOM     10  H   UNL     1       9.026   7.843  19.650  0.00  0.00    +0.000 HD
ENDROOT
BRANCH   2  11
ATOM     11  C   UNL     1       9.360  10.344  19.076  0.00  0.00    +0.000 A 
ATOM     12  C   UNL     1       9.141  10.635  20.429  0.00  0.00    +0.000 A 
ATOM     13  C   UNL     1       9.891  11.629  21.058  0.00  0.00    +0.000 A 
ATOM     14  C   UNL     1      10.844  12.342  20.331  0.00  0.00    +0.000 A 
ATOM     15  C   UNL     1      11.057  12.046  18.983  0.00  0.00    +0.000 A 
ATOM     16 CL   UNL     1      12.207  12.956  18.084  0.00  0.00    +0.000 Cl
ATOM     17  C   UNL     1      10.327  11.042  18.349  0.00  0.00    +0.000 A 
ENDBRANCH   2  11
BRANCH   8  18
ATOM     18  O   UNL     1       5.930   4.278  19.384  0.00  0.00    +0.000 OA
BRANCH  18  19
ATOM     19  C   UNL     1       4.560   4.226  19.394  0.00  0.00    +0.000 A 
ATOM     20  C   UNL     1       3.958   3.031  18.995  0.00  0.00    +0.000 A 
ATOM     21  N   UNL     1       2.624   2.808  19.019  0.00  0.00    +0.000 NA
ATOM     22  C   UNL     1       1.856   3.835  19.462  0.00  0.00    +0.000 A 
ATOM     23  C   UNL     1       2.366   5.048  19.880  0.00  0.00    +0.000 A 
ATOM     24  F   UNL     1       1.551   6.024  20.302  0.00  0.00    +0.000 F 
ATOM     25  C   UNL     1       3.737   5.246  19.867  0.00  0.00    +0.000 A 
ENDBRANCH  18  19
ENDBRANCH   8  18
TORSDOF 3
ENDMDL
MODEL 2
REMARK VINA RESULT:      -8.0      1.569      2.003
REMARK  Name = 
REMARK  3 active torsions:
REMARK  status: ('A' for Active; 'I' for Inactive)
REMARK    1  A    between atoms: C_2  and  C_18
REMARK    2  A    between atoms: C_8  and  O_9
REMARK    3  A    between atoms: O_9  and  C_10
REMARK                            x       y       z     vdW  Elec       q    Type
REMARK                         _______ _______ _______ _____ _____    ______ ____
ROOT
ATOM      1  O   UNL     1       7.644   9.765  17.549  0.00  0.00    +0.000 OA
ATOM      2  C   UNL     1       8.463   9.377  18.373  0.00  0.00    +0.000 C 
ATOM      3  N   UNL     1       8.652   8.071  18.759  0.00  0.00    +0.000 N 
ATOM      4  C   UNL     1       7.888   7.039  18.201  0.00  0.00    +0.000 A 
ATOM      5  C   UNL     1       7.630   6.950  16.831  0.00  0.00    +0.000 A 
ATOM      6  N   UNL     1       6.871   5.967  16.284  0.00  0.00    +0.000 NA
ATOM      7  C   UNL     1       6.344   5.098  17.175  0.00  0.00    +0.000 A 
ATOM      8  C   UNL     1       6.615   5.171  18.535  0.00  0.00    +0.000 A 
ATOM      9  N   UNL     1       7.416   6.124  19.073  0.00  0.00    +0.000 NA
ATOM     10  H   UNL     1       8.957   7.899  19.707  0.00  0.00    +0.000 HD
ENDROOT
BRANCH   2  11
ATOM     11  C   UNL     1       9.288  10.387  19.075  0.00  0.00    +0.000 A 
ATOM     12  C   UNL     1      10.537  10.731  18.541  0.00  0.00    +0.000 A 
ATOM     13  C   UNL     1      11.379  11.595  19.242  0.00  0.00    +0.000 A 
ATOM     14  C   UNL     1      10.981  12.098  20.480  0.00  0.00    +0.000 A 
ATOM     15  C   UNL     1       9.734  11.751  21.005  0.00  0.00    +0.000 A 
ATOM     16 CL   UNL     1       9.267  12.344  22.550  0.00  0.00    +0.000 Cl
ATOM     17  C   UNL     1       8.876  10.904  20.305  0.00  0.00    +0.000 A 
ENDBRANCH   2  11
BRANCH   8  18
ATOM     18  O   UNL     1       5.947   4.269  19.352  0.00  0.00    +0.000 OA
BRANCH  18  19
ATOM     19  C   UNL     1       4.582   4.179  19.261  0.00  0.00    +0.000 A 
ATOM     20  C   UNL     1       3.838   5.310  19.603  0.00  0.00    +0.000 A 
ATOM     21  N   UNL     1       2.492   5.394  19.497  0.00  0.00    +0.000 NA
ATOM     22  C   UNL     1       1.862   4.288  19.028  0.00  0.00    +0.000 A 
ATOM     23  C   UNL     1       2.517   3.129  18.662  0.00  0.00    +0.000 A 
ATOM     24  F   UNL     1       1.833   2.070  18.209  0.00  0.00    +0.000 F 
ATOM     25  C   UNL     1       3.898   3.074  18.758  0.00  0.00    +0.000 A 
ENDBRANCH  18  19
ENDBRANCH   8  18
TORSDOF 3
ENDMDL
MODEL 3
REMARK VINA RESULT:      -8.0      1.116      1.471
REMARK  Name = 
REMARK  3 active torsions:
REMARK  status: ('A' for Active; 'I' for Inactive)
REMARK    1  A    between atoms: C_2  and  C_18
REMARK    2  A    between atoms: C_8  and  O_9
REMARK    3  A    between atoms: O_9  and  C_10
REMARK                            x       y       z     vdW  Elec       q    Type
REMARK                         _______ _______ _______ _____ _____    ______ ____
ROOT
ATOM      1  O   UNL     1       7.610   9.871  17.627  0.00  0.00    +0.000 OA
ATOM      2  C   UNL     1       8.475   9.473  18.399  0.00  0.00    +0.000 C 
ATOM      3  N   UNL     1       8.703   8.159  18.734  0.00  0.00    +0.000 N 
ATOM      4  C   UNL     1       7.931   7.131  18.182  0.00  0.00    +0.000 A 
ATOM      5  C   UNL     1       7.608   7.078  16.824  0.00  0.00    +0.000 A 
ATOM      6  N   UNL     1       6.840   6.099  16.284  0.00  0.00    +0.000 NA
ATOM      7  C   UNL     1       6.372   5.194  17.171  0.00  0.00    +0.000 A 
ATOM      8  C   UNL     1       6.706   5.231  18.519  0.00  0.00    +0.000 A 
ATOM      9  N   UNL     1       7.517   6.182  19.047  0.00  0.00    +0.000 NA
ATOM     10  H   UNL     1       9.058   7.964  19.660  0.00  0.00    +0.000 HD
ENDROOT
BRANCH   2  11
ATOM     11  C   UNL     1       9.315  10.476  19.091  0.00  0.00    +0.000 A 
ATOM     12  C   UNL     1      10.574  10.788  18.559  0.00  0.00    +0.000 A 
ATOM     13  C   UNL     1      11.430  11.645  19.252  0.00  0.00    +0.000 A 
ATOM     14  C   UNL     1      11.035  12.172  20.481  0.00  0.00    +0.000 A 
ATOM     15  C   UNL     1       9.779  11.857  21.005  0.00  0.00    +0.000 A 
ATOM     16 CL   UNL     1       9.316  12.480  22.539  0.00  0.00    +0.000 Cl
ATOM     17  C   UNL     1       8.908  11.017  20.312  0.00  0.00    +0.000 A 
ENDBRANCH   2  11
BRANCH   8  18
ATOM     18  O   UNL     1       6.094   4.293  19.339  0.00  0.00    +0.000 OA
BRANCH  18  19
ATOM     19  C   UNL     1       4.724   4.236  19.370  0.00  0.00    +0.000 A 
ATOM     20  C   UNL     1       4.127   2.997  19.137  0.00  0.00    +0.000 A 
ATOM     21  N   UNL     1       2.794   2.772  19.204  0.00  0.00    +0.000 NA
ATOM     22  C   UNL     1       2.024   3.844  19.518  0.00  0.00    +0.000 A 
ATOM     23  C   UNL     1       2.530   5.104  19.768  0.00  0.00    +0.000 A 
ATOM     24  F   UNL     1       1.713   6.122  20.069  0.00  0.00    +0.000 F 
ATOM     25  C   UNL     1       3.900   5.305  19.716  0.00  0.00    +0.000 A 
ENDBRANCH  18  19
ENDBRANCH   8  18
TORSDOF 3
ENDMDL
MODEL 4
REMARK VINA RESULT:      -7.9      5.607      7.344
REMARK  Name = 
REMARK  3 active torsions:
REMARK  status: ('A' for Active; 'I' for Inactive)
REMARK    1  A    between atoms: C_2  and  C_18
REMARK    2  A    between atoms: C_8  and  O_9
REMARK    3  A    between atoms: O_9  and  C_10
REMARK                            x       y       z     vdW  Elec       q    Type
REMARK                         _______ _______ _______ _____ _____    ______ ____
ROOT
ATOM      1  O   UNL     1       1.599   5.923  20.888  0.00  0.00    +0.000 OA
ATOM      2  C   UNL     1       1.830   6.827  20.093  0.00  0.00    +0.000 C 
ATOM      3  N   UNL     1       2.480   6.685  18.889  0.00  0.00    +0.000 N 
ATOM      4  C   UNL     1       2.936   5.434  18.461  0.00  0.00    +0.000 A 
ATOM      5  C   UNL     1       2.162   4.275  18.562  0.00  0.00    +0.000 A 
ATOM      6  N   UNL     1       2.605   3.053  18.172  0.00  0.00    +0.000 NA
ATOM      7  C   UNL     1       3.876   3.033  17.714  0.00  0.00    +0.000 A 
ATOM      8  C   UNL     1       4.642   4.185  17.593  0.00  0.00    +0.000 A 
ATOM      9  N   UNL     1       4.178   5.413  17.935  0.00  0.00    +0.000 NA
ATOM     10  H   UNL     1       3.026   7.467  18.555  0.00  0.00    +0.000 HD
ENDROOT
BRANCH   2  11
ATOM     11  C   UNL     1       1.446   8.207  20.466  0.00  0.00    +0.000 A 
ATOM     12  C   UNL     1       1.097   8.477  21.796  0.00  0.00    +0.000 A 
ATOM     13  C   UNL     1       0.624   9.742  22.149  0.00  0.00    +0.000 A 
ATOM     14  C   UNL     1       0.484  10.726  21.171  0.00  0.00    +0.000 A 
ATOM     15  C   UNL     1       0.834  10.450  19.848  0.00  0.00    +0.000 A 
ATOM     16 CL   UNL     1       0.622  11.657  18.642  0.00  0.00    +0.000 Cl
ATOM     17  C   UNL     1       1.326   9.196  19.487  0.00  0.00    +0.000 A 
ENDBRANCH   2  11
BRANCH   8  18
ATOM     18  O   UNL     1       5.959   4.018  17.187  0.00  0.00    +0.000 OA
BRANCH  18  19
ATOM     19  C   UNL     1       6.283   4.259  15.876  0.00  0.00    +0.000 A 
ATOM     20  C   UNL     1       7.270   5.213  15.622  0.00  0.00    +0.000 A 
ATOM     21  N   UNL     1       7.742   5.506  14.389  0.00  0.00    +0.000 NA
ATOM     22  C   UNL     1       7.194   4.811  13.360  0.00  0.00    +0.000 A 
ATOM     23  C   UNL     1       6.218   3.849  13.520  0.00  0.00    +0.000 A 
ATOM     24  F   UNL     1       5.716   3.201  12.460  0.00  0.00    +0.000 F 
ATOM     25  C   UNL     1       5.766   3.549  14.794  0.00  0.00    +0.000 A 
ENDBRANCH  18  19
ENDBRANCH   8  18
TORSDOF 3
ENDMDL
MODEL 5
REMARK VINA RESULT:      -7.9      5.308      7.316
REMARK  Name = 
REMARK  3 active torsions:
REMARK  status: ('A' for Active; 'I' for Inactive)
REMARK    1  A    between atoms: C_2  and  C_18
REMARK    2  A    between atoms: C_8  and  O_9
REMARK    3  A    between atoms: O_9  and  C_10
REMARK                            x       y       z     vdW  Elec       q    Type
REMARK                         _______ _______ _______ _____ _____    ______ ____
ROOT
ATOM      1  O   UNL     1       1.489   7.165  21.288  0.00  0.00    +0.000 OA
ATOM      2  C   UNL     1       1.617   7.702  20.195  0.00  0.00    +0.000 C 
ATOM      3  N   UNL     1       2.218   7.139  19.093  0.00  0.00    +0.000 N 
ATOM      4  C   UNL     1       2.743   5.843  19.144  0.00  0.00    +0.000 A 
ATOM      5  C   UNL     1       2.060   4.777  19.735  0.00  0.00    +0.000 A 
ATOM      6  N   UNL     1       2.571   3.522  19.810  0.00  0.00    +0.000 NA
ATOM      7  C   UNL     1       3.818   3.389  19.306  0.00  0.00    +0.000 A 
ATOM      8  C   UNL     1       4.492   4.441  18.701  0.00  0.00    +0.000 A 
ATOM      9  N   UNL     1       3.958   5.682  18.580  0.00  0.00    +0.000 NA
ATOM     10  H   UNL     1       2.692   7.757  18.448  0.00  0.00    +0.000 HD
ENDROOT
BRANCH   2  11
ATOM     11  C   UNL     1       1.153   9.099  20.038  0.00  0.00    +0.000 A 
ATOM     12  C   UNL     1       1.443   9.781  18.849  0.00  0.00    +0.000 A 
ATOM     13  C   UNL     1       1.115  11.131  18.722  0.00  0.00    +0.000 A 
ATOM     14  C   UNL     1       0.516  11.801  19.788  0.00  0.00    +0.000 A 
ATOM     15  C   UNL     1       0.230  11.116  20.970  0.00  0.00    +0.000 A 
ATOM     16 CL   UNL     1      -0.473  11.959  22.294  0.00  0.00    +0.000 Cl
ATOM     17  C   UNL     1       0.536   9.762  21.102  0.00  0.00    +0.000 A 
ENDBRANCH   2  11
BRANCH   8  18
ATOM     18  O   UNL     1       5.797   4.194  18.298  0.00  0.00    +0.000 OA
BRANCH  18  19
ATOM     19  C   UNL     1       6.149   4.457  16.998  0.00  0.00    +0.000 A 
ATOM     20  C   UNL     1       7.049   5.500  16.774  0.00  0.00    +0.000 A 
ATOM     21  N   UNL     1       7.540   5.830  15.557  0.00  0.00    +0.000 NA
ATOM     22  C   UNL     1       7.105   5.077  14.515  0.00  0.00    +0.000 A 
ATOM     23  C   UNL     1       6.220   4.026  14.646  0.00  0.00    +0.000 A 
ATOM     24  F   UNL     1       5.827   3.326  13.574  0.00  0.00    +0.000 F 
ATOM     25  C   UNL     1       5.748   3.692  15.905  0.00  0.00    +0.000 A 
ENDBRANCH  18  19
ENDBRANCH   8  18
TORSDOF 3
ENDMDL
MODEL 6
REMARK VINA RESULT:      -7.7      6.547      9.178
REMARK  Name = 
REMARK  3 active torsions:
REMARK  status: ('A' for Active; 'I' for Inactive)
REMARK    1  A    between atoms: C_2  and  C_18
REMARK    2  A    between atoms: C_8  and  O_9
REMARK    3  A    between atoms: O_9  and  C_10
REMARK                            x       y       z     vdW  Elec       q    Type
REMARK                         _______ _______ _______ _____ _____    ______ ____
ROOT
ATOM      1  O   UNL     1       1.316   5.737  20.461  0.00  0.00    +0.000 OA
ATOM      2  C   UNL     1       2.145   6.216  19.697  0.00  0.00    +0.000 C 
ATOM      3  N   UNL     1       2.341   7.557  19.468  0.00  0.00    +0.000 N 
ATOM      4  C   UNL     1       1.575   8.520  20.135  0.00  0.00    +0.000 A 
ATOM      5  C   UNL     1       1.302   8.450  21.503  0.00  0.00    +0.000 A 
ATOM      6  N   UNL     1       0.540   9.366  22.153  0.00  0.00    +0.000 NA
ATOM      7  C   UNL     1       0.025  10.334  21.364  0.00  0.00    +0.000 A 
ATOM      8  C   UNL     1       0.310  10.420  20.008  0.00  0.00    +0.000 A 
ATOM      9  N   UNL     1       1.114   9.532  19.371  0.00  0.00    +0.000 NA
ATOM     10  H   UNL     1       2.657   7.837  18.550  0.00  0.00    +0.000 HD
ENDROOT
BRANCH   2  11
ATOM     11  C   UNL     1       2.974   5.291  18.890  0.00  0.00    +0.000 A 
ATOM     12  C   UNL     1       3.728   5.808  17.829  0.00  0.00    +0.000 A 
ATOM     13  C   UNL     1       4.428   4.944  16.986  0.00  0.00    +0.000 A 
ATOM     14  C   UNL     1       4.358   3.567  17.193  0.00  0.00    +0.000 A 
ATOM     15  C   UNL     1       3.605   3.059  18.254  0.00  0.00    +0.000 A 
ATOM     16 CL   UNL     1       3.493   1.358  18.480  0.00  0.00    +0.000 Cl
ATOM     17  C   UNL     1       2.917   3.914  19.114  0.00  0.00    +0.000 A 
ENDBRANCH   2  11
BRANCH   8  18
ATOM     18  O   UNL     1      -0.346  11.413  19.294  0.00  0.00    +0.000 OA
BRANCH  18  19
ATOM     19  C   UNL     1      -1.536  11.111  18.682  0.00  0.00    +0.000 A 
ATOM     20  C   UNL     1      -2.668  11.816  19.094  0.00  0.00    +0.000 A 
ATOM     21  N   UNL     1      -3.893  11.677  18.537  0.00  0.00    +0.000 NA
ATOM     22  C   UNL     1      -3.986  10.786  17.518  0.00  0.00    +0.000 A 
ATOM     23  C   UNL     1      -2.919  10.050  17.043  0.00  0.00    +0.000 A 
ATOM     24  F   UNL     1      -3.081   9.183  16.035  0.00  0.00    +0.000 F 
ATOM     25  C   UNL     1      -1.670  10.225  17.615  0.00  0.00    +0.000 A 
ENDBRANCH  18  19
ENDBRANCH   8  18
TORSDOF 3
ENDMDL
MODEL 7
REMARK VINA RESULT:      -7.6      6.052      8.576
REMARK  Name = 
REMARK  3 active torsions:
REMARK  status: ('A' for Active; 'I' for Inactive)
REMARK    1  A    between atoms: C_2  and  C_18
REMARK    2  A    between atoms: C_8  and  O_9
REMARK    3  A    between atoms: O_9  and  C_10
REMARK                            x       y       z     vdW  Elec       q    Type
REMARK                         _______ _______ _______ _____ _____    ______ ____
ROOT
ATOM      1  O   UNL     1       1.632   5.649  19.608  0.00  0.00    +0.000 OA
ATOM      2  C   UNL     1       2.467   6.303  18.994  0.00  0.00    +0.000 C 
ATOM      3  N   UNL     1       2.560   7.675  18.986  0.00  0.00    +0.000 N 
ATOM      4  C   UNL     1       1.668   8.460  19.726  0.00  0.00    +0.000 A 
ATOM      5  C   UNL     1       1.308   8.156  21.041  0.00  0.00    +0.000 A 
ATOM      6  N   UNL     1       0.426   8.898  21.757  0.00  0.00    +0.000 NA
ATOM      7  C   UNL     1      -0.116   9.936  21.084  0.00  0.00    +0.000 A 
ATOM      8  C   UNL     1       0.253  10.254  19.783  0.00  0.00    +0.000 A 
ATOM      9  N   UNL     1       1.174   9.542  19.088  0.00  0.00    +0.000 NA
ATOM     10  H   UNL     1       2.913   8.118  18.150  0.00  0.00    +0.000 HD
ENDROOT
BRANCH   2  11
ATOM     11  C   UNL     1       3.427   5.582  18.128  0.00  0.00    +0.000 A 
ATOM     12  C   UNL     1       3.117   4.282  17.708  0.00  0.00    +0.000 A 
ATOM     13  C   UNL     1       4.053   3.541  16.986  0.00  0.00    +0.000 A 
ATOM     14  C   UNL     1       5.302   4.092  16.702  0.00  0.00    +0.000 A 
ATOM     15  C   UNL     1       5.604   5.389  17.124  0.00  0.00    +0.000 A 
ATOM     16 CL   UNL     1       7.161   6.046  16.804  0.00  0.00    +0.000 Cl
ATOM     17  C   UNL     1       4.670   6.145  17.830  0.00  0.00    +0.000 A 
ENDBRANCH   2  11
BRANCH   8  18
ATOM     18  O   UNL     1      -0.437  11.294  19.176  0.00  0.00    +0.000 OA
BRANCH  18  19
ATOM     19  C   UNL     1      -1.587  11.010  18.484  0.00  0.00    +0.000 A 
ATOM     20  C   UNL     1      -2.745  11.698  18.849  0.00  0.00    +0.000 A 
ATOM     21  N   UNL     1      -3.933  11.575  18.214  0.00  0.00    +0.000 NA
ATOM     22  C   UNL     1      -3.961  10.717  17.163  0.00  0.00    +0.000 A 
ATOM     23  C   UNL     1      -2.864   9.999  16.731  0.00  0.00    +0.000 A 
ATOM     24  F   UNL     1      -2.960   9.164  15.688  0.00  0.00    +0.000 F 
ATOM     25  C   UNL     1      -1.652  10.158  17.383  0.00  0.00    +0.000 A 
ENDBRANCH  18  19
ENDBRANCH   8  18
TORSDOF 3
ENDMDL
MODEL 8
REMARK VINA RESULT:      -7.6      5.155      7.428
REMARK  Name = 
REMARK  3 active torsions:
REMARK  status: ('A' for Active; 'I' for Inactive)
REMARK    1  A    between atoms: C_2  and  C_18
REMARK    2  A    between atoms: C_8  and  O_9
REMARK    3  A    between atoms: O_9  and  C_10
REMARK                            x       y       z     vdW  Elec       q    Type
REMARK                         _______ _______ _______ _____ _____    ______ ____
ROOT
ATOM      1  O   UNL     1       1.216   8.172  21.559  0.00  0.00    +0.000 OA
ATOM      2  C   UNL     1       1.303   8.549  20.396  0.00  0.00    +0.000 C 
ATOM      3  N   UNL     1       1.889   7.845  19.370  0.00  0.00    +0.000 N 
ATOM      4  C   UNL     1       2.445   6.580  19.591  0.00  0.00    +0.000 A 
ATOM      5  C   UNL     1       1.803   5.597  20.348  0.00  0.00    +0.000 A 
ATOM      6  N   UNL     1       2.346   4.376  20.587  0.00  0.00    +0.000 NA
ATOM      7  C   UNL     1       3.582   4.197  20.071  0.00  0.00    +0.000 A 
ATOM      8  C   UNL     1       4.215   5.164  19.302  0.00  0.00    +0.000 A 
ATOM      9  N   UNL     1       3.648   6.364  19.020  0.00  0.00    +0.000 NA
ATOM     10  H   UNL     1       2.330   8.373  18.629  0.00  0.00    +0.000 HD
ENDROOT
BRANCH   2  11
ATOM     11  C   UNL     1       0.802   9.899  20.055  0.00  0.00    +0.000 A 
ATOM     12  C   UNL     1       1.140  10.977  20.884  0.00  0.00    +0.000 A 
ATOM     13  C   UNL     1       0.589  12.237  20.649  0.00  0.00    +0.000 A 
ATOM     14  C   UNL     1      -0.311  12.413  19.598  0.00  0.00    +0.000 A 
ATOM     15  C   UNL     1      -0.643  11.335  18.776  0.00  0.00    +0.000 A 
ATOM     16 CL   UNL     1      -1.784  11.552  17.507  0.00  0.00    +0.000 Cl
ATOM     17  C   UNL     1      -0.084  10.075  18.990  0.00  0.00    +0.000 A 
ENDBRANCH   2  11
BRANCH   8  18
ATOM     18  O   UNL     1       5.515   4.888  18.900  0.00  0.00    +0.000 OA
BRANCH  18  19
ATOM     19  C   UNL     1       5.836   5.006  17.572  0.00  0.00    +0.000 A 
ATOM     20  C   UNL     1       6.977   5.742  17.249  0.00  0.00    +0.000 A 
ATOM     21  N   UNL     1       7.456   5.887  15.992  0.00  0.00    +0.000 NA
ATOM     22  C   UNL     1       6.754   5.265  15.011  0.00  0.00    +0.000 A 
ATOM     23  C   UNL     1       5.618   4.513  15.241  0.00  0.00    +0.000 A 
ATOM     24  F   UNL     1       4.970   3.928  14.225  0.00  0.00    +0.000 F 
ATOM     25  C   UNL     1       5.159   4.361  16.538  0.00  0.00    +0.000 A 
ENDBRANCH  18  19
ENDBRANCH   8  18
TORSDOF 3
ENDMDL
MODEL 9
REMARK VINA RESULT:      -7.5      4.996      7.102
REMARK  Name = 
REMARK  3 active torsions:
REMARK  status: ('A' for Active; 'I' for Inactive)
REMARK    1  A    between atoms: C_2  and  C_18
REMARK    2  A    between atoms: C_8  and  O_9
REMARK    3  A    between atoms: O_9  and  C_10
REMARK                            x       y       z     vdW  Elec       q    Type
REMARK                         _______ _______ _______ _____ _____    ______ ____
ROOT
ATOM      1  O   UNL     1       1.385   7.710  21.237  0.00  0.00    +0.000 OA
ATOM      2  C   UNL     1       1.475   8.187  20.112  0.00  0.00    +0.000 C 
ATOM      3  N   UNL     1       2.057   7.572  19.028  0.00  0.00    +0.000 N 
ATOM      4  C   UNL     1       2.606   6.289  19.138  0.00  0.00    +0.000 A 
ATOM      5  C   UNL     1       1.958   5.247  19.806  0.00  0.00    +0.000 A 
ATOM      6  N   UNL     1       2.493   4.008  19.938  0.00  0.00    +0.000 NA
ATOM      7  C   UNL     1       3.728   3.866  19.409  0.00  0.00    +0.000 A 
ATOM      8  C   UNL     1       4.368   4.893  18.727  0.00  0.00    +0.000 A 
ATOM      9  N   UNL     1       3.808   6.116  18.551  0.00  0.00    +0.000 NA
ATOM     10  H   UNL     1       2.502   8.160  18.337  0.00  0.00    +0.000 HD
ENDROOT
BRANCH   2  11
ATOM     11  C   UNL     1       0.982   9.565  19.890  0.00  0.00    +0.000 A 
ATOM     12  C   UNL     1      -0.301   9.906  20.340  0.00  0.00    +0.000 A 
ATOM     13  C   UNL     1      -0.831  11.162  20.044  0.00  0.00    +0.000 A 
ATOM     14  C   UNL     1      -0.088  12.067  19.286  0.00  0.00    +0.000 A 
ATOM     15  C   UNL     1       1.190  11.720  18.841  0.00  0.00    +0.000 A 
ATOM     16 CL   UNL     1       2.084  12.825  17.874  0.00  0.00    +0.000 Cl
ATOM     17  C   UNL     1       1.738  10.474  19.147  0.00  0.00    +0.000 A 
ENDBRANCH   2  11
BRANCH   8  18
ATOM     18  O   UNL     1       5.666   4.645  18.303  0.00  0.00    +0.000 OA
BRANCH  18  19
ATOM     19  C   UNL     1       5.962   4.771  16.970  0.00  0.00    +0.000 A 
ATOM     20  C   UNL     1       7.136   5.445  16.632  0.00  0.00    +0.000 A 
ATOM     21  N   UNL     1       7.593   5.586  15.366  0.00  0.00    +0.000 NA
ATOM     22  C   UNL     1       6.832   5.026  14.392  0.00  0.00    +0.000 A 
ATOM     23  C   UNL     1       5.660   4.338  14.636  0.00  0.00    +0.000 A 
ATOM     24  F   UNL     1       4.954   3.813  13.626  0.00  0.00    +0.000 F 
ATOM     25  C   UNL     1       5.224   4.187  15.942  0.00  0.00    +0.000 A 
ENDBRANCH  18  19
ENDBRANCH   8  18
TORSDOF 3
ENDMDL
