MODEL 1
REMARK VINA RESULT:      -5.9      0.000      0.000
REMARK  Name = 
REMARK  4 active torsions:
REMARK  status: ('A' for Active; 'I' for Inactive)
REMARK    1  A    between atoms: N_1  and  N_2
REMARK    2  A    between atoms: N_8  and  C_9
REMARK    3  A    between atoms: C_9  and  C_10
REMARK    4  A    between atoms: C_10  and  O_12
REMARK                            x       y       z     vdW  Elec       q    Type
REMARK                         _______ _______ _______ _____ _____    ______ ____
ROOT
ATOM      1  N   UNL     1       4.148   2.797  20.024  0.00  0.00    +0.000 N 
ATOM      2  C   UNL     1       3.002   2.864  20.927  0.00  0.00    +0.000 C 
ATOM      3  C   UNL     1       2.189   4.143  20.721  0.00  0.00    +0.000 C 
ATOM      4  N   UNL     1       3.003   5.285  20.306  0.00  0.00    +0.000 N 
ATOM      5  N   UNL     1       4.024   5.128  19.427  0.00  0.00    +0.000 NA
ATOM      6  C   UNL     1       4.573   3.944  19.364  0.00  0.00    +0.000 C 
ATOM      7  N   UNL     1       5.677   3.693  18.579  0.00  0.00    +0.000 N 
ATOM      8  H   UNL     1       2.414   6.069  20.023  0.00  0.00    +0.000 HD
ATOM      9  H   UNL     1       5.697   2.679  18.442  0.00  0.00    +0.000 HD
ENDROOT
BRANCH   1  10
ATOM     10  N   UNL     1       5.001   1.647  20.010  0.00  0.00    +0.000 NA
ATOM     11  H   UNL     1       5.016   1.234  19.074  0.00  0.00    +0.000 HD
ATOM     12  H   UNL     1       4.586   0.931  20.615  0.00  0.00    +0.000 HD
ENDBRANCH   1  10
BRANCH   7  13
ATOM     13  C   UNL     1       5.893   4.457  17.344  0.00  0.00    +0.000 C 
BRANCH  13  14
ATOM     14  C   UNL     1       7.315   4.999  17.343  0.00  0.00    +0.000 C 
ATOM     15  O   UNL     1       7.627   6.152  17.091  0.00  0.00    +0.000 OA
BRANCH  14  16
ATOM     16  O   UNL     1       8.222   4.042  17.681  0.00  0.00    +0.000 OA
ATOM     17  H   UNL     1       7.774   3.402  18.282  0.00  0.00    +0.000 HD
ENDBRANCH  14  16
ENDBRANCH  13  14
ENDBRANCH   7  13
TORSDOF 4
ENDMDL
MODEL 2
REMARK VINA RESULT:      -5.9      1.822      1.939
REMARK  Name = 
REMARK  4 active torsions:
REMARK  status: ('A' for Active; 'I' for Inactive)
REMARK    1  A    between atoms: N_1  and  N_2
REMARK    2  A    between atoms: N_8  and  C_9
REMARK    3  A    between atoms: C_9  and  C_10
REMARK    4  A    between atoms: C_10  and  O_12
REMARK                            x       y       z     vdW  Elec       q    Type
REMARK                         _______ _______ _______ _____ _____    ______ ____
ROOT
ATOM      1  N   UNL     1       4.240   2.715  19.047  0.00  0.00    +0.000 N 
ATOM      2  C   UNL     1       2.847   2.382  18.761  0.00  0.00    +0.000 C 
ATOM      3  C   UNL     1       2.261   3.281  17.670  0.00  0.00    +0.000 C 
ATOM      4  N   UNL     1       2.823   4.631  17.669  0.00  0.00    +0.000 N 
ATOM      5  N   UNL     1       4.143   4.834  17.906  0.00  0.00    +0.000 NA
ATOM      6  C   UNL     1       4.764   3.925  18.609  0.00  0.00    +0.000 C 
ATOM      7  N   UNL     1       6.078   4.073  18.992  0.00  0.00    +0.000 N 
ATOM      8  H   UNL     1       2.532   5.146  16.837  0.00  0.00    +0.000 HD
ATOM      9  H   UNL     1       6.411   3.131  19.217  0.00  0.00    +0.000 HD
ENDROOT
BRANCH   1  10
ATOM     10  N   UNL     1       4.995   1.947  19.992  0.00  0.00    +0.000 NA
ATOM     11  H   UNL     1       4.363   1.451  20.624  0.00  0.00    +0.000 HD
ATOM     12  H   UNL     1       5.520   2.596  20.588  0.00  0.00    +0.000 HD
ENDBRANCH   1  10
BRANCH   7  13
ATOM     13  C   UNL     1       7.009   4.840  18.156  0.00  0.00    +0.000 C 
BRANCH  13  14
ATOM     14  C   UNL     1       7.723   5.865  19.025  0.00  0.00    +0.000 C 
ATOM     15  O   UNL     1       8.141   6.945  18.639  0.00  0.00    +0.000 OA
BRANCH  14  16
ATOM     16  O   UNL     1       7.830   5.447  20.316  0.00  0.00    +0.000 OA
ATOM     17  H   UNL     1       7.001   5.702  20.785  0.00  0.00    +0.000 HD
ENDBRANCH  14  16
ENDBRANCH  13  14
ENDBRANCH   7  13
TORSDOF 4
ENDMDL
MODEL 3
REMARK VINA RESULT:      -5.8      1.673      1.895
REMARK  Name = 
REMARK  4 active torsions:
REMARK  status: ('A' for Active; 'I' for Inactive)
REMARK    1  A    between atoms: N_1  and  N_2
REMARK    2  A    between atoms: N_8  and  C_9
REMARK    3  A    between atoms: C_9  and  C_10
REMARK    4  A    between atoms: C_10  and  O_12
REMARK                            x       y       z     vdW  Elec       q    Type
REMARK                         _______ _______ _______ _____ _____    ______ ____
ROOT
ATOM      1  N   UNL     1       3.809   2.604  19.029  0.00  0.00    +0.000 N 
ATOM      2  C   UNL     1       2.454   2.275  19.467  0.00  0.00    +0.000 C 
ATOM      3  C   UNL     1       1.399   2.787  18.485  0.00  0.00    +0.000 C 
ATOM      4  N   UNL     1       1.790   4.023  17.808  0.00  0.00    +0.000 N 
ATOM      5  N   UNL     1       3.069   4.218  17.401  0.00  0.00    +0.000 NA
ATOM      6  C   UNL     1       4.000   3.564  18.043  0.00  0.00    +0.000 C 
ATOM      7  N   UNL     1       5.338   3.755  17.780  0.00  0.00    +0.000 N 
ATOM      8  H   UNL     1       1.143   4.244  17.051  0.00  0.00    +0.000 HD
ATOM      9  H   UNL     1       5.816   2.926  18.144  0.00  0.00    +0.000 HD
ENDROOT
BRANCH   1  10
ATOM     10  N   UNL     1       4.947   2.156  19.774  0.00  0.00    +0.000 NA
ATOM     11  H   UNL     1       5.731   1.979  19.142  0.00  0.00    +0.000 HD
ATOM     12  H   UNL     1       4.722   1.245  20.188  0.00  0.00    +0.000 HD
ENDBRANCH   1  10
BRANCH   7  13
ATOM     13  C   UNL     1       5.778   4.141  16.434  0.00  0.00    +0.000 C 
BRANCH  13  14
ATOM     14  C   UNL     1       7.201   4.676  16.514  0.00  0.00    +0.000 C 
ATOM     15  O   UNL     1       8.085   4.217  17.219  0.00  0.00    +0.000 OA
BRANCH  14  16
ATOM     16  O   UNL     1       7.392   5.734  15.680  0.00  0.00    +0.000 OA
ATOM     17  H   UNL     1       8.171   6.240  16.008  0.00  0.00    +0.000 HD
ENDBRANCH  14  16
ENDBRANCH  13  14
ENDBRANCH   7  13
TORSDOF 4
ENDMDL
MODEL 4
REMARK VINA RESULT:      -5.8      1.290      1.315
REMARK  Name = 
REMARK  4 active torsions:
REMARK  status: ('A' for Active; 'I' for Inactive)
REMARK    1  A    between atoms: N_1  and  N_2
REMARK    2  A    between atoms: N_8  and  C_9
REMARK    3  A    between atoms: C_9  and  C_10
REMARK    4  A    between atoms: C_10  and  O_12
REMARK                            x       y       z     vdW  Elec       q    Type
REMARK                         _______ _______ _______ _____ _____    ______ ____
ROOT
ATOM      1  N   UNL     1       4.135   3.107  19.671  0.00  0.00    +0.000 N 
ATOM      2  C   UNL     1       2.741   3.094  20.108  0.00  0.00    +0.000 C 
ATOM      3  C   UNL     1       2.069   4.453  19.900  0.00  0.00    +0.000 C 
ATOM      4  N   UNL     1       2.988   5.581  20.044  0.00  0.00    +0.000 N 
ATOM      5  N   UNL     1       4.256   5.510  19.566  0.00  0.00    +0.000 NA
ATOM      6  C   UNL     1       4.779   4.319  19.455  0.00  0.00    +0.000 C 
ATOM      7  N   UNL     1       6.089   4.132  19.073  0.00  0.00    +0.000 N 
ATOM      8  H   UNL     1       2.547   6.451  19.742  0.00  0.00    +0.000 HD
ATOM      9  H   UNL     1       6.148   3.164  18.744  0.00  0.00    +0.000 HD
ENDROOT
BRANCH   1  10
ATOM     10  N   UNL     1       4.926   1.913  19.717  0.00  0.00    +0.000 NA
ATOM     11  H   UNL     1       4.442   1.194  20.261  0.00  0.00    +0.000 HD
ATOM     12  H   UNL     1       5.784   2.116  20.241  0.00  0.00    +0.000 HD
ENDBRANCH   1  10
BRANCH   7  13
ATOM     13  C   UNL     1       6.743   5.096  18.180  0.00  0.00    +0.000 C 
BRANCH  13  14
ATOM     14  C   UNL     1       7.689   5.963  18.997  0.00  0.00    +0.000 C 
ATOM     15  O   UNL     1       8.195   7.005  18.614  0.00  0.00    +0.000 OA
BRANCH  14  16
ATOM     16  O   UNL     1       7.900   5.448  20.239  0.00  0.00    +0.000 OA
ATOM     17  H   UNL     1       7.480   6.056  20.892  0.00  0.00    +0.000 HD
ENDBRANCH  14  16
ENDBRANCH  13  14
ENDBRANCH   7  13
TORSDOF 4
ENDMDL
MODEL 5
REMARK VINA RESULT:      -5.7      1.136      1.141
REMARK  Name = 
REMARK  4 active torsions:
REMARK  status: ('A' for Active; 'I' for Inactive)
REMARK    1  A    between atoms: N_1  and  N_2
REMARK    2  A    between atoms: N_8  and  C_9
REMARK    3  A    between atoms: C_9  and  C_10
REMARK    4  A    between atoms: C_10  and  O_12
REMARK                            x       y       z     vdW  Elec       q    Type
REMARK                         _______ _______ _______ _____ _____    ______ ____
ROOT
ATOM      1  N   UNL     1       4.150   3.087  19.708  0.00  0.00    +0.000 N 
ATOM      2  C   UNL     1       2.842   3.057  20.358  0.00  0.00    +0.000 C 
ATOM      3  C   UNL     1       2.128   4.407  20.263  0.00  0.00    +0.000 C 
ATOM      4  N   UNL     1       3.045   5.547  20.265  0.00  0.00    +0.000 N 
ATOM      5  N   UNL     1       4.223   5.492  19.594  0.00  0.00    +0.000 NA
ATOM      6  C   UNL     1       4.737   4.308  19.398  0.00  0.00    +0.000 C 
ATOM      7  N   UNL     1       5.973   4.138  18.815  0.00  0.00    +0.000 N 
ATOM      8  H   UNL     1       2.551   6.411  20.038  0.00  0.00    +0.000 HD
ATOM      9  H   UNL     1       5.992   3.171  18.477  0.00  0.00    +0.000 HD
ENDROOT
BRANCH   1  10
ATOM     10  N   UNL     1       4.953   1.904  19.626  0.00  0.00    +0.000 NA
ATOM     11  H   UNL     1       5.628   1.886  20.394  0.00  0.00    +0.000 HD
ATOM     12  H   UNL     1       5.516   1.956  18.771  0.00  0.00    +0.000 HD
ENDBRANCH   1  10
BRANCH   7  13
ATOM     13  C   UNL     1       6.466   5.111  17.833  0.00  0.00    +0.000 C 
BRANCH  13  14
ATOM     14  C   UNL     1       6.835   4.377  16.552  0.00  0.00    +0.000 C 
ATOM     15  O   UNL     1       7.817   4.610  15.867  0.00  0.00    +0.000 OA
BRANCH  14  16
ATOM     16  O   UNL     1       5.941   3.394  16.258  0.00  0.00    +0.000 OA
ATOM     17  H   UNL     1       5.053   3.811  16.173  0.00  0.00    +0.000 HD
ENDBRANCH  14  16
ENDBRANCH  13  14
ENDBRANCH   7  13
TORSDOF 4
ENDMDL
MODEL 6
REMARK VINA RESULT:      -5.6      1.484      1.591
REMARK  Name = 
REMARK  4 active torsions:
REMARK  status: ('A' for Active; 'I' for Inactive)
REMARK    1  A    between atoms: N_1  and  N_2
REMARK    2  A    between atoms: N_8  and  C_9
REMARK    3  A    between atoms: C_9  and  C_10
REMARK    4  A    between atoms: C_10  and  O_12
REMARK                            x       y       z     vdW  Elec       q    Type
REMARK                         _______ _______ _______ _____ _____    ______ ____
ROOT
ATOM      1  N   UNL     1       4.284   3.286  18.931  0.00  0.00    +0.000 N 
ATOM      2  C   UNL     1       2.914   2.975  18.529  0.00  0.00    +0.000 C 
ATOM      3  C   UNL     1       2.276   4.127  17.749  0.00  0.00    +0.000 C 
ATOM      4  N   UNL     1       2.755   5.444  18.167  0.00  0.00    +0.000 N 
ATOM      5  N   UNL     1       4.059   5.641  18.481  0.00  0.00    +0.000 NA
ATOM      6  C   UNL     1       4.733   4.599  18.889  0.00  0.00    +0.000 C 
ATOM      7  N   UNL     1       6.036   4.700  19.326  0.00  0.00    +0.000 N 
ATOM      8  H   UNL     1       2.434   6.169  17.524  0.00  0.00    +0.000 HD
ATOM      9  H   UNL     1       6.425   3.755  19.262  0.00  0.00    +0.000 HD
ENDROOT
BRANCH   1  10
ATOM     10  N   UNL     1       5.083   2.313  19.614  0.00  0.00    +0.000 NA
ATOM     11  H   UNL     1       4.592   1.981  20.449  0.00  0.00    +0.000 HD
ATOM     12  H   UNL     1       5.927   2.778  19.964  0.00  0.00    +0.000 HD
ENDBRANCH   1  10
BRANCH   7  13
ATOM     13  C   UNL     1       6.920   5.736  18.779  0.00  0.00    +0.000 C 
BRANCH  13  14
ATOM     14  C   UNL     1       7.497   5.247  17.459  0.00  0.00    +0.000 C 
ATOM     15  O   UNL     1       7.414   5.837  16.394  0.00  0.00    +0.000 OA
BRANCH  14  16
ATOM     16  O   UNL     1       8.148   4.060  17.601  0.00  0.00    +0.000 OA
ATOM     17  H   UNL     1       8.506   4.021  18.518  0.00  0.00    +0.000 HD
ENDBRANCH  14  16
ENDBRANCH  13  14
ENDBRANCH   7  13
TORSDOF 4
ENDMDL
MODEL 7
REMARK VINA RESULT:      -5.6      2.961      4.740
REMARK  Name = 
REMARK  4 active torsions:
REMARK  status: ('A' for Active; 'I' for Inactive)
REMARK    1  A    between atoms: N_1  and  N_2
REMARK    2  A    between atoms: N_8  and  C_9
REMARK    3  A    between atoms: C_9  and  C_10
REMARK    4  A    between atoms: C_10  and  O_12
REMARK                            x       y       z     vdW  Elec       q    Type
REMARK                         _______ _______ _______ _____ _____    ______ ____
ROOT
ATOM      1  N   UNL     1       7.421   5.931  19.200  0.00  0.00    +0.000 N 
ATOM      2  C   UNL     1       8.133   7.025  18.543  0.00  0.00    +0.000 C 
ATOM      3  C   UNL     1       7.347   7.582  17.355  0.00  0.00    +0.000 C 
ATOM      4  N   UNL     1       6.537   6.573  16.673  0.00  0.00    +0.000 N 
ATOM      5  N   UNL     1       5.878   5.619  17.377  0.00  0.00    +0.000 NA
ATOM      6  C   UNL     1       6.363   5.309  18.550  0.00  0.00    +0.000 C 
ATOM      7  N   UNL     1       5.834   4.290  19.310  0.00  0.00    +0.000 N 
ATOM      8  H   UNL     1       5.909   7.007  15.996  0.00  0.00    +0.000 HD
ATOM      9  H   UNL     1       6.146   4.467  20.269  0.00  0.00    +0.000 HD
ENDROOT
BRANCH   1  10
ATOM     10  N   UNL     1       7.956   5.314  20.378  0.00  0.00    +0.000 NA
ATOM     11  H   UNL     1       7.211   5.163  21.062  0.00  0.00    +0.000 HD
ATOM     12  H   UNL     1       8.601   5.976  20.822  0.00  0.00    +0.000 HD
ENDBRANCH   1  10
BRANCH   7  13
ATOM     13  C   UNL     1       4.408   3.956  19.209  0.00  0.00    +0.000 C 
BRANCH  13  14
ATOM     14  C   UNL     1       4.246   2.447  19.310  0.00  0.00    +0.000 C 
ATOM     15  O   UNL     1       3.410   1.788  18.712  0.00  0.00    +0.000 OA
BRANCH  14  16
ATOM     16  O   UNL     1       5.170   1.894  20.143  0.00  0.00    +0.000 OA
ATOM     17  H   UNL     1       5.334   2.531  20.876  0.00  0.00    +0.000 HD
ENDBRANCH  14  16
ENDBRANCH  13  14
ENDBRANCH   7  13
TORSDOF 4
ENDMDL
MODEL 8
REMARK VINA RESULT:      -5.6      1.274      1.523
REMARK  Name = 
REMARK  4 active torsions:
REMARK  status: ('A' for Active; 'I' for Inactive)
REMARK    1  A    between atoms: N_1  and  N_2
REMARK    2  A    between atoms: N_8  and  C_9
REMARK    3  A    between atoms: C_9  and  C_10
REMARK    4  A    between atoms: C_10  and  O_12
REMARK                            x       y       z     vdW  Elec       q    Type
REMARK                         _______ _______ _______ _____ _____    ______ ____
ROOT
ATOM      1  N   UNL     1       3.793   2.970  18.841  0.00  0.00    +0.000 N 
ATOM      2  C   UNL     1       2.935   3.237  19.994  0.00  0.00    +0.000 C 
ATOM      3  C   UNL     1       2.736   4.738  20.218  0.00  0.00    +0.000 C 
ATOM      4  N   UNL     1       3.894   5.540  19.824  0.00  0.00    +0.000 N 
ATOM      5  N   UNL     1       4.604   5.235  18.710  0.00  0.00    +0.000 NA
ATOM      6  C   UNL     1       4.570   3.992  18.310  0.00  0.00    +0.000 C 
ATOM      7  N   UNL     1       5.328   3.547  17.249  0.00  0.00    +0.000 N 
ATOM      8  H   UNL     1       3.667   6.536  19.835  0.00  0.00    +0.000 HD
ATOM      9  H   UNL     1       4.886   2.678  16.935  0.00  0.00    +0.000 HD
ENDROOT
BRANCH   1  10
ATOM     10  N   UNL     1       4.051   1.626  18.419  0.00  0.00    +0.000 NA
ATOM     11  H   UNL     1       4.411   1.624  17.461  0.00  0.00    +0.000 HD
ATOM     12  H   UNL     1       3.157   1.126  18.374  0.00  0.00    +0.000 HD
ENDBRANCH   1  10
BRANCH   7  13
ATOM     13  C   UNL     1       5.669   4.460  16.151  0.00  0.00    +0.000 C 
BRANCH  13  14
ATOM     14  C   UNL     1       7.176   4.677  16.140  0.00  0.00    +0.000 C 
ATOM     15  O   UNL     1       7.954   4.244  16.974  0.00  0.00    +0.000 OA
BRANCH  14  16
ATOM     16  O   UNL     1       7.574   5.405  15.062  0.00  0.00    +0.000 OA
ATOM     17  H   UNL     1       7.333   4.899  14.251  0.00  0.00    +0.000 HD
ENDBRANCH  14  16
ENDBRANCH  13  14
ENDBRANCH   7  13
TORSDOF 4
ENDMDL
MODEL 9
REMARK VINA RESULT:      -5.5      1.645      1.907
REMARK  Name = 
REMARK  4 active torsions:
REMARK  status: ('A' for Active; 'I' for Inactive)
REMARK    1  A    between atoms: N_1  and  N_2
REMARK    2  A    between atoms: N_8  and  C_9
REMARK    3  A    between atoms: C_9  and  C_10
REMARK    4  A    between atoms: C_10  and  O_12
REMARK                            x       y       z     vdW  Elec       q    Type
REMARK                         _______ _______ _______ _____ _____    ______ ____
ROOT
ATOM      1  N   UNL     1       4.287   2.510  19.135  0.00  0.00    +0.000 N 
ATOM      2  C   UNL     1       3.057   1.856  18.694  0.00  0.00    +0.000 C 
ATOM      3  C   UNL     1       2.348   2.659  17.602  0.00  0.00    +0.000 C 
ATOM      4  N   UNL     1       2.535   4.104  17.732  0.00  0.00    +0.000 N 
ATOM      5  N   UNL     1       3.732   4.618  18.110  0.00  0.00    +0.000 NA
ATOM      6  C   UNL     1       4.510   3.844  18.819  0.00  0.00    +0.000 C 
ATOM      7  N   UNL     1       5.705   4.292  19.338  0.00  0.00    +0.000 N 
ATOM      8  H   UNL     1       2.189   4.592  16.905  0.00  0.00    +0.000 HD
ATOM      9  H   UNL     1       6.253   3.451  19.542  0.00  0.00    +0.000 HD
ENDROOT
BRANCH   1  10
ATOM     10  N   UNL     1       5.137   1.888  20.106  0.00  0.00    +0.000 NA
ATOM     11  H   UNL     1       5.310   2.531  20.883  0.00  0.00    +0.000 HD
ATOM     12  H   UNL     1       6.055   1.730  19.676  0.00  0.00    +0.000 HD
ENDBRANCH   1  10
BRANCH   7  13
ATOM     13  C   UNL     1       6.468   5.335  18.643  0.00  0.00    +0.000 C 
BRANCH  13  14
ATOM     14  C   UNL     1       7.187   4.711  17.456  0.00  0.00    +0.000 C 
ATOM     15  O   UNL     1       8.263   4.139  17.508  0.00  0.00    +0.000 OA
BRANCH  14  16
ATOM     16  O   UNL     1       6.474   4.847  16.304  0.00  0.00    +0.000 OA
ATOM     17  H   UNL     1       6.502   3.983  15.830  0.00  0.00    +0.000 HD
ENDBRANCH  14  16
ENDBRANCH  13  14
ENDBRANCH   7  13
TORSDOF 4
ENDMDL
