MODEL 1
REMARK VINA RESULT:      -7.3      0.000      0.000
REMARK  Name = 
REMARK  19 active torsions:
REMARK  status: ('A' for Active; 'I' for Inactive)
REMARK    1  A    between atoms: NE_4  and  CD_5
REMARK    2  A    between atoms: CD_5  and  CG_6
REMARK    3  A    between atoms: CG_6  and  CB_7
REMARK    4  A    between atoms: CB_7  and  CA_8
REMARK    5  A    between atoms: CA_8  and  N_9
REMARK    6  A    between atoms: CA_8  and  C_10
REMARK    7  A    between atoms: N_12  and  CA_13
REMARK    8  A    between atoms: CA_13  and  CB_14
REMARK    9  A    between atoms: CA_13  and  C_21
REMARK   10  A    between atoms: CB_14  and  CG_15
REMARK   11  A    between atoms: CG_15  and  CD_16
REMARK   12  A    between atoms: CD_16  and  NE_17
REMARK   13  A    between atoms: N_23  and  CA_24
REMARK   14  A    between atoms: CA_24  and  CB_25
REMARK   15  A    between atoms: CA_24  and  C_32
REMARK   16  A    between atoms: CB_25  and  CG_26
REMARK   17  A    between atoms: CG_26  and  CD_27
REMARK   18  A    between atoms: CD_27  and  NE_28
REMARK   19  A    between atoms: C_32  and  OXT_34
REMARK                            x       y       z     vdW  Elec       q    Type
REMARK                         _______ _______ _______ _____ _____    ______ ____
ROOT
ATOM      1  CA  ARG A   2       3.523   6.826  17.335  0.00  0.00    +0.000 C 
ENDROOT
BRANCH   1   4
ATOM      2  C   ARG A   1       2.280   5.160  18.689  0.00  0.00    +0.000 C 
ATOM      3  O   ARG A   1       1.415   5.012  17.830  0.00  0.00    +0.000 OA
ATOM      4  N   ARG A   2       3.346   6.020  18.545  0.00  0.00    +0.000 N 
ATOM      5  H   ARG A   2       4.145   5.895  19.154  0.00  0.00    +0.000 HD
BRANCH   2   6
ATOM      6  CA  ARG A   1       2.297   4.318  19.988  0.00  0.00    +0.000 C 
BRANCH   6   7
ATOM      7  N   ARG A   1       1.991   5.206  21.131  0.00  0.00    +0.000 NA
ATOM      8  H1  ARG A   1       2.649   5.048  21.892  0.00  0.00    +0.000 HD
ATOM      9  H2  ARG A   1       1.071   4.955  21.498  0.00  0.00    +0.000 HD
ENDBRANCH   6   7
BRANCH   6  10
ATOM     10  CB  ARG A   1       1.301   3.154  19.992  0.00  0.00    +0.000 C 
BRANCH  10  11
ATOM     11  CG  ARG A   1       1.679   1.988  19.067  0.00  0.00    +0.000 C 
BRANCH  11  12
ATOM     12  CD  ARG A   1       3.198   1.796  19.097  0.00  0.00    +0.000 C 
BRANCH  12  16
ATOM     13  NH1 ARG A   1       5.455   3.573  18.764  0.00  0.00    +0.000 NA
ATOM     14  CZ  ARG A   1       4.868   3.022  17.766  0.00  0.00    +0.000 C 
ATOM     15  NH2 ARG A   1       5.212   3.263  16.485  0.00  0.00    +0.000 N 
ATOM     16  NE  ARG A   1       3.823   2.172  17.845  0.00  0.00    +0.000 N 
ATOM     17  HH1 ARG A   1       6.201   4.177  18.420  0.00  0.00    +0.000 HD
ATOM     18 HH21 ARG A   1       5.784   4.086  16.349  0.00  0.00    +0.000 HD
ATOM     19 HH22 ARG A   1       4.410   3.283  15.865  0.00  0.00    +0.000 HD
ATOM     20  HE  ARG A   1       3.755   1.485  17.105  0.00  0.00    +0.000 HD
ENDBRANCH  12  16
ENDBRANCH  11  12
ENDBRANCH  10  11
ENDBRANCH   6  10
ENDBRANCH   2   6
ENDBRANCH   1   4
BRANCH   1  21
ATOM     21  C   ARG A   2       4.971   6.645  16.840  0.00  0.00    +0.000 C 
ATOM     22  O   ARG A   2       5.269   6.572  15.652  0.00  0.00    +0.000 OA
ATOM     23  N   ARG A   3       5.914   6.718  17.837  0.00  0.00    +0.000 N 
ATOM     24  H   ARG A   3       5.612   6.817  18.806  0.00  0.00    +0.000 HD
BRANCH  23  25
ATOM     25  CA  ARG A   3       7.353   6.673  17.594  0.00  0.00    +0.000 C 
BRANCH  25  26
ATOM     26  C   ARG A   3       7.828   5.256  17.948  0.00  0.00    +0.000 C 
ATOM     27  O   ARG A   3       8.023   4.382  17.112  0.00  0.00    +0.000 OA
BRANCH  26  28
ATOM     28  OXT ARG A   3       8.039   5.046  19.265  0.00  0.00    +0.000 OA
ATOM     29  HXT ARG A   3       7.825   5.798  19.848  0.00  0.00    +0.000 HD
ENDBRANCH  26  28
ENDBRANCH  25  26
BRANCH  25  30
ATOM     30  CB  ARG A   3       8.097   7.769  18.377  0.00  0.00    +0.000 C 
BRANCH  30  31
ATOM     31  CG  ARG A   3       7.925   9.170  17.778  0.00  0.00    +0.000 C 
BRANCH  31  32
ATOM     32  CD  ARG A   3       9.064  10.113  18.168  0.00  0.00    +0.000 C 
BRANCH  32  33
ATOM     33  NE  ARG A   3       9.009  10.348  19.596  0.00  0.00    +0.000 N 
ATOM     34  CZ  ARG A   3       9.860  11.144  20.277  0.00  0.00    +0.000 C 
ATOM     35  NH1 ARG A   3      10.911  11.739  19.855  0.00  0.00    +0.000 NA
ATOM     36  NH2 ARG A   3       9.497  11.258  21.568  0.00  0.00    +0.000 N 
ATOM     37  HE  ARG A   3       8.067  10.404  19.971  0.00  0.00    +0.000 HD
ATOM     38  HH1 ARG A   3      11.041  11.548  18.863  0.00  0.00    +0.000 HD
ATOM     39 HH21 ARG A   3       9.297  10.361  21.990  0.00  0.00    +0.000 HD
ATOM     40 HH22 ARG A   3      10.236  11.731  22.080  0.00  0.00    +0.000 HD
ENDBRANCH  32  33
ENDBRANCH  31  32
ENDBRANCH  30  31
ENDBRANCH  25  30
ENDBRANCH  23  25
ENDBRANCH   1  21
BRANCH   1  41
ATOM     41  CB  ARG A   2       3.259   8.314  17.632  0.00  0.00    +0.000 C 
BRANCH  41  42
ATOM     42  CG  ARG A   2       1.781   8.690  17.739  0.00  0.00    +0.000 C 
BRANCH  42  43
ATOM     43  CD  ARG A   2       1.555   9.956  18.562  0.00  0.00    +0.000 C 
BRANCH  43  44
ATOM     44  NE  ARG A   2       2.087  11.100  17.848  0.00  0.00    +0.000 N 
ATOM     45  CZ  ARG A   2       2.181  12.333  18.392  0.00  0.00    +0.000 C 
ATOM     46  NH1 ARG A   2       1.961  12.694  19.598  0.00  0.00    +0.000 NA
ATOM     47  NH2 ARG A   2       2.584  13.238  17.483  0.00  0.00    +0.000 N 
ATOM     48  HE  ARG A   2       1.792  11.148  16.878  0.00  0.00    +0.000 HD
ATOM     49  HH1 ARG A   2       1.665  11.889  20.151  0.00  0.00    +0.000 HD
ATOM     50 HH21 ARG A   2       3.378  12.914  16.946  0.00  0.00    +0.000 HD
ATOM     51 HH22 ARG A   2       2.808  14.105  17.961  0.00  0.00    +0.000 HD
ENDBRANCH  43  44
ENDBRANCH  42  43
ENDBRANCH  41  42
ENDBRANCH   1  41
TORSDOF 19
ENDMDL
MODEL 2
REMARK VINA RESULT:      -7.2      2.918      7.434
REMARK  Name = 
REMARK  19 active torsions:
REMARK  status: ('A' for Active; 'I' for Inactive)
REMARK    1  A    between atoms: NE_4  and  CD_5
REMARK    2  A    between atoms: CD_5  and  CG_6
REMARK    3  A    between atoms: CG_6  and  CB_7
REMARK    4  A    between atoms: CB_7  and  CA_8
REMARK    5  A    between atoms: CA_8  and  N_9
REMARK    6  A    between atoms: CA_8  and  C_10
REMARK    7  A    between atoms: N_12  and  CA_13
REMARK    8  A    between atoms: CA_13  and  CB_14
REMARK    9  A    between atoms: CA_13  and  C_21
REMARK   10  A    between atoms: CB_14  and  CG_15
REMARK   11  A    between atoms: CG_15  and  CD_16
REMARK   12  A    between atoms: CD_16  and  NE_17
REMARK   13  A    between atoms: N_23  and  CA_24
REMARK   14  A    between atoms: CA_24  and  CB_25
REMARK   15  A    between atoms: CA_24  and  C_32
REMARK   16  A    between atoms: CB_25  and  CG_26
REMARK   17  A    between atoms: CG_26  and  CD_27
REMARK   18  A    between atoms: CD_27  and  NE_28
REMARK   19  A    between atoms: C_32  and  OXT_34
REMARK                            x       y       z     vdW  Elec       q    Type
REMARK                         _______ _______ _______ _____ _____    ______ ____
ROOT
ATOM      1  CA  ARG A   2       3.307   5.010  19.595  0.00  0.00    +0.000 C 
ENDROOT
BRANCH   1   4
ATOM      2  C   ARG A   1       5.781   4.959  19.417  0.00  0.00    +0.000 C 
ATOM      3  O   ARG A   1       5.801   3.762  19.146  0.00  0.00    +0.000 OA
ATOM      4  N   ARG A   2       4.618   5.658  19.654  0.00  0.00    +0.000 N 
ATOM      5  H   ARG A   2       4.651   6.669  19.603  0.00  0.00    +0.000 HD
BRANCH   2   6
ATOM      6  CA  ARG A   1       7.068   5.818  19.429  0.00  0.00    +0.000 C 
BRANCH   6   7
ATOM      7  N   ARG A   1       7.980   5.288  20.466  0.00  0.00    +0.000 NA
ATOM      8  H1  ARG A   1       8.932   5.233  20.110  0.00  0.00    +0.000 HD
ATOM      9  H2  ARG A   1       7.704   4.327  20.679  0.00  0.00    +0.000 HD
ENDBRANCH   6   7
BRANCH   6  10
ATOM     10  CB  ARG A   1       7.813   5.848  18.090  0.00  0.00    +0.000 C 
BRANCH  10  11
ATOM     11  CG  ARG A   1       7.269   6.868  17.080  0.00  0.00    +0.000 C 
BRANCH  11  12
ATOM     12  CD  ARG A   1       5.978   6.324  16.463  0.00  0.00    +0.000 C 
BRANCH  12  16
ATOM     13  NH1 ARG A   1       5.606   3.468  16.199  0.00  0.00    +0.000 NA
ATOM     14  CZ  ARG A   1       6.047   4.190  15.236  0.00  0.00    +0.000 C 
ATOM     15  NH2 ARG A   1       6.424   3.680  14.046  0.00  0.00    +0.000 N 
ATOM     16  NE  ARG A   1       6.230   5.527  15.280  0.00  0.00    +0.000 N 
ATOM     17  HH1 ARG A   1       5.579   2.494  15.901  0.00  0.00    +0.000 HD
ATOM     18 HH21 ARG A   1       6.577   2.680  14.045  0.00  0.00    +0.000 HD
ATOM     19 HH22 ARG A   1       7.226   4.160  13.654  0.00  0.00    +0.000 HD
ATOM     20  HE  ARG A   1       6.129   6.016  14.400  0.00  0.00    +0.000 HD
ENDBRANCH  12  16
ENDBRANCH  11  12
ENDBRANCH  10  11
ENDBRANCH   6  10
ENDBRANCH   2   6
ENDBRANCH   1   4
BRANCH   1  21
ATOM     21  C   ARG A   2       2.317   5.979  18.921  0.00  0.00    +0.000 C 
ATOM     22  O   ARG A   2       1.477   5.619  18.102  0.00  0.00    +0.000 OA
ATOM     23  N   ARG A   3       2.358   7.258  19.425  0.00  0.00    +0.000 N 
ATOM     24  H   ARG A   3       3.052   7.494  20.133  0.00  0.00    +0.000 HD
BRANCH  23  25
ATOM     25  CA  ARG A   3       1.446   8.320  19.011  0.00  0.00    +0.000 C 
BRANCH  25  26
ATOM     26  C   ARG A   3       2.081   9.013  17.796  0.00  0.00    +0.000 C 
ATOM     27  O   ARG A   3       2.943   8.492  17.098  0.00  0.00    +0.000 OA
BRANCH  26  28
ATOM     28  OXT ARG A   3       1.597  10.246  17.536  0.00  0.00    +0.000 OA
ATOM     29  HXT ARG A   3       1.272  10.740  18.311  0.00  0.00    +0.000 HD
ENDBRANCH  26  28
ENDBRANCH  25  26
BRANCH  25  30
ATOM     30  CB  ARG A   3       1.143   9.291  20.165  0.00  0.00    +0.000 C 
BRANCH  30  31
ATOM     31  CG  ARG A   3      -0.351   9.589  20.334  0.00  0.00    +0.000 C 
BRANCH  31  32
ATOM     32  CD  ARG A   3      -0.629  11.082  20.517  0.00  0.00    +0.000 C 
BRANCH  32  33
ATOM     33  NE  ARG A   3      -0.433  11.754  19.248  0.00  0.00    +0.000 N 
ATOM     34  CZ  ARG A   3      -1.428  12.196  18.451  0.00  0.00    +0.000 C 
ATOM     35  NH1 ARG A   3      -2.689  12.027  18.575  0.00  0.00    +0.000 NA
ATOM     36  NH2 ARG A   3      -0.942  12.878  17.397  0.00  0.00    +0.000 N 
ATOM     37  HE  ARG A   3       0.365  12.383  19.232  0.00  0.00    +0.000 HD
ATOM     38  HH1 ARG A   3      -2.883  11.492  19.420  0.00  0.00    +0.000 HD
ATOM     39 HH21 ARG A   3      -0.192  12.384  16.933  0.00  0.00    +0.000 HD
ATOM     40 HH22 ARG A   3      -1.699  13.060  16.743  0.00  0.00    +0.000 HD
ENDBRANCH  32  33
ENDBRANCH  31  32
ENDBRANCH  30  31
ENDBRANCH  25  30
ENDBRANCH  23  25
ENDBRANCH   1  21
BRANCH   1  41
ATOM     41  CB  ARG A   2       2.810   4.661  21.010  0.00  0.00    +0.000 C 
BRANCH  41  42
ATOM     42  CG  ARG A   2       1.561   3.779  21.048  0.00  0.00    +0.000 C 
BRANCH  42  43
ATOM     43  CD  ARG A   2       1.817   2.377  20.501  0.00  0.00    +0.000 C 
BRANCH  43  44
ATOM     44  NE  ARG A   2       1.835   2.417  19.053  0.00  0.00    +0.000 N 
ATOM     45  CZ  ARG A   2       2.887   2.000  18.314  0.00  0.00    +0.000 C 
ATOM     46  NH1 ARG A   2       3.951   1.408  18.702  0.00  0.00    +0.000 NA
ATOM     47  NH2 ARG A   2       2.701   2.263  17.008  0.00  0.00    +0.000 N 
ATOM     48  HE  ARG A   2       1.422   3.258  18.663  0.00  0.00    +0.000 HD
ATOM     49  HH1 ARG A   2       3.931   1.288  19.715  0.00  0.00    +0.000 HD
ATOM     50 HH21 ARG A   2       1.781   1.987  16.690  0.00  0.00    +0.000 HD
ATOM     51 HH22 ARG A   2       3.420   1.787  16.474  0.00  0.00    +0.000 HD
ENDBRANCH  43  44
ENDBRANCH  42  43
ENDBRANCH  41  42
ENDBRANCH   1  41
TORSDOF 19
ENDMDL
MODEL 3
REMARK VINA RESULT:      -7.1      3.409      7.822
REMARK  Name = 
REMARK  19 active torsions:
REMARK  status: ('A' for Active; 'I' for Inactive)
REMARK    1  A    between atoms: NE_4  and  CD_5
REMARK    2  A    between atoms: CD_5  and  CG_6
REMARK    3  A    between atoms: CG_6  and  CB_7
REMARK    4  A    between atoms: CB_7  and  CA_8
REMARK    5  A    between atoms: CA_8  and  N_9
REMARK    6  A    between atoms: CA_8  and  C_10
REMARK    7  A    between atoms: N_12  and  CA_13
REMARK    8  A    between atoms: CA_13  and  CB_14
REMARK    9  A    between atoms: CA_13  and  C_21
REMARK   10  A    between atoms: CB_14  and  CG_15
REMARK   11  A    between atoms: CG_15  and  CD_16
REMARK   12  A    between atoms: CD_16  and  NE_17
REMARK   13  A    between atoms: N_23  and  CA_24
REMARK   14  A    between atoms: CA_24  and  CB_25
REMARK   15  A    between atoms: CA_24  and  C_32
REMARK   16  A    between atoms: CB_25  and  CG_26
REMARK   17  A    between atoms: CG_26  and  CD_27
REMARK   18  A    between atoms: CD_27  and  NE_28
REMARK   19  A    between atoms: C_32  and  OXT_34
REMARK                            x       y       z     vdW  Elec       q    Type
REMARK                         _______ _______ _______ _____ _____    ______ ____
ROOT
ATOM      1  CA  ARG A   2       2.780   6.521  19.523  0.00  0.00    +0.000 C 
ENDROOT
BRANCH   1   4
ATOM      2  C   ARG A   1       1.484   8.590  19.967  0.00  0.00    +0.000 C 
ATOM      3  O   ARG A   1       1.407   8.360  21.171  0.00  0.00    +0.000 OA
ATOM      4  N   ARG A   2       2.130   7.756  19.081  0.00  0.00    +0.000 N 
ATOM      5  H   ARG A   2       2.385   8.130  18.175  0.00  0.00    +0.000 HD
BRANCH   2   6
ATOM      6  CA  ARG A   1       0.934   9.896  19.347  0.00  0.00    +0.000 C 
BRANCH   6   7
ATOM      7  N   ARG A   1       0.477   9.609  17.970  0.00  0.00    +0.000 NA
ATOM      8  H1  ARG A   1       0.072  10.442  17.546  0.00  0.00    +0.000 HD
ATOM      9  H2  ARG A   1      -0.279   8.922  18.016  0.00  0.00    +0.000 HD
ENDBRANCH   6   7
BRANCH   6  10
ATOM     10  CB  ARG A   1      -0.227  10.520  20.128  0.00  0.00    +0.000 C 
BRANCH  10  11
ATOM     11  CG  ARG A   1      -0.620  11.931  19.668  0.00  0.00    +0.000 C 
BRANCH  11  12
ATOM     12  CD  ARG A   1      -2.098  11.936  19.268  0.00  0.00    +0.000 C 
BRANCH  12  16
ATOM     13  NH1 ARG A   1      -2.687   9.816  17.391  0.00  0.00    +0.000 NA
ATOM     14  CZ  ARG A   1      -2.536  11.034  17.019  0.00  0.00    +0.000 C 
ATOM     15  NH2 ARG A   1      -2.583  11.420  15.727  0.00  0.00    +0.000 N 
ATOM     16  NE  ARG A   1      -2.276  12.076  17.836  0.00  0.00    +0.000 N 
ATOM     17  HH1 ARG A   1      -2.859   9.236  16.570  0.00  0.00    +0.000 HD
ATOM     18 HH21 ARG A   1      -2.492  10.668  15.058  0.00  0.00    +0.000 HD
ATOM     19 HH22 ARG A   1      -1.922  12.160  15.519  0.00  0.00    +0.000 HD
ATOM     20  HE  ARG A   1      -2.624  12.975  17.530  0.00  0.00    +0.000 HD
ENDBRANCH  12  16
ENDBRANCH  11  12
ENDBRANCH  10  11
ENDBRANCH   6  10
ENDBRANCH   2   6
ENDBRANCH   1   4
BRANCH   1  21
ATOM     21  C   ARG A   2       3.953   6.224  18.570  0.00  0.00    +0.000 C 
ATOM     22  O   ARG A   2       4.149   6.849  17.532  0.00  0.00    +0.000 OA
ATOM     23  N   ARG A   3       4.844   5.296  19.055  0.00  0.00    +0.000 N 
ATOM     24  H   ARG A   3       4.651   4.833  19.942  0.00  0.00    +0.000 HD
BRANCH  23  25
ATOM     25  CA  ARG A   3       6.081   4.929  18.372  0.00  0.00    +0.000 C 
BRANCH  25  26
ATOM     26  C   ARG A   3       7.193   5.825  18.939  0.00  0.00    +0.000 C 
ATOM     27  O   ARG A   3       7.660   6.783  18.334  0.00  0.00    +0.000 OA
BRANCH  26  28
ATOM     28  OXT ARG A   3       7.609   5.489  20.179  0.00  0.00    +0.000 OA
ATOM     29  HXT ARG A   3       8.525   5.159  20.238  0.00  0.00    +0.000 HD
ENDBRANCH  26  28
ENDBRANCH  25  26
BRANCH  25  30
ATOM     30  CB  ARG A   3       5.942   5.040  16.844  0.00  0.00    +0.000 C 
BRANCH  30  31
ATOM     31  CG  ARG A   3       7.020   4.265  16.076  0.00  0.00    +0.000 C 
BRANCH  31  32
ATOM     32  CD  ARG A   3       7.091   4.672  14.604  0.00  0.00    +0.000 C 
BRANCH  32  33
ATOM     33  NE  ARG A   3       6.387   3.684  13.811  0.00  0.00    +0.000 N 
ATOM     34  CZ  ARG A   3       6.537   3.520  12.480  0.00  0.00    +0.000 C 
ATOM     35  NH1 ARG A   3       7.206   4.232  11.655  0.00  0.00    +0.000 NA
ATOM     36  NH2 ARG A   3       5.842   2.455  12.038  0.00  0.00    +0.000 N 
ATOM     37  HE  ARG A   3       6.250   2.796  14.283  0.00  0.00    +0.000 HD
ATOM     38  HH1 ARG A   3       7.667   4.992  12.151  0.00  0.00    +0.000 HD
ATOM     39 HH21 ARG A   3       4.890   2.451  12.379  0.00  0.00    +0.000 HD
ATOM     40 HH22 ARG A   3       5.851   2.452  11.022  0.00  0.00    +0.000 HD
ENDBRANCH  32  33
ENDBRANCH  31  32
ENDBRANCH  30  31
ENDBRANCH  25  30
ENDBRANCH  23  25
ENDBRANCH   1  21
BRANCH   1  41
ATOM     41  CB  ARG A   2       1.784   5.347  19.502  0.00  0.00    +0.000 C 
BRANCH  41  42
ATOM     42  CG  ARG A   2       1.624   4.622  20.838  0.00  0.00    +0.000 C 
BRANCH  42  43
ATOM     43  CD  ARG A   2       1.726   3.105  20.699  0.00  0.00    +0.000 C 
BRANCH  43  44
ATOM     44  NE  ARG A   2       3.110   2.697  20.833  0.00  0.00    +0.000 N 
ATOM     45  CZ  ARG A   2       3.859   2.269  19.793  0.00  0.00    +0.000 C 
ATOM     46  NH1 ARG A   2       3.568   2.259  18.549  0.00  0.00    +0.000 NA
ATOM     47  NH2 ARG A   2       5.062   1.830  20.206  0.00  0.00    +0.000 N 
ATOM     48  HE  ARG A   2       3.296   2.152  21.668  0.00  0.00    +0.000 HD
ATOM     49  HH1 ARG A   2       2.624   2.622  18.412  0.00  0.00    +0.000 HD
ATOM     50 HH21 ARG A   2       5.502   2.473  20.852  0.00  0.00    +0.000 HD
ATOM     51 HH22 ARG A   2       5.652   1.683  19.393  0.00  0.00    +0.000 HD
ENDBRANCH  43  44
ENDBRANCH  42  43
ENDBRANCH  41  42
ENDBRANCH   1  41
TORSDOF 19
ENDMDL
MODEL 4
REMARK VINA RESULT:      -7.0      2.346      6.585
REMARK  Name = 
REMARK  19 active torsions:
REMARK  status: ('A' for Active; 'I' for Inactive)
REMARK    1  A    between atoms: NE_4  and  CD_5
REMARK    2  A    between atoms: CD_5  and  CG_6
REMARK    3  A    between atoms: CG_6  and  CB_7
REMARK    4  A    between atoms: CB_7  and  CA_8
REMARK    5  A    between atoms: CA_8  and  N_9
REMARK    6  A    between atoms: CA_8  and  C_10
REMARK    7  A    between atoms: N_12  and  CA_13
REMARK    8  A    between atoms: CA_13  and  CB_14
REMARK    9  A    between atoms: CA_13  and  C_21
REMARK   10  A    between atoms: CB_14  and  CG_15
REMARK   11  A    between atoms: CG_15  and  CD_16
REMARK   12  A    between atoms: CD_16  and  NE_17
REMARK   13  A    between atoms: N_23  and  CA_24
REMARK   14  A    between atoms: CA_24  and  CB_25
REMARK   15  A    between atoms: CA_24  and  C_32
REMARK   16  A    between atoms: CB_25  and  CG_26
REMARK   17  A    between atoms: CG_26  and  CD_27
REMARK   18  A    between atoms: CD_27  and  NE_28
REMARK   19  A    between atoms: C_32  and  OXT_34
REMARK                            x       y       z     vdW  Elec       q    Type
REMARK                         _______ _______ _______ _____ _____    ______ ____
ROOT
ATOM      1  CA  ARG A   2       2.840   5.988  19.307  0.00  0.00    +0.000 C 
ENDROOT
BRANCH   1   4
ATOM      2  C   ARG A   1       1.715   8.173  19.645  0.00  0.00    +0.000 C 
ATOM      3  O   ARG A   1       1.383   7.897  20.794  0.00  0.00    +0.000 OA
ATOM      4  N   ARG A   2       2.425   7.311  18.839  0.00  0.00    +0.000 N 
ATOM      5  H   ARG A   2       2.890   7.695  18.024  0.00  0.00    +0.000 HD
BRANCH   2   6
ATOM      6  CA  ARG A   1       1.440   9.564  19.025  0.00  0.00    +0.000 C 
BRANCH   6   7
ATOM      7  N   ARG A   1       1.453   9.436  17.552  0.00  0.00    +0.000 NA
ATOM      8  H1  ARG A   1       0.525   9.204  17.205  0.00  0.00    +0.000 HD
ATOM      9  H2  ARG A   1       2.052   8.646  17.301  0.00  0.00    +0.000 HD
ENDBRANCH   6   7
BRANCH   6  10
ATOM     10  CB  ARG A   1       0.106  10.186  19.451  0.00  0.00    +0.000 C 
BRANCH  10  11
ATOM     11  CG  ARG A   1       0.099  11.721  19.479  0.00  0.00    +0.000 C 
BRANCH  11  12
ATOM     12  CD  ARG A   1      -1.032  12.234  18.582  0.00  0.00    +0.000 C 
BRANCH  12  16
ATOM     13  NH1 ARG A   1      -3.526  11.789  17.189  0.00  0.00    +0.000 NA
ATOM     14  CZ  ARG A   1      -2.434  11.222  16.830  0.00  0.00    +0.000 C 
ATOM     15  NH2 ARG A   1      -2.365  10.334  15.817  0.00  0.00    +0.000 N 
ATOM     16  NE  ARG A   1      -1.232  11.393  17.419  0.00  0.00    +0.000 N 
ATOM     17  HH1 ARG A   1      -4.282  11.473  16.582  0.00  0.00    +0.000 HD
ATOM     18 HH21 ARG A   1      -3.256   9.955  15.525  0.00  0.00    +0.000 HD
ATOM     19 HH22 ARG A   1      -1.705   9.586  16.000  0.00  0.00    +0.000 HD
ATOM     20  HE  ARG A   1      -0.426  11.288  16.818  0.00  0.00    +0.000 HD
ENDBRANCH  12  16
ENDBRANCH  11  12
ENDBRANCH  10  11
ENDBRANCH   6  10
ENDBRANCH   2   6
ENDBRANCH   1   4
BRANCH   1  21
ATOM     21  C   ARG A   2       4.343   5.819  19.012  0.00  0.00    +0.000 C 
ATOM     22  O   ARG A   2       5.123   5.280  19.792  0.00  0.00    +0.000 OA
ATOM     23  N   ARG A   3       4.708   6.194  17.741  0.00  0.00    +0.000 N 
ATOM     24  H   ARG A   3       4.010   6.602  17.120  0.00  0.00    +0.000 HD
BRANCH  23  25
ATOM     25  CA  ARG A   3       6.056   6.031  17.205  0.00  0.00    +0.000 C 
BRANCH  25  26
ATOM     26  C   ARG A   3       6.312   4.521  17.077  0.00  0.00    +0.000 C 
ATOM     27  O   ARG A   3       5.879   3.841  16.155  0.00  0.00    +0.000 OA
BRANCH  26  28
ATOM     28  OXT ARG A   3       7.079   3.996  18.057  0.00  0.00    +0.000 OA
ATOM     29  HXT ARG A   3       7.565   4.644  18.601  0.00  0.00    +0.000 HD
ENDBRANCH  26  28
ENDBRANCH  25  26
BRANCH  25  30
ATOM     30  CB  ARG A   3       7.104   6.746  18.075  0.00  0.00    +0.000 C 
BRANCH  30  31
ATOM     31  CG  ARG A   3       7.903   7.811  17.315  0.00  0.00    +0.000 C 
BRANCH  31  32
ATOM     32  CD  ARG A   3       7.661   9.219  17.859  0.00  0.00    +0.000 C 
BRANCH  32  33
ATOM     33  NE  ARG A   3       8.848   9.660  18.563  0.00  0.00    +0.000 N 
ATOM     34  CZ  ARG A   3       9.332  10.920  18.537  0.00  0.00    +0.000 C 
ATOM     35  NH1 ARG A   3       8.940  11.915  17.836  0.00  0.00    +0.000 NA
ATOM     36  NH2 ARG A   3      10.378  11.058  19.373  0.00  0.00    +0.000 N 
ATOM     37  HE  ARG A   3       8.971   9.232  19.475  0.00  0.00    +0.000 HD
ATOM     38  HH1 ARG A   3       8.145  11.640  17.261  0.00  0.00    +0.000 HD
ATOM     39 HH21 ARG A   3      11.060  10.320  19.259  0.00  0.00    +0.000 HD
ATOM     40 HH22 ARG A   3      10.811  11.964  19.216  0.00  0.00    +0.000 HD
ENDBRANCH  32  33
ENDBRANCH  31  32
ENDBRANCH  30  31
ENDBRANCH  25  30
ENDBRANCH  23  25
ENDBRANCH   1  21
BRANCH   1  41
ATOM     41  CB  ARG A   2       2.043   4.884  18.587  0.00  0.00    +0.000 C 
BRANCH  41  42
ATOM     42  CG  ARG A   2       1.085   4.101  19.486  0.00  0.00    +0.000 C 
BRANCH  42  43
ATOM     43  CD  ARG A   2       1.617   2.715  19.843  0.00  0.00    +0.000 C 
BRANCH  43  44
ATOM     44  NE  ARG A   2       3.054   2.778  20.020  0.00  0.00    +0.000 N 
ATOM     45  CZ  ARG A   2       3.923   2.046  19.287  0.00  0.00    +0.000 C 
ATOM     46  NH1 ARG A   2       3.685   1.301  18.276  0.00  0.00    +0.000 NA
ATOM     47  NH2 ARG A   2       5.182   2.191  19.735  0.00  0.00    +0.000 N 
ATOM     48  HE  ARG A   2       3.345   2.828  20.991  0.00  0.00    +0.000 HD
ATOM     49  HH1 ARG A   2       2.685   1.302  18.072  0.00  0.00    +0.000 HD
ATOM     50 HH21 ARG A   2       5.422   3.161  19.892  0.00  0.00    +0.000 HD
ATOM     51 HH22 ARG A   2       5.818   1.772  19.063  0.00  0.00    +0.000 HD
ENDBRANCH  43  44
ENDBRANCH  42  43
ENDBRANCH  41  42
ENDBRANCH   1  41
TORSDOF 19
ENDMDL
MODEL 5
REMARK VINA RESULT:      -7.0      2.193      6.356
REMARK  Name = 
REMARK  19 active torsions:
REMARK  status: ('A' for Active; 'I' for Inactive)
REMARK    1  A    between atoms: NE_4  and  CD_5
REMARK    2  A    between atoms: CD_5  and  CG_6
REMARK    3  A    between atoms: CG_6  and  CB_7
REMARK    4  A    between atoms: CB_7  and  CA_8
REMARK    5  A    between atoms: CA_8  and  N_9
REMARK    6  A    between atoms: CA_8  and  C_10
REMARK    7  A    between atoms: N_12  and  CA_13
REMARK    8  A    between atoms: CA_13  and  CB_14
REMARK    9  A    between atoms: CA_13  and  C_21
REMARK   10  A    between atoms: CB_14  and  CG_15
REMARK   11  A    between atoms: CG_15  and  CD_16
REMARK   12  A    between atoms: CD_16  and  NE_17
REMARK   13  A    between atoms: N_23  and  CA_24
REMARK   14  A    between atoms: CA_24  and  CB_25
REMARK   15  A    between atoms: CA_24  and  C_32
REMARK   16  A    between atoms: CB_25  and  CG_26
REMARK   17  A    between atoms: CG_26  and  CD_27
REMARK   18  A    between atoms: CD_27  and  NE_28
REMARK   19  A    between atoms: C_32  and  OXT_34
REMARK                            x       y       z     vdW  Elec       q    Type
REMARK                         _______ _______ _______ _____ _____    ______ ____
ROOT
ATOM      1  CA  ARG A   2       3.090   5.915  19.199  0.00  0.00    +0.000 C 
ENDROOT
BRANCH   1   4
ATOM      2  C   ARG A   1       2.006   8.142  19.334  0.00  0.00    +0.000 C 
ATOM      3  O   ARG A   1       1.684   7.985  20.508  0.00  0.00    +0.000 OA
ATOM      4  N   ARG A   2       2.691   7.193  18.608  0.00  0.00    +0.000 N 
ATOM      5  H   ARG A   2       3.151   7.487  17.755  0.00  0.00    +0.000 HD
BRANCH   2   6
ATOM      6  CA  ARG A   1       1.745   9.470  18.584  0.00  0.00    +0.000 C 
BRANCH   6   7
ATOM      7  N   ARG A   1       2.159   9.306  17.174  0.00  0.00    +0.000 NA
ATOM      8  H1  ARG A   1       1.394   9.545  16.546  0.00  0.00    +0.000 HD
ATOM      9  H2  ARG A   1       2.359   8.316  17.008  0.00  0.00    +0.000 HD
ENDBRANCH   6   7
BRANCH   6  10
ATOM     10  CB  ARG A   1       0.285   9.931  18.616  0.00  0.00    +0.000 C 
BRANCH  10  11
ATOM     11  CG  ARG A   1       0.086  11.391  19.047  0.00  0.00    +0.000 C 
BRANCH  11  12
ATOM     12  CD  ARG A   1      -0.701  11.424  20.360  0.00  0.00    +0.000 C 
BRANCH  12  16
ATOM     13  NH1 ARG A   1      -0.716  11.229  23.245  0.00  0.00    +0.000 NA
ATOM     14  CZ  ARG A   1      -0.512  10.210  22.494  0.00  0.00    +0.000 C 
ATOM     15  NH2 ARG A   1      -0.235   8.982  22.979  0.00  0.00    +0.000 N 
ATOM     16  NE  ARG A   1      -0.507  10.221  21.145  0.00  0.00    +0.000 N 
ATOM     17  HH1 ARG A   1      -0.651  10.942  24.221  0.00  0.00    +0.000 HD
ATOM     18 HH21 ARG A   1       0.050   8.965  23.949  0.00  0.00    +0.000 HD
ATOM     19 HH22 ARG A   1       0.433   8.480  22.405  0.00  0.00    +0.000 HD
ATOM     20  HE  ARG A   1      -0.792   9.361  20.695  0.00  0.00    +0.000 HD
ENDBRANCH  12  16
ENDBRANCH  11  12
ENDBRANCH  10  11
ENDBRANCH   6  10
ENDBRANCH   2   6
ENDBRANCH   1   4
BRANCH   1  21
ATOM     21  C   ARG A   2       4.209   5.308  18.331  0.00  0.00    +0.000 C 
ATOM     22  O   ARG A   2       4.055   4.302  17.645  0.00  0.00    +0.000 OA
ATOM     23  N   ARG A   3       5.350   6.073  18.278  0.00  0.00    +0.000 N 
ATOM     24  H   ARG A   3       5.410   6.922  18.840  0.00  0.00    +0.000 HD
BRANCH  23  25
ATOM     25  CA  ARG A   3       6.502   5.750  17.442  0.00  0.00    +0.000 C 
BRANCH  25  26
ATOM     26  C   ARG A   3       7.496   4.975  18.321  0.00  0.00    +0.000 C 
ATOM     27  O   ARG A   3       7.603   5.148  19.529  0.00  0.00    +0.000 OA
BRANCH  26  28
ATOM     28  OXT ARG A   3       8.238   4.061  17.660  0.00  0.00    +0.000 OA
ATOM     29  HXT ARG A   3       7.893   3.793  16.788  0.00  0.00    +0.000 HD
ENDBRANCH  26  28
ENDBRANCH  25  26
BRANCH  25  30
ATOM     30  CB  ARG A   3       7.117   7.009  16.808  0.00  0.00    +0.000 C 
BRANCH  30  31
ATOM     31  CG  ARG A   3       7.080   8.235  17.728  0.00  0.00    +0.000 C 
BRANCH  31  32
ATOM     32  CD  ARG A   3       8.455   8.568  18.309  0.00  0.00    +0.000 C 
BRANCH  32  33
ATOM     33  NE  ARG A   3       8.744   9.965  18.055  0.00  0.00    +0.000 N 
ATOM     34  CZ  ARG A   3       9.250  10.822  18.967  0.00  0.00    +0.000 C 
ATOM     35  NH1 ARG A   3       9.464  10.632  20.213  0.00  0.00    +0.000 NA
ATOM     36  NH2 ARG A   3       9.518  12.021  18.415  0.00  0.00    +0.000 N 
ATOM     37  HE  ARG A   3       9.111  10.151  17.127  0.00  0.00    +0.000 HD
ATOM     38  HH1 ARG A   3       9.207   9.679  20.465  0.00  0.00    +0.000 HD
ATOM     39 HH21 ARG A   3       8.746  12.369  17.861  0.00  0.00    +0.000 HD
ATOM     40 HH22 ARG A   3       9.747  12.681  19.152  0.00  0.00    +0.000 HD
ENDBRANCH  32  33
ENDBRANCH  31  32
ENDBRANCH  30  31
ENDBRANCH  25  30
ENDBRANCH  23  25
ENDBRANCH   1  21
BRANCH   1  41
ATOM     41  CB  ARG A   2       1.894   4.946  19.254  0.00  0.00    +0.000 C 
BRANCH  41  42
ATOM     42  CG  ARG A   2       1.599   4.377  20.642  0.00  0.00    +0.000 C 
BRANCH  42  43
ATOM     43  CD  ARG A   2       2.534   3.229  21.017  0.00  0.00    +0.000 C 
BRANCH  43  44
ATOM     44  NE  ARG A   2       2.680   2.335  19.886  0.00  0.00    +0.000 N 
ATOM     45  CZ  ARG A   2       3.879   1.922  19.419  0.00  0.00    +0.000 C 
ATOM     46  NH1 ARG A   2       5.040   2.116  19.917  0.00  0.00    +0.000 NA
ATOM     47  NH2 ARG A   2       3.743   1.206  18.289  0.00  0.00    +0.000 N 
ATOM     48  HE  ARG A   2       2.037   2.529  19.126  0.00  0.00    +0.000 HD
ATOM     49  HH1 ARG A   2       4.964   2.675  20.766  0.00  0.00    +0.000 HD
ATOM     50 HH21 ARG A   2       3.018   0.505  18.366  0.00  0.00    +0.000 HD
ATOM     51 HH22 ARG A   2       4.634   0.773  18.067  0.00  0.00    +0.000 HD
ENDBRANCH  43  44
ENDBRANCH  42  43
ENDBRANCH  41  42
ENDBRANCH   1  41
TORSDOF 19
ENDMDL
MODEL 6
REMARK VINA RESULT:      -7.0      1.602      1.942
REMARK  Name = 
REMARK  19 active torsions:
REMARK  status: ('A' for Active; 'I' for Inactive)
REMARK    1  A    between atoms: NE_4  and  CD_5
REMARK    2  A    between atoms: CD_5  and  CG_6
REMARK    3  A    between atoms: CG_6  and  CB_7
REMARK    4  A    between atoms: CB_7  and  CA_8
REMARK    5  A    between atoms: CA_8  and  N_9
REMARK    6  A    between atoms: CA_8  and  C_10
REMARK    7  A    between atoms: N_12  and  CA_13
REMARK    8  A    between atoms: CA_13  and  CB_14
REMARK    9  A    between atoms: CA_13  and  C_21
REMARK   10  A    between atoms: CB_14  and  CG_15
REMARK   11  A    between atoms: CG_15  and  CD_16
REMARK   12  A    between atoms: CD_16  and  NE_17
REMARK   13  A    between atoms: N_23  and  CA_24
REMARK   14  A    between atoms: CA_24  and  CB_25
REMARK   15  A    between atoms: CA_24  and  C_32
REMARK   16  A    between atoms: CB_25  and  CG_26
REMARK   17  A    between atoms: CG_26  and  CD_27
REMARK   18  A    between atoms: CD_27  and  NE_28
REMARK   19  A    between atoms: C_32  and  OXT_34
REMARK                            x       y       z     vdW  Elec       q    Type
REMARK                         _______ _______ _______ _____ _____    ______ ____
ROOT
ATOM      1  CA  ARG A   2       2.999   6.036  17.519  0.00  0.00    +0.000 C 
ENDROOT
BRANCH   1   4
ATOM      2  C   ARG A   1       1.288   4.300  17.981  0.00  0.00    +0.000 C 
ATOM      3  O   ARG A   1       0.827   4.360  16.845  0.00  0.00    +0.000 OA
ATOM      4  N   ARG A   2       2.344   5.075  18.408  0.00  0.00    +0.000 N 
ATOM      5  H   ARG A   2       2.836   4.789  19.245  0.00  0.00    +0.000 HD
BRANCH   2   6
ATOM      6  CA  ARG A   1       0.776   3.273  19.019  0.00  0.00    +0.000 C 
BRANCH   6   7
ATOM      7  N   ARG A   1       1.433   1.973  18.763  0.00  0.00    +0.000 NA
ATOM      8  H1  ARG A   1       0.799   1.339  18.281  0.00  0.00    +0.000 HD
ATOM      9  H2  ARG A   1       1.641   1.533  19.662  0.00  0.00    +0.000 HD
ENDBRANCH   6   7
BRANCH   6  10
ATOM     10  CB  ARG A   1       1.032   3.673  20.475  0.00  0.00    +0.000 C 
BRANCH  10  11
ATOM     11  CG  ARG A   1       1.416   2.508  21.399  0.00  0.00    +0.000 C 
BRANCH  11  12
ATOM     12  CD  ARG A   1       2.920   2.566  21.682  0.00  0.00    +0.000 C 
BRANCH  12  16
ATOM     13  NH1 ARG A   1       5.190   1.239  20.477  0.00  0.00    +0.000 NA
ATOM     14  CZ  ARG A   1       4.737   2.354  20.034  0.00  0.00    +0.000 C 
ATOM     15  NH2 ARG A   1       5.308   3.027  19.014  0.00  0.00    +0.000 N 
ATOM     16  NE  ARG A   1       3.676   3.022  20.533  0.00  0.00    +0.000 N 
ATOM     17  HH1 ARG A   1       6.003   0.967  19.927  0.00  0.00    +0.000 HD
ATOM     18 HH21 ARG A   1       6.249   2.732  18.788  0.00  0.00    +0.000 HD
ATOM     19 HH22 ARG A   1       5.274   4.032  19.144  0.00  0.00    +0.000 HD
ATOM     20  HE  ARG A   1       3.159   3.587  19.872  0.00  0.00    +0.000 HD
ENDBRANCH  12  16
ENDBRANCH  11  12
ENDBRANCH  10  11
ENDBRANCH   6  10
ENDBRANCH   2   6
ENDBRANCH   1   4
BRANCH   1  21
ATOM     21  C   ARG A   2       4.421   5.526  17.217  0.00  0.00    +0.000 C 
ATOM     22  O   ARG A   2       4.645   4.522  16.547  0.00  0.00    +0.000 OA
ATOM     23  N   ARG A   3       5.418   6.371  17.641  0.00  0.00    +0.000 N 
ATOM     24  H   ARG A   3       5.173   7.213  18.161  0.00  0.00    +0.000 HD
BRANCH  23  25
ATOM     25  CA  ARG A   3       6.836   6.145  17.378  0.00  0.00    +0.000 C 
BRANCH  25  26
ATOM     26  C   ARG A   3       7.386   5.316  18.548  0.00  0.00    +0.000 C 
ATOM     27  O   ARG A   3       8.323   4.533  18.437  0.00  0.00    +0.000 OA
BRANCH  26  28
ATOM     28  OXT ARG A   3       6.769   5.531  19.729  0.00  0.00    +0.000 OA
ATOM     29  HXT ARG A   3       6.616   6.467  19.957  0.00  0.00    +0.000 HD
ENDBRANCH  26  28
ENDBRANCH  25  26
BRANCH  25  30
ATOM     30  CB  ARG A   3       7.594   7.467  17.170  0.00  0.00    +0.000 C 
BRANCH  30  31
ATOM     31  CG  ARG A   3       8.308   7.965  18.432  0.00  0.00    +0.000 C 
BRANCH  31  32
ATOM     32  CD  ARG A   3       8.688   9.444  18.340  0.00  0.00    +0.000 C 
BRANCH  32  33
ATOM     33  NE  ARG A   3       8.987   9.934  19.670  0.00  0.00    +0.000 N 
ATOM     34  CZ  ARG A   3       9.795  10.981  19.939  0.00  0.00    +0.000 C 
ATOM     35  NH1 ARG A   3      10.524  11.658  19.135  0.00  0.00    +0.000 NA
ATOM     36  NH2 ARG A   3       9.794  11.274  21.253  0.00  0.00    +0.000 N 
ATOM     37  HE  ARG A   3       8.201   9.896  20.312  0.00  0.00    +0.000 HD
ATOM     38  HH1 ARG A   3      10.409  11.306  18.186  0.00  0.00    +0.000 HD
ATOM     39 HH21 ARG A   3       9.928  10.454  21.829  0.00  0.00    +0.000 HD
ATOM     40 HH22 ARG A   3      10.523  11.957  21.440  0.00  0.00    +0.000 HD
ENDBRANCH  32  33
ENDBRANCH  31  32
ENDBRANCH  30  31
ENDBRANCH  25  30
ENDBRANCH  23  25
ENDBRANCH   1  21
BRANCH   1  41
ATOM     41  CB  ARG A   2       3.075   7.423  18.183  0.00  0.00    +0.000 C 
BRANCH  41  42
ATOM     42  CG  ARG A   2       2.008   8.413  17.715  0.00  0.00    +0.000 C 
BRANCH  42  43
ATOM     43  CD  ARG A   2       1.676   9.462  18.774  0.00  0.00    +0.000 C 
BRANCH  43  44
ATOM     44  NE  ARG A   2       0.895  10.526  18.176  0.00  0.00    +0.000 N 
ATOM     45  CZ  ARG A   2      -0.346  10.857  18.594  0.00  0.00    +0.000 C 
ATOM     46  NH1 ARG A   2      -0.990  10.424  19.610  0.00  0.00    +0.000 NA
ATOM     47  NH2 ARG A   2      -0.900  11.784  17.792  0.00  0.00    +0.000 N 
ATOM     48  HE  ARG A   2       0.964  10.563  17.164  0.00  0.00    +0.000 HD
ATOM     49  HH1 ARG A   2      -0.429   9.730  20.104  0.00  0.00    +0.000 HD
ATOM     50 HH21 ARG A   2      -0.266  12.547  17.596  0.00  0.00    +0.000 HD
ATOM     51 HH22 ARG A   2      -1.748  12.130  18.230  0.00  0.00    +0.000 HD
ENDBRANCH  43  44
ENDBRANCH  42  43
ENDBRANCH  41  42
ENDBRANCH   1  41
TORSDOF 19
ENDMDL
MODEL 7
REMARK VINA RESULT:      -7.0      3.271      5.034
REMARK  Name = 
REMARK  19 active torsions:
REMARK  status: ('A' for Active; 'I' for Inactive)
REMARK    1  A    between atoms: NE_4  and  CD_5
REMARK    2  A    between atoms: CD_5  and  CG_6
REMARK    3  A    between atoms: CG_6  and  CB_7
REMARK    4  A    between atoms: CB_7  and  CA_8
REMARK    5  A    between atoms: CA_8  and  N_9
REMARK    6  A    between atoms: CA_8  and  C_10
REMARK    7  A    between atoms: N_12  and  CA_13
REMARK    8  A    between atoms: CA_13  and  CB_14
REMARK    9  A    between atoms: CA_13  and  C_21
REMARK   10  A    between atoms: CB_14  and  CG_15
REMARK   11  A    between atoms: CG_15  and  CD_16
REMARK   12  A    between atoms: CD_16  and  NE_17
REMARK   13  A    between atoms: N_23  and  CA_24
REMARK   14  A    between atoms: CA_24  and  CB_25
REMARK   15  A    between atoms: CA_24  and  C_32
REMARK   16  A    between atoms: CB_25  and  CG_26
REMARK   17  A    between atoms: CG_26  and  CD_27
REMARK   18  A    between atoms: CD_27  and  NE_28
REMARK   19  A    between atoms: C_32  and  OXT_34
REMARK                            x       y       z     vdW  Elec       q    Type
REMARK                         _______ _______ _______ _____ _____    ______ ____
ROOT
ATOM      1  CA  ARG A   2       3.055   6.488  17.784  0.00  0.00    +0.000 C 
ENDROOT
BRANCH   1   4
ATOM      2  C   ARG A   1       2.014   4.243  17.958  0.00  0.00    +0.000 C 
ATOM      3  O   ARG A   1       2.838   3.731  17.206  0.00  0.00    +0.000 OA
ATOM      4  N   ARG A   2       2.032   5.577  18.301  0.00  0.00    +0.000 N 
ATOM      5  H   ARG A   2       1.505   5.867  19.115  0.00  0.00    +0.000 HD
BRANCH   2   6
ATOM      6  CA  ARG A   1       0.922   3.406  18.667  0.00  0.00    +0.000 C 
BRANCH   6   7
ATOM      7  N   ARG A   1       1.297   1.978  18.591  0.00  0.00    +0.000 NA
ATOM      8  H1  ARG A   1       2.288   1.857  18.790  0.00  0.00    +0.000 HD
ATOM      9  H2  ARG A   1       1.163   1.658  17.628  0.00  0.00    +0.000 HD
ENDBRANCH   6   7
BRANCH   6  10
ATOM     10  CB  ARG A   1       0.703   3.777  20.137  0.00  0.00    +0.000 C 
BRANCH  10  11
ATOM     11  CG  ARG A   1       1.158   2.708  21.140  0.00  0.00    +0.000 C 
BRANCH  11  12
ATOM     12  CD  ARG A   1       2.592   3.013  21.583  0.00  0.00    +0.000 C 
BRANCH  12  16
ATOM     13  NH1 ARG A   1       5.008   1.485  21.146  0.00  0.00    +0.000 NA
ATOM     14  CZ  ARG A   1       4.619   2.394  20.330  0.00  0.00    +0.000 C 
ATOM     15  NH2 ARG A   1       5.324   2.753  19.238  0.00  0.00    +0.000 N 
ATOM     16  NE  ARG A   1       3.498   3.134  20.459  0.00  0.00    +0.000 N 
ATOM     17  HH1 ARG A   1       5.890   1.096  20.816  0.00  0.00    +0.000 HD
ATOM     18 HH21 ARG A   1       6.287   2.445  19.237  0.00  0.00    +0.000 HD
ATOM     19 HH22 ARG A   1       5.270   3.747  19.050  0.00  0.00    +0.000 HD
ATOM     20  HE  ARG A   1       3.076   3.451  19.596  0.00  0.00    +0.000 HD
ENDBRANCH  12  16
ENDBRANCH  11  12
ENDBRANCH  10  11
ENDBRANCH   6  10
ENDBRANCH   2   6
ENDBRANCH   1   4
BRANCH   1  21
ATOM     21  C   ARG A   2       4.429   6.013  18.294  0.00  0.00    +0.000 C 
ATOM     22  O   ARG A   2       4.646   5.728  19.467  0.00  0.00    +0.000 OA
ATOM     23  N   ARG A   3       5.350   5.798  17.297  0.00  0.00    +0.000 N 
ATOM     24  H   ARG A   3       5.103   6.017  16.332  0.00  0.00    +0.000 HD
BRANCH  23  25
ATOM     25  CA  ARG A   3       6.684   5.254  17.532  0.00  0.00    +0.000 C 
BRANCH  25  26
ATOM     26  C   ARG A   3       7.615   6.443  17.813  0.00  0.00    +0.000 C 
ATOM     27  O   ARG A   3       8.273   6.555  18.841  0.00  0.00    +0.000 OA
BRANCH  26  28
ATOM     28  OXT ARG A   3       7.672   7.359  16.823  0.00  0.00    +0.000 OA
ATOM     29  HXT ARG A   3       7.122   7.165  16.041  0.00  0.00    +0.000 HD
ENDBRANCH  26  28
ENDBRANCH  25  26
BRANCH  25  30
ATOM     30  CB  ARG A   3       7.160   4.385  16.355  0.00  0.00    +0.000 C 
BRANCH  30  31
ATOM     31  CG  ARG A   3       6.875   5.008  14.984  0.00  0.00    +0.000 C 
BRANCH  31  32
ATOM     32  CD  ARG A   3       5.612   4.436  14.336  0.00  0.00    +0.000 C 
BRANCH  32  33
ATOM     33  NE  ARG A   3       5.991   3.363  13.439  0.00  0.00    +0.000 N 
ATOM     34  CZ  ARG A   3       6.748   3.518  12.333  0.00  0.00    +0.000 C 
ATOM     35  NH1 ARG A   3       7.178   4.598  11.801  0.00  0.00    +0.000 NA
ATOM     36  NH2 ARG A   3       7.028   2.331  11.762  0.00  0.00    +0.000 N 
ATOM     37  HE  ARG A   3       6.188   2.483  13.906  0.00  0.00    +0.000 HD
ATOM     38  HH1 ARG A   3       6.877   5.399  12.355  0.00  0.00    +0.000 HD
ATOM     39 HH21 ARG A   3       6.204   1.754  11.656  0.00  0.00    +0.000 HD
ATOM     40 HH22 ARG A   3       7.462   2.493  10.858  0.00  0.00    +0.000 HD
ENDBRANCH  32  33
ENDBRANCH  31  32
ENDBRANCH  30  31
ENDBRANCH  25  30
ENDBRANCH  23  25
ENDBRANCH   1  21
BRANCH   1  41
ATOM     41  CB  ARG A   2       2.791   7.927  18.264  0.00  0.00    +0.000 C 
BRANCH  41  42
ATOM     42  CG  ARG A   2       1.471   8.528  17.782  0.00  0.00    +0.000 C 
BRANCH  42  43
ATOM     43  CD  ARG A   2       0.805   9.406  18.840  0.00  0.00    +0.000 C 
BRANCH  43  44
ATOM     44  NE  ARG A   2       1.458   9.204  20.118  0.00  0.00    +0.000 N 
ATOM     45  CZ  ARG A   2       0.788   8.897  21.251  0.00  0.00    +0.000 C 
ATOM     46  NH1 ARG A   2      -0.450   8.613  21.395  0.00  0.00    +0.000 NA
ATOM     47  NH2 ARG A   2       1.607   8.892  22.317  0.00  0.00    +0.000 N 
ATOM     48  HE  ARG A   2       2.207   9.863  20.302  0.00  0.00    +0.000 HD
ATOM     49  HH1 ARG A   2      -0.924   8.664  20.493  0.00  0.00    +0.000 HD
ATOM     50 HH21 ARG A   2       2.462   8.381  22.139  0.00  0.00    +0.000 HD
ATOM     51 HH22 ARG A   2       1.112   8.492  23.108  0.00  0.00    +0.000 HD
ENDBRANCH  43  44
ENDBRANCH  42  43
ENDBRANCH  41  42
ENDBRANCH   1  41
TORSDOF 19
ENDMDL
MODEL 8
REMARK VINA RESULT:      -7.0      3.178      7.791
REMARK  Name = 
REMARK  19 active torsions:
REMARK  status: ('A' for Active; 'I' for Inactive)
REMARK    1  A    between atoms: NE_4  and  CD_5
REMARK    2  A    between atoms: CD_5  and  CG_6
REMARK    3  A    between atoms: CG_6  and  CB_7
REMARK    4  A    between atoms: CB_7  and  CA_8
REMARK    5  A    between atoms: CA_8  and  N_9
REMARK    6  A    between atoms: CA_8  and  C_10
REMARK    7  A    between atoms: N_12  and  CA_13
REMARK    8  A    between atoms: CA_13  and  CB_14
REMARK    9  A    between atoms: CA_13  and  C_21
REMARK   10  A    between atoms: CB_14  and  CG_15
REMARK   11  A    between atoms: CG_15  and  CD_16
REMARK   12  A    between atoms: CD_16  and  NE_17
REMARK   13  A    between atoms: N_23  and  CA_24
REMARK   14  A    between atoms: CA_24  and  CB_25
REMARK   15  A    between atoms: CA_24  and  C_32
REMARK   16  A    between atoms: CB_25  and  CG_26
REMARK   17  A    between atoms: CG_26  and  CD_27
REMARK   18  A    between atoms: CD_27  and  NE_28
REMARK   19  A    between atoms: C_32  and  OXT_34
REMARK                            x       y       z     vdW  Elec       q    Type
REMARK                         _______ _______ _______ _____ _____    ______ ____
ROOT
ATOM      1  CA  ARG A   2       3.896   5.198  19.334  0.00  0.00    +0.000 C 
ENDROOT
BRANCH   1   4
ATOM      2  C   ARG A   1       2.219   6.865  20.086  0.00  0.00    +0.000 C 
ATOM      3  O   ARG A   1       1.600   6.038  20.750  0.00  0.00    +0.000 OA
ATOM      4  N   ARG A   2       3.348   6.556  19.360  0.00  0.00    +0.000 N 
ATOM      5  H   ARG A   2       3.948   7.316  19.065  0.00  0.00    +0.000 HD
BRANCH   2   6
ATOM      6  CA  ARG A   1       1.832   8.363  20.077  0.00  0.00    +0.000 C 
BRANCH   6   7
ATOM      7  N   ARG A   1       1.431   8.739  18.704  0.00  0.00    +0.000 NA
ATOM      8  H1  ARG A   1       1.091   9.699  18.680  0.00  0.00    +0.000 HD
ATOM      9  H2  ARG A   1       0.639   8.155  18.426  0.00  0.00    +0.000 HD
ENDBRANCH   6   7
BRANCH   6  10
ATOM     10  CB  ARG A   1       0.692   8.721  21.035  0.00  0.00    +0.000 C 
BRANCH  10  11
ATOM     11  CG  ARG A   1      -0.443   9.537  20.400  0.00  0.00    +0.000 C 
BRANCH  11  12
ATOM     12  CD  ARG A   1      -0.103  11.027  20.493  0.00  0.00    +0.000 C 
BRANCH  12  16
ATOM     13  NH1 ARG A   1      -2.268  12.557  19.338  0.00  0.00    +0.000 NA
ATOM     14  CZ  ARG A   1      -1.164  12.359  18.715  0.00  0.00    +0.000 C 
ATOM     15  NH2 ARG A   1      -0.940  12.795  17.459  0.00  0.00    +0.000 N 
ATOM     16  NE  ARG A   1      -0.107  11.672  19.196  0.00  0.00    +0.000 N 
ATOM     17  HH1 ARG A   1      -2.896  13.093  18.740  0.00  0.00    +0.000 HD
ATOM     18 HH21 ARG A   1      -1.772  13.062  16.949  0.00  0.00    +0.000 HD
ATOM     19 HH22 ARG A   1      -0.386  12.143  16.915  0.00  0.00    +0.000 HD
ATOM     20  HE  ARG A   1       0.800  11.962  18.854  0.00  0.00    +0.000 HD
ENDBRANCH  12  16
ENDBRANCH  11  12
ENDBRANCH  10  11
ENDBRANCH   6  10
ENDBRANCH   2   6
ENDBRANCH   1   4
BRANCH   1  21
ATOM     21  C   ARG A   2       5.405   5.291  19.035  0.00  0.00    +0.000 C 
ATOM     22  O   ARG A   2       6.265   4.823  19.774  0.00  0.00    +0.000 OA
ATOM     23  N   ARG A   3       5.697   5.814  17.798  0.00  0.00    +0.000 N 
ATOM     24  H   ARG A   3       4.939   6.153  17.207  0.00  0.00    +0.000 HD
BRANCH  23  25
ATOM     25  CA  ARG A   3       7.050   5.906  17.258  0.00  0.00    +0.000 C 
BRANCH  25  26
ATOM     26  C   ARG A   3       7.669   7.200  17.807  0.00  0.00    +0.000 C 
ATOM     27  O   ARG A   3       7.520   8.295  17.278  0.00  0.00    +0.000 OA
BRANCH  26  28
ATOM     28  OXT ARG A   3       8.381   7.045  18.943  0.00  0.00    +0.000 OA
ATOM     29  HXT ARG A   3       9.323   6.820  18.819  0.00  0.00    +0.000 HD
ENDBRANCH  26  28
ENDBRANCH  25  26
BRANCH  25  30
ATOM     30  CB  ARG A   3       7.054   5.843  15.721  0.00  0.00    +0.000 C 
BRANCH  30  31
ATOM     31  CG  ARG A   3       5.811   5.163  15.135  0.00  0.00    +0.000 C 
BRANCH  31  32
ATOM     32  CD  ARG A   3       6.155   3.890  14.361  0.00  0.00    +0.000 C 
BRANCH  32  33
ATOM     33  NE  ARG A   3       5.270   3.782  13.219  0.00  0.00    +0.000 N 
ATOM     34  CZ  ARG A   3       5.505   3.012  12.135  0.00  0.00    +0.000 C 
ATOM     35  NH1 ARG A   3       6.551   2.338  11.843  0.00  0.00    +0.000 NA
ATOM     36  NH2 ARG A   3       4.457   3.027  11.290  0.00  0.00    +0.000 N 
ATOM     37  HE  ARG A   3       4.283   3.800  13.456  0.00  0.00    +0.000 HD
ATOM     38  HH1 ARG A   3       7.243   2.437  12.584  0.00  0.00    +0.000 HD
ATOM     39 HH21 ARG A   3       4.129   3.965  11.102  0.00  0.00    +0.000 HD
ATOM     40 HH22 ARG A   3       4.725   2.569  10.423  0.00  0.00    +0.000 HD
ENDBRANCH  32  33
ENDBRANCH  31  32
ENDBRANCH  30  31
ENDBRANCH  25  30
ENDBRANCH  23  25
ENDBRANCH   1  21
BRANCH   1  41
ATOM     41  CB  ARG A   2       3.202   4.354  18.249  0.00  0.00    +0.000 C 
BRANCH  41  42
ATOM     42  CG  ARG A   2       3.835   2.984  18.006  0.00  0.00    +0.000 C 
BRANCH  42  43
ATOM     43  CD  ARG A   2       3.149   1.872  18.797  0.00  0.00    +0.000 C 
BRANCH  43  44
ATOM     44  NE  ARG A   2       2.025   2.421  19.529  0.00  0.00    +0.000 N 
ATOM     45  CZ  ARG A   2       2.013   2.556  20.874  0.00  0.00    +0.000 C 
ATOM     46  NH1 ARG A   2       2.965   2.364  21.705  0.00  0.00    +0.000 NA
ATOM     47  NH2 ARG A   2       0.810   2.966  21.312  0.00  0.00    +0.000 N 
ATOM     48  HE  ARG A   2       1.122   2.113  19.183  0.00  0.00    +0.000 HD
ATOM     49  HH1 ARG A   2       3.801   2.056  21.208  0.00  0.00    +0.000 HD
ATOM     50 HH21 ARG A   2       0.452   3.743  20.772  0.00  0.00    +0.000 HD
ATOM     51 HH22 ARG A   2       0.889   3.221  22.292  0.00  0.00    +0.000 HD
ENDBRANCH  43  44
ENDBRANCH  42  43
ENDBRANCH  41  42
ENDBRANCH   1  41
TORSDOF 19
ENDMDL
MODEL 9
REMARK VINA RESULT:      -7.0      3.501      8.227
REMARK  Name = 
REMARK  19 active torsions:
REMARK  status: ('A' for Active; 'I' for Inactive)
REMARK    1  A    between atoms: NE_4  and  CD_5
REMARK    2  A    between atoms: CD_5  and  CG_6
REMARK    3  A    between atoms: CG_6  and  CB_7
REMARK    4  A    between atoms: CB_7  and  CA_8
REMARK    5  A    between atoms: CA_8  and  N_9
REMARK    6  A    between atoms: CA_8  and  C_10
REMARK    7  A    between atoms: N_12  and  CA_13
REMARK    8  A    between atoms: CA_13  and  CB_14
REMARK    9  A    between atoms: CA_13  and  C_21
REMARK   10  A    between atoms: CB_14  and  CG_15
REMARK   11  A    between atoms: CG_15  and  CD_16
REMARK   12  A    between atoms: CD_16  and  NE_17
REMARK   13  A    between atoms: N_23  and  CA_24
REMARK   14  A    between atoms: CA_24  and  CB_25
REMARK   15  A    between atoms: CA_24  and  C_32
REMARK   16  A    between atoms: CB_25  and  CG_26
REMARK   17  A    between atoms: CG_26  and  CD_27
REMARK   18  A    between atoms: CD_27  and  NE_28
REMARK   19  A    between atoms: C_32  and  OXT_34
REMARK                            x       y       z     vdW  Elec       q    Type
REMARK                         _______ _______ _______ _____ _____    ______ ____
ROOT
ATOM      1  CA  ARG A   2       2.711   5.795  18.775  0.00  0.00    +0.000 C 
ENDROOT
BRANCH   1   4
ATOM      2  C   ARG A   1       1.965   8.098  19.319  0.00  0.00    +0.000 C 
ATOM      3  O   ARG A   1       1.808   7.836  20.508  0.00  0.00    +0.000 OA
ATOM      4  N   ARG A   2       2.399   7.174  18.394  0.00  0.00    +0.000 N 
ATOM      5  H   ARG A   2       2.759   7.516  17.512  0.00  0.00    +0.000 HD
BRANCH   2   6
ATOM      6  CA  ARG A   1       1.771   9.529  18.764  0.00  0.00    +0.000 C 
BRANCH   6   7
ATOM      7  N   ARG A   1       1.433   9.438  17.327  0.00  0.00    +0.000 NA
ATOM      8  H1  ARG A   1       0.543   8.961  17.199  0.00  0.00    +0.000 HD
ATOM      9  H2  ARG A   1       2.134   8.852  16.866  0.00  0.00    +0.000 HD
ENDBRANCH   6   7
BRANCH   6  10
ATOM     10  CB  ARG A   1       0.678  10.334  19.474  0.00  0.00    +0.000 C 
BRANCH  10  11
ATOM     11  CG  ARG A   1       0.420  11.725  18.877  0.00  0.00    +0.000 C 
BRANCH  11  12
ATOM     12  CD  ARG A   1      -1.090  11.937  18.733  0.00  0.00    +0.000 C 
BRANCH  12  16
ATOM     13  NH1 ARG A   1      -3.425  10.613  17.658  0.00  0.00    +0.000 NA
ATOM     14  CZ  ARG A   1      -2.613  11.272  16.916  0.00  0.00    +0.000 C 
ATOM     15  NH2 ARG A   1      -2.744  11.358  15.577  0.00  0.00    +0.000 N 
ATOM     16  NE  ARG A   1      -1.515  11.927  17.348  0.00  0.00    +0.000 N 
ATOM     17  HH1 ARG A   1      -4.156  10.208  17.074  0.00  0.00    +0.000 HD
ATOM     18 HH21 ARG A   1      -3.365  10.673  15.168  0.00  0.00    +0.000 HD
ATOM     19 HH22 ARG A   1      -1.850  11.355  15.098  0.00  0.00    +0.000 HD
ATOM     20  HE  ARG A   1      -1.243  12.738  16.807  0.00  0.00    +0.000 HD
ENDBRANCH  12  16
ENDBRANCH  11  12
ENDBRANCH  10  11
ENDBRANCH   6  10
ENDBRANCH   2   6
ENDBRANCH   1   4
BRANCH   1  21
ATOM     21  C   ARG A   2       4.242   5.623  18.762  0.00  0.00    +0.000 C 
ATOM     22  O   ARG A   2       4.920   5.575  19.784  0.00  0.00    +0.000 OA
ATOM     23  N   ARG A   3       4.765   5.382  17.514  0.00  0.00    +0.000 N 
ATOM     24  H   ARG A   3       4.149   5.395  16.702  0.00  0.00    +0.000 HD
BRANCH  23  25
ATOM     25  CA  ARG A   3       6.175   5.089  17.271  0.00  0.00    +0.000 C 
BRANCH  25  26
ATOM     26  C   ARG A   3       6.856   6.418  16.910  0.00  0.00    +0.000 C 
ATOM     27  O   ARG A   3       7.802   6.500  16.136  0.00  0.00    +0.000 OA
BRANCH  26  28
ATOM     28  OXT ARG A   3       6.316   7.506  17.499  0.00  0.00    +0.000 OA
ATOM     29  HXT ARG A   3       6.820   8.334  17.389  0.00  0.00    +0.000 HD
ENDBRANCH  26  28
ENDBRANCH  25  26
BRANCH  25  30
ATOM     30  CB  ARG A   3       6.353   4.009  16.191  0.00  0.00    +0.000 C 
BRANCH  30  31
ATOM     31  CG  ARG A   3       5.427   4.196  14.983  0.00  0.00    +0.000 C 
BRANCH  31  32
ATOM     32  CD  ARG A   3       6.202   4.397  13.680  0.00  0.00    +0.000 C 
BRANCH  32  33
ATOM     33  NE  ARG A   3       6.304   3.125  12.995  0.00  0.00    +0.000 N 
ATOM     34  CZ  ARG A   3       5.502   2.732  11.983  0.00  0.00    +0.000 C 
ATOM     35  NH1 ARG A   3       4.465   3.311  11.511  0.00  0.00    +0.000 NA
ATOM     36  NH2 ARG A   3       5.904   1.553  11.470  0.00  0.00    +0.000 N 
ATOM     37  HE  ARG A   3       7.257   2.801  12.862  0.00  0.00    +0.000 HD
ATOM     38  HH1 ARG A   3       4.301   4.184  12.010  0.00  0.00    +0.000 HD
ATOM     39 HH21 ARG A   3       6.080   0.863  12.188  0.00  0.00    +0.000 HD
ATOM     40 HH22 ARG A   3       5.198   1.215  10.823  0.00  0.00    +0.000 HD
ENDBRANCH  32  33
ENDBRANCH  31  32
ENDBRANCH  30  31
ENDBRANCH  25  30
ENDBRANCH  23  25
ENDBRANCH   1  21
BRANCH   1  41
ATOM     41  CB  ARG A   2       2.068   4.802  17.789  0.00  0.00    +0.000 C 
BRANCH  41  42
ATOM     42  CG  ARG A   2       2.061   3.348  18.263  0.00  0.00    +0.000 C 
BRANCH  42  43
ATOM     43  CD  ARG A   2       2.932   2.444  17.394  0.00  0.00    +0.000 C 
BRANCH  43  44
ATOM     44  NE  ARG A   2       3.490   1.382  18.207  0.00  0.00    +0.000 N 
ATOM     45  CZ  ARG A   2       4.499   1.576  19.086  0.00  0.00    +0.000 C 
ATOM     46  NH1 ARG A   2       5.041   2.674  19.450  0.00  0.00    +0.000 NA
ATOM     47  NH2 ARG A   2       4.916   0.412  19.614  0.00  0.00    +0.000 N 
ATOM     48  HE  ARG A   2       3.598   0.503  17.713  0.00  0.00    +0.000 HD
ATOM     49  HH1 ARG A   2       4.609   3.454  18.955  0.00  0.00    +0.000 HD
ATOM     50 HH21 ARG A   2       4.145  -0.165  19.924  0.00  0.00    +0.000 HD
ATOM     51 HH22 ARG A   2       5.545   0.610  20.386  0.00  0.00    +0.000 HD
ENDBRANCH  43  44
ENDBRANCH  42  43
ENDBRANCH  41  42
ENDBRANCH   1  41
TORSDOF 19
ENDMDL
