MODEL 1
REMARK VINA RESULT:      -8.3      0.000      0.000
REMARK  Name = 
REMARK  6 active torsions:
REMARK  status: ('A' for Active; 'I' for Inactive)
REMARK    1  A    between atoms: C_1  and  C_2
REMARK    2  A    between atoms: C_3  and  N_4
REMARK    3  A    between atoms: N_7  and  C_8
REMARK    4  A    between atoms: C_8  and  C_9
REMARK    5  A    between atoms: C_9  and  C_12
REMARK    6  A    between atoms: N_21  and  C_22
REMARK                            x       y       z     vdW  Elec       q    Type
REMARK                         _______ _______ _______ _____ _____    ______ ____
ROOT
ATOM      1  N   UNL     1       5.781   3.402  16.170  0.00  0.00    +0.000 N 
ATOM      2  C   UNL     1       5.185   3.867  17.305  0.00  0.00    +0.000 C 
ATOM      3  O   UNL     1       4.567   3.089  18.031  0.00  0.00    +0.000 OA
ATOM      4  N   UNL     1       5.285   5.195  17.585  0.00  0.00    +0.000 N 
ATOM      5  H   UNL     1       5.654   2.412  16.014  0.00  0.00    +0.000 HD
ATOM      6  H   UNL     1       5.893   5.768  17.004  0.00  0.00    +0.000 HD
ENDROOT
BRANCH   1   9
ATOM      7  C   UNL     1       5.486   3.316  12.926  0.00  0.00    +0.000 C 
ATOM      8  C   UNL     1       6.347   4.075  13.862  0.00  0.00    +0.000 A 
ATOM      9  C   UNL     1       6.484   4.120  15.235  0.00  0.00    +0.000 A 
ATOM     10  N   UNL     1       7.461   5.019  15.568  0.00  0.00    +0.000 NA
ATOM     11  N   UNL     1       7.941   5.543  14.457  0.00  0.00    +0.000 NA
ATOM     12  N   UNL     1       7.279   4.990  13.433  0.00  0.00    +0.000 N 
ATOM     13  C   UNL     1       7.591   5.386  12.084  0.00  0.00    +0.000 C 
ENDBRANCH   1   9
BRANCH   4  14
ATOM     14  C   UNL     1       4.660   5.780  18.768  0.00  0.00    +0.000 C 
BRANCH  14  15
ATOM     15  C   UNL     1       3.132   5.995  18.687  0.00  0.00    +0.000 C 
ATOM     16  F   UNL     1       2.833   7.206  19.244  0.00  0.00    +0.000 F 
ATOM     17  F   UNL     1       2.773   6.107  17.373  0.00  0.00    +0.000 F 
BRANCH  15  18
ATOM     18  C   UNL     1       2.397   4.856  19.374  0.00  0.00    +0.000 A 
ATOM     19  C   UNL     1       2.506   4.673  20.763  0.00  0.00    +0.000 A 
ATOM     20  C   UNL     1       1.804   3.653  21.411  0.00  0.00    +0.000 A 
ATOM     21  C   UNL     1       0.984   2.801  20.674  0.00  0.00    +0.000 A 
ATOM     22  C   UNL     1       0.878   2.975  19.300  0.00  0.00    +0.000 A 
ATOM     23  F   UNL     1       0.085   2.156  18.594  0.00  0.00    +0.000 F 
ATOM     24  C   UNL     1       1.572   3.987  18.644  0.00  0.00    +0.000 A 
ENDBRANCH  15  18
ENDBRANCH  14  15
ENDBRANCH   4  14
TORSDOF 4
ENDMDL
MODEL 2
REMARK VINA RESULT:      -8.3      1.522      2.099
REMARK  Name = 
REMARK  6 active torsions:
REMARK  status: ('A' for Active; 'I' for Inactive)
REMARK    1  A    between atoms: C_1  and  C_2
REMARK    2  A    between atoms: C_3  and  N_4
REMARK    3  A    between atoms: N_7  and  C_8
REMARK    4  A    between atoms: C_8  and  C_9
REMARK    5  A    between atoms: C_9  and  C_12
REMARK    6  A    between atoms: N_21  and  C_22
REMARK                            x       y       z     vdW  Elec       q    Type
REMARK                         _______ _______ _______ _____ _____    ______ ____
ROOT
ATOM      1  N   UNL     1       7.272   4.875  17.679  0.00  0.00    +0.000 N 
ATOM      2  C   UNL     1       6.469   5.283  18.702  0.00  0.00    +0.000 C 
ATOM      3  O   UNL     1       6.896   5.268  19.856  0.00  0.00    +0.000 OA
ATOM      4  N   UNL     1       5.201   5.681  18.404  0.00  0.00    +0.000 N 
ATOM      5  H   UNL     1       8.192   4.578  17.971  0.00  0.00    +0.000 HD
ATOM      6  H   UNL     1       4.940   5.770  17.425  0.00  0.00    +0.000 HD
ENDROOT
BRANCH   1   9
ATOM      7  C   UNL     1       5.019   3.016  16.238  0.00  0.00    +0.000 C 
ATOM      8  C   UNL     1       6.001   4.008  15.747  0.00  0.00    +0.000 A 
ATOM      9  C   UNL     1       6.961   4.801  16.344  0.00  0.00    +0.000 A 
ATOM     10  N   UNL     1       7.600   5.544  15.389  0.00  0.00    +0.000 NA
ATOM     11  N   UNL     1       7.075   5.252  14.215  0.00  0.00    +0.000 NA
ATOM     12  N   UNL     1       6.116   4.340  14.418  0.00  0.00    +0.000 N 
ATOM     13  C   UNL     1       5.358   3.839  13.301  0.00  0.00    +0.000 C 
ENDBRANCH   1   9
BRANCH   4  14
ATOM     14  C   UNL     1       4.268   6.114  19.441  0.00  0.00    +0.000 C 
BRANCH  14  15
ATOM     15  C   UNL     1       2.782   6.188  19.022  0.00  0.00    +0.000 C 
ATOM     16  F   UNL     1       2.187   7.206  19.711  0.00  0.00    +0.000 F 
ATOM     17  F   UNL     1       2.715   6.558  17.708  0.00  0.00    +0.000 F 
BRANCH  15  18
ATOM     18  C   UNL     1       2.094   4.856  19.266  0.00  0.00    +0.000 A 
ATOM     19  C   UNL     1       1.688   4.055  18.184  0.00  0.00    +0.000 A 
ATOM     20  C   UNL     1       1.089   2.810  18.396  0.00  0.00    +0.000 A 
ATOM     21  C   UNL     1       0.886   2.353  19.697  0.00  0.00    +0.000 A 
ATOM     22  C   UNL     1       1.279   3.144  20.769  0.00  0.00    +0.000 A 
ATOM     23  F   UNL     1       1.086   2.700  22.019  0.00  0.00    +0.000 F 
ATOM     24  C   UNL     1       1.878   4.385  20.569  0.00  0.00    +0.000 A 
ENDBRANCH  15  18
ENDBRANCH  14  15
ENDBRANCH   4  14
TORSDOF 4
ENDMDL
MODEL 3
REMARK VINA RESULT:      -8.2      2.586      3.947
REMARK  Name = 
REMARK  6 active torsions:
REMARK  status: ('A' for Active; 'I' for Inactive)
REMARK    1  A    between atoms: C_1  and  C_2
REMARK    2  A    between atoms: C_3  and  N_4
REMARK    3  A    between atoms: N_7  and  C_8
REMARK    4  A    between atoms: C_8  and  C_9
REMARK    5  A    between atoms: C_9  and  C_12
REMARK    6  A    between atoms: N_21  and  C_22
REMARK                            x       y       z     vdW  Elec       q    Type
REMARK                         _______ _______ _______ _____ _____    ______ ____
ROOT
ATOM      1  N   UNL     1       5.376   3.508  17.302  0.00  0.00    +0.000 N 
ATOM      2  C   UNL     1       4.359   3.005  18.059  0.00  0.00    +0.000 C 
ATOM      3  O   UNL     1       3.688   2.066  17.632  0.00  0.00    +0.000 OA
ATOM      4  N   UNL     1       4.111   3.582  19.267  0.00  0.00    +0.000 N 
ATOM      5  H   UNL     1       5.494   3.045  16.412  0.00  0.00    +0.000 HD
ATOM      6  H   UNL     1       4.762   4.285  19.609  0.00  0.00    +0.000 HD
ENDROOT
BRANCH   1   9
ATOM      7  C   UNL     1       5.347   6.516  16.051  0.00  0.00    +0.000 C 
ATOM      8  C   UNL     1       6.182   5.831  17.064  0.00  0.00    +0.000 A 
ATOM      9  C   UNL     1       6.207   4.559  17.601  0.00  0.00    +0.000 A 
ATOM     10  N   UNL     1       7.217   4.470  18.520  0.00  0.00    +0.000 NA
ATOM     11  N   UNL     1       7.826   5.638  18.583  0.00  0.00    +0.000 NA
ATOM     12  N   UNL     1       7.212   6.459  17.721  0.00  0.00    +0.000 N 
ATOM     13  C   UNL     1       7.664   7.820  17.586  0.00  0.00    +0.000 C 
ENDBRANCH   1   9
BRANCH   4  14
ATOM     14  C   UNL     1       3.029   3.121  20.131  0.00  0.00    +0.000 C 
BRANCH  14  15
ATOM     15  C   UNL     1       1.661   3.808  19.923  0.00  0.00    +0.000 C 
ATOM     16  F   UNL     1       1.001   3.167  18.914  0.00  0.00    +0.000 F 
ATOM     17  F   UNL     1       0.895   3.607  21.037  0.00  0.00    +0.000 F 
BRANCH  15  18
ATOM     18  C   UNL     1       1.847   5.288  19.631  0.00  0.00    +0.000 A 
ATOM     19  C   UNL     1       2.129   5.726  18.325  0.00  0.00    +0.000 A 
ATOM     20  C   UNL     1       2.263   7.087  18.037  0.00  0.00    +0.000 A 
ATOM     21  C   UNL     1       2.120   8.027  19.055  0.00  0.00    +0.000 A 
ATOM     22  C   UNL     1       1.848   7.598  20.348  0.00  0.00    +0.000 A 
ATOM     23  F   UNL     1       1.706   8.505  21.326  0.00  0.00    +0.000 F 
ATOM     24  C   UNL     1       1.710   6.246  20.647  0.00  0.00    +0.000 A 
ENDBRANCH  15  18
ENDBRANCH  14  15
ENDBRANCH   4  14
TORSDOF 4
ENDMDL
MODEL 4
REMARK VINA RESULT:      -8.0      2.530      3.837
REMARK  Name = 
REMARK  6 active torsions:
REMARK  status: ('A' for Active; 'I' for Inactive)
REMARK    1  A    between atoms: C_1  and  C_2
REMARK    2  A    between atoms: C_3  and  N_4
REMARK    3  A    between atoms: N_7  and  C_8
REMARK    4  A    between atoms: C_8  and  C_9
REMARK    5  A    between atoms: C_9  and  C_12
REMARK    6  A    between atoms: N_21  and  C_22
REMARK                            x       y       z     vdW  Elec       q    Type
REMARK                         _______ _______ _______ _____ _____    ______ ____
ROOT
ATOM      1  N   UNL     1       5.495   3.609  17.469  0.00  0.00    +0.000 N 
ATOM      2  C   UNL     1       4.435   3.161  18.201  0.00  0.00    +0.000 C 
ATOM      3  O   UNL     1       3.801   2.179  17.818  0.00  0.00    +0.000 OA
ATOM      4  N   UNL     1       4.105   3.839  19.335  0.00  0.00    +0.000 N 
ATOM      5  H   UNL     1       5.674   3.071  16.633  0.00  0.00    +0.000 HD
ATOM      6  H   UNL     1       4.726   4.578  19.655  0.00  0.00    +0.000 HD
ENDROOT
BRANCH   1   9
ATOM      7  C   UNL     1       5.380   6.564  16.103  0.00  0.00    +0.000 C 
ATOM      8  C   UNL     1       6.234   5.942  17.140  0.00  0.00    +0.000 A 
ATOM      9  C   UNL     1       6.296   4.694  17.726  0.00  0.00    +0.000 A 
ATOM     10  N   UNL     1       7.308   4.669  18.646  0.00  0.00    +0.000 NA
ATOM     11  N   UNL     1       7.884   5.856  18.662  0.00  0.00    +0.000 NA
ATOM     12  N   UNL     1       7.247   6.625  17.771  0.00  0.00    +0.000 N 
ATOM     13  C   UNL     1       7.660   7.991  17.582  0.00  0.00    +0.000 C 
ENDBRANCH   1   9
BRANCH   4  14
ATOM     14  C   UNL     1       2.973   3.441  20.167  0.00  0.00    +0.000 C 
BRANCH  14  15
ATOM     15  C   UNL     1       1.610   4.067  19.794  0.00  0.00    +0.000 C 
ATOM     16  F   UNL     1       1.160   3.476  18.647  0.00  0.00    +0.000 F 
ATOM     17  F   UNL     1       0.696   3.730  20.752  0.00  0.00    +0.000 F 
BRANCH  15  18
ATOM     18  C   UNL     1       1.739   5.573  19.646  0.00  0.00    +0.000 A 
ATOM     19  C   UNL     1       1.476   6.422  20.736  0.00  0.00    +0.000 A 
ATOM     20  C   UNL     1       1.629   7.806  20.622  0.00  0.00    +0.000 A 
ATOM     21  C   UNL     1       2.046   8.359  19.413  0.00  0.00    +0.000 A 
ATOM     22  C   UNL     1       2.300   7.525  18.332  0.00  0.00    +0.000 A 
ATOM     23  F   UNL     1       2.704   8.060  17.171  0.00  0.00    +0.000 F 
ATOM     24  C   UNL     1       2.152   6.145  18.434  0.00  0.00    +0.000 A 
ENDBRANCH  15  18
ENDBRANCH  14  15
ENDBRANCH   4  14
TORSDOF 4
ENDMDL
MODEL 5
REMARK VINA RESULT:      -8.0      2.092      3.435
REMARK  Name = 
REMARK  6 active torsions:
REMARK  status: ('A' for Active; 'I' for Inactive)
REMARK    1  A    between atoms: C_1  and  C_2
REMARK    2  A    between atoms: C_3  and  N_4
REMARK    3  A    between atoms: N_7  and  C_8
REMARK    4  A    between atoms: C_8  and  C_9
REMARK    5  A    between atoms: C_9  and  C_12
REMARK    6  A    between atoms: N_21  and  C_22
REMARK                            x       y       z     vdW  Elec       q    Type
REMARK                         _______ _______ _______ _____ _____    ______ ____
ROOT
ATOM      1  N   UNL     1       5.546   3.212  16.351  0.00  0.00    +0.000 N 
ATOM      2  C   UNL     1       4.431   3.536  17.066  0.00  0.00    +0.000 C 
ATOM      3  O   UNL     1       3.830   2.660  17.688  0.00  0.00    +0.000 OA
ATOM      4  N   UNL     1       4.011   4.831  17.049  0.00  0.00    +0.000 N 
ATOM      5  H   UNL     1       5.793   2.233  16.394  0.00  0.00    +0.000 HD
ATOM      6  H   UNL     1       4.604   5.526  16.602  0.00  0.00    +0.000 HD
ENDROOT
BRANCH   1   9
ATOM      7  C   UNL     1       5.772   3.324  13.103  0.00  0.00    +0.000 C 
ATOM      8  C   UNL     1       6.408   4.081  14.206  0.00  0.00    +0.000 A 
ATOM      9  C   UNL     1       6.324   4.043  15.583  0.00  0.00    +0.000 A 
ATOM     10  N   UNL     1       7.156   4.988  16.119  0.00  0.00    +0.000 NA
ATOM     11  N   UNL     1       7.758   5.620  15.131  0.00  0.00    +0.000 NA
ATOM     12  N   UNL     1       7.314   5.090  13.984  0.00  0.00    +0.000 N 
ATOM     13  C   UNL     1       7.798   5.600  12.727  0.00  0.00    +0.000 C 
ENDBRANCH   1   9
BRANCH   4  14
ATOM     14  C   UNL     1       2.816   5.260  17.769  0.00  0.00    +0.000 C 
BRANCH  14  15
ATOM     15  C   UNL     1       3.061   5.961  19.125  0.00  0.00    +0.000 C 
ATOM     16  F   UNL     1       2.608   5.146  20.123  0.00  0.00    +0.000 F 
ATOM     17  F   UNL     1       4.408   6.063  19.329  0.00  0.00    +0.000 F 
BRANCH  15  18
ATOM     18  C   UNL     1       2.385   7.321  19.150  0.00  0.00    +0.000 A 
ATOM     19  C   UNL     1       2.368   8.130  18.000  0.00  0.00    +0.000 A 
ATOM     20  C   UNL     1       1.715   9.366  18.001  0.00  0.00    +0.000 A 
ATOM     21  C   UNL     1       1.074   9.810  19.156  0.00  0.00    +0.000 A 
ATOM     22  C   UNL     1       1.094   9.017  20.296  0.00  0.00    +0.000 A 
ATOM     23  F   UNL     1       0.473   9.444  21.405  0.00  0.00    +0.000 F 
ATOM     24  C   UNL     1       1.740   7.784  20.307  0.00  0.00    +0.000 A 
ENDBRANCH  15  18
ENDBRANCH  14  15
ENDBRANCH   4  14
TORSDOF 4
ENDMDL
MODEL 6
REMARK VINA RESULT:      -8.0      1.233      1.584
REMARK  Name = 
REMARK  6 active torsions:
REMARK  status: ('A' for Active; 'I' for Inactive)
REMARK    1  A    between atoms: C_1  and  C_2
REMARK    2  A    between atoms: C_3  and  N_4
REMARK    3  A    between atoms: N_7  and  C_8
REMARK    4  A    between atoms: C_8  and  C_9
REMARK    5  A    between atoms: C_9  and  C_12
REMARK    6  A    between atoms: N_21  and  C_22
REMARK                            x       y       z     vdW  Elec       q    Type
REMARK                         _______ _______ _______ _____ _____    ______ ____
ROOT
ATOM      1  N   UNL     1       6.893   4.388  17.973  0.00  0.00    +0.000 N 
ATOM      2  C   UNL     1       6.092   5.042  18.863  0.00  0.00    +0.000 C 
ATOM      3  O   UNL     1       6.305   4.931  20.069  0.00  0.00    +0.000 OA
ATOM      4  N   UNL     1       5.064   5.788  18.374  0.00  0.00    +0.000 N 
ATOM      5  H   UNL     1       7.625   3.841  18.403  0.00  0.00    +0.000 HD
ATOM      6  H   UNL     1       5.001   5.924  17.368  0.00  0.00    +0.000 HD
ENDROOT
BRANCH   1   9
ATOM      7  C   UNL     1       4.445   3.255  16.147  0.00  0.00    +0.000 C 
ATOM      8  C   UNL     1       5.746   3.891  15.842  0.00  0.00    +0.000 A 
ATOM      9  C   UNL     1       6.792   4.374  16.604  0.00  0.00    +0.000 A 
ATOM     10  N   UNL     1       7.770   4.864  15.781  0.00  0.00    +0.000 NA
ATOM     11  N   UNL     1       7.377   4.711  14.531  0.00  0.00    +0.000 NA
ATOM     12  N   UNL     1       6.168   4.136  14.557  0.00  0.00    +0.000 N 
ATOM     13  C   UNL     1       5.484   3.856  13.321  0.00  0.00    +0.000 C 
ENDBRANCH   1   9
BRANCH   4  14
ATOM     14  C   UNL     1       4.147   6.503  19.256  0.00  0.00    +0.000 C 
BRANCH  14  15
ATOM     15  C   UNL     1       2.641   6.293  18.976  0.00  0.00    +0.000 C 
ATOM     16  F   UNL     1       1.952   7.357  19.487  0.00  0.00    +0.000 F 
ATOM     17  F   UNL     1       2.434   6.347  17.627  0.00  0.00    +0.000 F 
BRANCH  15  18
ATOM     18  C   UNL     1       2.169   4.974  19.564  0.00  0.00    +0.000 A 
ATOM     19  C   UNL     1       2.406   4.671  20.916  0.00  0.00    +0.000 A 
ATOM     20  C   UNL     1       1.942   3.478  21.477  0.00  0.00    +0.000 A 
ATOM     21  C   UNL     1       1.236   2.571  20.689  0.00  0.00    +0.000 A 
ATOM     22  C   UNL     1       1.006   2.864  19.351  0.00  0.00    +0.000 A 
ATOM     23  F   UNL     1       0.324   1.990  18.596  0.00  0.00    +0.000 F 
ATOM     24  C   UNL     1       1.462   4.049  18.781  0.00  0.00    +0.000 A 
ENDBRANCH  15  18
ENDBRANCH  14  15
ENDBRANCH   4  14
TORSDOF 4
ENDMDL
MODEL 7
REMARK VINA RESULT:      -7.9      2.059      3.219
REMARK  Name = 
REMARK  6 active torsions:
REMARK  status: ('A' for Active; 'I' for Inactive)
REMARK    1  A    between atoms: C_1  and  C_2
REMARK    2  A    between atoms: C_3  and  N_4
REMARK    3  A    between atoms: N_7  and  C_8
REMARK    4  A    between atoms: C_8  and  C_9
REMARK    5  A    between atoms: C_9  and  C_12
REMARK    6  A    between atoms: N_21  and  C_22
REMARK                            x       y       z     vdW  Elec       q    Type
REMARK                         _______ _______ _______ _____ _____    ______ ____
ROOT
ATOM      1  N   UNL     1       5.524   3.183  16.316  0.00  0.00    +0.000 N 
ATOM      2  C   UNL     1       4.423   3.518  17.049  0.00  0.00    +0.000 C 
ATOM      3  O   UNL     1       3.809   2.644  17.659  0.00  0.00    +0.000 OA
ATOM      4  N   UNL     1       4.033   4.822  17.062  0.00  0.00    +0.000 N 
ATOM      5  H   UNL     1       5.747   2.198  16.336  0.00  0.00    +0.000 HD
ATOM      6  H   UNL     1       4.638   5.513  16.624  0.00  0.00    +0.000 HD
ENDROOT
BRANCH   1   9
ATOM      7  C   UNL     1       5.750   3.329  13.069  0.00  0.00    +0.000 C 
ATOM      8  C   UNL     1       6.397   4.064  14.180  0.00  0.00    +0.000 A 
ATOM      9  C   UNL     1       6.312   4.012  15.557  0.00  0.00    +0.000 A 
ATOM     10  N   UNL     1       7.157   4.939  16.103  0.00  0.00    +0.000 NA
ATOM     11  N   UNL     1       7.767   5.574  15.121  0.00  0.00    +0.000 NA
ATOM     12  N   UNL     1       7.316   5.063  13.969  0.00  0.00    +0.000 N 
ATOM     13  C   UNL     1       7.807   5.580  12.717  0.00  0.00    +0.000 C 
ENDBRANCH   1   9
BRANCH   4  14
ATOM     14  C   UNL     1       2.856   5.264  17.804  0.00  0.00    +0.000 C 
BRANCH  14  15
ATOM     15  C   UNL     1       3.116   5.781  19.237  0.00  0.00    +0.000 C 
ATOM     16  F   UNL     1       2.792   4.792  20.122  0.00  0.00    +0.000 F 
ATOM     17  F   UNL     1       4.459   5.978  19.395  0.00  0.00    +0.000 F 
BRANCH  15  18
ATOM     18  C   UNL     1       2.329   7.055  19.494  0.00  0.00    +0.000 A 
ATOM     19  C   UNL     1       1.722   7.278  20.743  0.00  0.00    +0.000 A 
ATOM     20  C   UNL     1       1.029   8.463  21.004  0.00  0.00    +0.000 A 
ATOM     21  C   UNL     1       0.933   9.440  20.015  0.00  0.00    +0.000 A 
ATOM     22  C   UNL     1       1.525   9.221  18.778  0.00  0.00    +0.000 A 
ATOM     23  F   UNL     1       1.433  10.165  17.830  0.00  0.00    +0.000 F 
ATOM     24  C   UNL     1       2.219   8.046  18.507  0.00  0.00    +0.000 A 
ENDBRANCH  15  18
ENDBRANCH  14  15
ENDBRANCH   4  14
TORSDOF 4
ENDMDL
MODEL 8
REMARK VINA RESULT:      -7.8      1.407      1.716
REMARK  Name = 
REMARK  6 active torsions:
REMARK  status: ('A' for Active; 'I' for Inactive)
REMARK    1  A    between atoms: C_1  and  C_2
REMARK    2  A    between atoms: C_3  and  N_4
REMARK    3  A    between atoms: N_7  and  C_8
REMARK    4  A    between atoms: C_8  and  C_9
REMARK    5  A    between atoms: C_9  and  C_12
REMARK    6  A    between atoms: N_21  and  C_22
REMARK                            x       y       z     vdW  Elec       q    Type
REMARK                         _______ _______ _______ _____ _____    ______ ____
ROOT
ATOM      1  N   UNL     1       5.460   3.397  16.058  0.00  0.00    +0.000 N 
ATOM      2  C   UNL     1       4.434   3.835  16.843  0.00  0.00    +0.000 C 
ATOM      3  O   UNL     1       3.736   3.020  17.444  0.00  0.00    +0.000 OA
ATOM      4  N   UNL     1       4.210   5.176  16.918  0.00  0.00    +0.000 N 
ATOM      5  H   UNL     1       5.560   2.392  16.035  0.00  0.00    +0.000 HD
ATOM      6  H   UNL     1       4.882   5.804  16.483  0.00  0.00    +0.000 HD
ENDROOT
BRANCH   1   9
ATOM      7  C   UNL     1       5.775   3.444  12.816  0.00  0.00    +0.000 C 
ATOM      8  C   UNL     1       6.442   4.163  13.925  0.00  0.00    +0.000 A 
ATOM      9  C   UNL     1       6.321   4.152  15.301  0.00  0.00    +0.000 A 
ATOM     10  N   UNL     1       7.212   5.035  15.846  0.00  0.00    +0.000 NA
ATOM     11  N   UNL     1       7.888   5.603  14.866  0.00  0.00    +0.000 NA
ATOM     12  N   UNL     1       7.432   5.094  13.715  0.00  0.00    +0.000 N 
ATOM     13  C   UNL     1       7.986   5.544  12.465  0.00  0.00    +0.000 C 
ENDBRANCH   1   9
BRANCH   4  14
ATOM     14  C   UNL     1       3.122   5.729  17.718  0.00  0.00    +0.000 C 
BRANCH  14  15
ATOM     15  C   UNL     1       3.383   5.823  19.239  0.00  0.00    +0.000 C 
ATOM     16  F   UNL     1       4.733   5.816  19.448  0.00  0.00    +0.000 F 
ATOM     17  F   UNL     1       2.958   7.044  19.682  0.00  0.00    +0.000 F 
BRANCH  15  18
ATOM     18  C   UNL     1       2.688   4.688  19.970  0.00  0.00    +0.000 A 
ATOM     19  C   UNL     1       1.292   4.535  19.887  0.00  0.00    +0.000 A 
ATOM     20  C   UNL     1       0.646   3.471  20.523  0.00  0.00    +0.000 A 
ATOM     21  C   UNL     1       1.391   2.547  21.253  0.00  0.00    +0.000 A 
ATOM     22  C   UNL     1       2.769   2.697  21.343  0.00  0.00    +0.000 A 
ATOM     23  F   UNL     1       3.482   1.804  22.043  0.00  0.00    +0.000 F 
ATOM     24  C   UNL     1       3.423   3.752  20.713  0.00  0.00    +0.000 A 
ENDBRANCH  15  18
ENDBRANCH  14  15
ENDBRANCH   4  14
TORSDOF 4
ENDMDL
MODEL 9
REMARK VINA RESULT:      -7.8      3.860      6.570
REMARK  Name = 
REMARK  6 active torsions:
REMARK  status: ('A' for Active; 'I' for Inactive)
REMARK    1  A    between atoms: C_1  and  C_2
REMARK    2  A    between atoms: C_3  and  N_4
REMARK    3  A    between atoms: N_7  and  C_8
REMARK    4  A    between atoms: C_8  and  C_9
REMARK    5  A    between atoms: C_9  and  C_12
REMARK    6  A    between atoms: N_21  and  C_22
REMARK                            x       y       z     vdW  Elec       q    Type
REMARK                         _______ _______ _______ _____ _____    ______ ____
ROOT
ATOM      1  N   UNL     1       2.104   6.255  20.943  0.00  0.00    +0.000 N 
ATOM      2  C   UNL     1       2.109   4.920  20.661  0.00  0.00    +0.000 C 
ATOM      3  O   UNL     1       2.251   4.106  21.571  0.00  0.00    +0.000 OA
ATOM      4  N   UNL     1       1.972   4.538  19.361  0.00  0.00    +0.000 N 
ATOM      5  H   UNL     1       2.226   6.469  21.922  0.00  0.00    +0.000 HD
ATOM      6  H   UNL     1       1.755   5.250  18.668  0.00  0.00    +0.000 HD
ENDROOT
BRANCH   1   9
ATOM      7  C   UNL     1       0.403   9.009  21.306  0.00  0.00    +0.000 C 
ATOM      8  C   UNL     1       1.260   8.464  20.229  0.00  0.00    +0.000 A 
ATOM      9  C   UNL     1       1.983   7.300  20.061  0.00  0.00    +0.000 A 
ATOM     10  N   UNL     1       2.601   7.317  18.840  0.00  0.00    +0.000 NA
ATOM     11  N   UNL     1       2.295   8.449  18.236  0.00  0.00    +0.000 NA
ATOM     12  N   UNL     1       1.499   9.143  19.059  0.00  0.00    +0.000 N 
ATOM     13  C   UNL     1       1.014  10.438  18.659  0.00  0.00    +0.000 C 
ENDBRANCH   1   9
BRANCH   4  14
ATOM     14  C   UNL     1       1.987   3.132  18.968  0.00  0.00    +0.000 C 
BRANCH  14  15
ATOM     15  C   UNL     1       3.376   2.540  18.638  0.00  0.00    +0.000 C 
ATOM     16  F   UNL     1       3.861   1.921  19.755  0.00  0.00    +0.000 F 
ATOM     17  F   UNL     1       3.220   1.543  17.716  0.00  0.00    +0.000 F 
BRANCH  15  18
ATOM     18  C   UNL     1       4.312   3.626  18.137  0.00  0.00    +0.000 A 
ATOM     19  C   UNL     1       4.240   4.072  16.805  0.00  0.00    +0.000 A 
ATOM     20  C   UNL     1       5.069   5.098  16.344  0.00  0.00    +0.000 A 
ATOM     21  C   UNL     1       5.985   5.689  17.212  0.00  0.00    +0.000 A 
ATOM     22  C   UNL     1       6.065   5.247  18.526  0.00  0.00    +0.000 A 
ATOM     23  F   UNL     1       6.945   5.821  19.359  0.00  0.00    +0.000 F 
ATOM     24  C   UNL     1       5.243   4.227  18.997  0.00  0.00    +0.000 A 
ENDBRANCH  15  18
ENDBRANCH  14  15
ENDBRANCH   4  14
TORSDOF 4
ENDMDL
