MODEL 1
REMARK VINA RESULT:      -7.3      0.000      0.000
REMARK  Name = 
REMARK  4 active torsions:
REMARK  status: ('A' for Active; 'I' for Inactive)
REMARK    1  A    between atoms: C_1  and  C_2
REMARK    2  A    between atoms: C_5  and  C_6
REMARK    3  A    between atoms: C_7  and  S_8
REMARK    4  A    between atoms: S_8  and  C_9
REMARK                            x       y       z     vdW  Elec       q    Type
REMARK                         _______ _______ _______ _____ _____    ______ ____
ROOT
ATOM      1  C   UNL     1       5.378   3.650  16.739  0.00  0.00    +0.000 C 
ATOM      2  C   UNL     1       5.148   4.215  15.328  0.00  0.00    +0.000 C 
ATOM      3  S   UNL     1       6.116   5.715  15.201  0.00  0.00    +0.000 S 
ATOM      4  O   UNL     1       7.292   5.455  14.399  0.00  0.00    +0.000 OA
ATOM      5  O   UNL     1       5.242   6.846  14.975  0.00  0.00    +0.000 OA
ATOM      6  C   UNL     1       6.621   5.750  16.871  0.00  0.00    +0.000 A 
ATOM      7  C   UNL     1       7.331   6.781  17.463  0.00  0.00    +0.000 A 
ATOM      8  C   UNL     1       7.650   6.649  18.813  0.00  0.00    +0.000 A 
ATOM      9  C   UNL     1       7.280   5.494  19.519  0.00  0.00    +0.000 A 
ATOM     10  C   UNL     1       6.566   4.468  18.891  0.00  0.00    +0.000 A 
ATOM     11  C   UNL     1       6.197   4.616  17.556  0.00  0.00    +0.000 A 
ENDROOT
BRANCH   1  12
ATOM     12  S   UNL     1       3.827   3.100  17.574  0.00  0.00    +0.000 S 
BRANCH  12  19
ATOM     13  C   UNL     1       2.803   8.289  17.607  0.00  0.00    +0.000 C 
ATOM     14  C   UNL     1       2.785   6.990  18.358  0.00  0.00    +0.000 A 
ATOM     15  C   UNL     1       2.380   6.937  19.690  0.00  0.00    +0.000 A 
ATOM     16  C   UNL     1       2.425   5.729  20.387  0.00  0.00    +0.000 A 
ATOM     17  C   UNL     1       2.858   4.546  19.763  0.00  0.00    +0.000 A 
ATOM     18  C   UNL     1       2.958   3.297  20.597  0.00  0.00    +0.000 C 
ATOM     19  C   UNL     1       3.230   4.581  18.404  0.00  0.00    +0.000 A 
ATOM     20  C   UNL     1       3.218   5.814  17.732  0.00  0.00    +0.000 A 
ENDBRANCH  12  19
ENDBRANCH   1  12
TORSDOF 2
ENDMDL
MODEL 2
REMARK VINA RESULT:      -7.0      1.247      1.634
REMARK  Name = 
REMARK  4 active torsions:
REMARK  status: ('A' for Active; 'I' for Inactive)
REMARK    1  A    between atoms: C_1  and  C_2
REMARK    2  A    between atoms: C_5  and  C_6
REMARK    3  A    between atoms: C_7  and  S_8
REMARK    4  A    between atoms: S_8  and  C_9
REMARK                            x       y       z     vdW  Elec       q    Type
REMARK                         _______ _______ _______ _____ _____    ______ ____
ROOT
ATOM      1  C   UNL     1       6.524   4.147  17.681  0.00  0.00    +0.000 C 
ATOM      2  C   UNL     1       5.925   4.134  16.266  0.00  0.00    +0.000 C 
ATOM      3  S   UNL     1       6.437   5.652  15.468  0.00  0.00    +0.000 S 
ATOM      4  O   UNL     1       7.489   5.360  14.520  0.00  0.00    +0.000 OA
ATOM      5  O   UNL     1       5.274   6.447  15.134  0.00  0.00    +0.000 OA
ATOM      6  C   UNL     1       7.184   6.358  16.878  0.00  0.00    +0.000 A 
ATOM      7  C   UNL     1       7.690   7.645  16.947  0.00  0.00    +0.000 A 
ATOM      8  C   UNL     1       8.252   8.051  18.155  0.00  0.00    +0.000 A 
ATOM      9  C   UNL     1       8.316   7.164  19.241  0.00  0.00    +0.000 A 
ATOM     10  C   UNL     1       7.798   5.869  19.138  0.00  0.00    +0.000 A 
ATOM     11  C   UNL     1       7.187   5.472  17.951  0.00  0.00    +0.000 A 
ENDROOT
BRANCH   1  12
ATOM     12  S   UNL     1       5.328   3.634  18.991  0.00  0.00    +0.000 S 
BRANCH  12  19
ATOM     13  C   UNL     1       2.290   7.926  18.415  0.00  0.00    +0.000 C 
ATOM     14  C   UNL     1       2.422   6.439  18.263  0.00  0.00    +0.000 A 
ATOM     15  C   UNL     1       1.354   5.665  17.817  0.00  0.00    +0.000 A 
ATOM     16  C   UNL     1       1.480   4.278  17.738  0.00  0.00    +0.000 A 
ATOM     17  C   UNL     1       2.682   3.636  18.086  0.00  0.00    +0.000 A 
ATOM     18  C   UNL     1       2.721   2.131  18.055  0.00  0.00    +0.000 C 
ATOM     19  C   UNL     1       3.783   4.414  18.499  0.00  0.00    +0.000 A 
ATOM     20  C   UNL     1       3.623   5.804  18.612  0.00  0.00    +0.000 A 
ENDBRANCH  12  19
ENDBRANCH   1  12
TORSDOF 2
ENDMDL
MODEL 3
REMARK VINA RESULT:      -7.0      2.405      3.832
REMARK  Name = 
REMARK  4 active torsions:
REMARK  status: ('A' for Active; 'I' for Inactive)
REMARK    1  A    between atoms: C_1  and  C_2
REMARK    2  A    between atoms: C_5  and  C_6
REMARK    3  A    between atoms: C_7  and  S_8
REMARK    4  A    between atoms: S_8  and  C_9
REMARK                            x       y       z     vdW  Elec       q    Type
REMARK                         _______ _______ _______ _____ _____    ______ ____
ROOT
ATOM      1  C   UNL     1       5.009   6.702  17.708  0.00  0.00    +0.000 C 
ATOM      2  C   UNL     1       5.438   6.044  19.029  0.00  0.00    +0.000 C 
ATOM      3  S   UNL     1       6.397   4.594  18.602  0.00  0.00    +0.000 S 
ATOM      4  O   UNL     1       7.799   4.869  18.824  0.00  0.00    +0.000 OA
ATOM      5  O   UNL     1       5.738   3.405  19.101  0.00  0.00    +0.000 OA
ATOM      6  C   UNL     1       6.113   4.684  16.883  0.00  0.00    +0.000 A 
ATOM      7  C   UNL     1       6.512   3.730  15.962  0.00  0.00    +0.000 A 
ATOM      8  C   UNL     1       6.199   3.959  14.624  0.00  0.00    +0.000 A 
ATOM      9  C   UNL     1       5.529   5.131  14.242  0.00  0.00    +0.000 A 
ATOM     10  C   UNL     1       5.143   6.078  15.197  0.00  0.00    +0.000 A 
ATOM     11  C   UNL     1       5.404   5.832  16.543  0.00  0.00    +0.000 A 
ENDROOT
BRANCH   1  12
ATOM     12  S   UNL     1       3.236   7.216  17.683  0.00  0.00    +0.000 S 
BRANCH  12  19
ATOM     13  C   UNL     1       1.377   2.322  18.442  0.00  0.00    +0.000 C 
ATOM     14  C   UNL     1       1.566   3.704  18.995  0.00  0.00    +0.000 A 
ATOM     15  C   UNL     1       1.057   4.054  20.244  0.00  0.00    +0.000 A 
ATOM     16  C   UNL     1       1.193   5.361  20.713  0.00  0.00    +0.000 A 
ATOM     17  C   UNL     1       1.857   6.341  19.953  0.00  0.00    +0.000 A 
ATOM     18  C   UNL     1       1.895   7.749  20.486  0.00  0.00    +0.000 C 
ATOM     19  C   UNL     1       2.412   5.987  18.707  0.00  0.00    +0.000 A 
ATOM     20  C   UNL     1       2.227   4.678  18.233  0.00  0.00    +0.000 A 
ENDBRANCH  12  19
ENDBRANCH   1  12
TORSDOF 2
ENDMDL
MODEL 4
REMARK VINA RESULT:      -7.0      1.816      3.264
REMARK  Name = 
REMARK  4 active torsions:
REMARK  status: ('A' for Active; 'I' for Inactive)
REMARK    1  A    between atoms: C_1  and  C_2
REMARK    2  A    between atoms: C_5  and  C_6
REMARK    3  A    between atoms: C_7  and  S_8
REMARK    4  A    between atoms: S_8  and  C_9
REMARK                            x       y       z     vdW  Elec       q    Type
REMARK                         _______ _______ _______ _____ _____    ______ ____
ROOT
ATOM      1  C   UNL     1       4.677   4.770  16.645  0.00  0.00    +0.000 C 
ATOM      2  C   UNL     1       5.749   5.114  17.691  0.00  0.00    +0.000 C 
ATOM      3  S   UNL     1       7.303   5.266  16.814  0.00  0.00    +0.000 S 
ATOM      4  O   UNL     1       7.642   6.666  16.688  0.00  0.00    +0.000 OA
ATOM      5  O   UNL     1       8.236   4.269  17.295  0.00  0.00    +0.000 OA
ATOM      6  C   UNL     1       6.695   4.734  15.268  0.00  0.00    +0.000 A 
ATOM      7  C   UNL     1       7.473   4.509  14.145  0.00  0.00    +0.000 A 
ATOM      8  C   UNL     1       6.825   4.081  12.989  0.00  0.00    +0.000 A 
ATOM      9  C   UNL     1       5.431   3.916  12.977  0.00  0.00    +0.000 A 
ATOM     10  C   UNL     1       4.673   4.155  14.128  0.00  0.00    +0.000 A 
ATOM     11  C   UNL     1       5.319   4.532  15.303  0.00  0.00    +0.000 A 
ENDROOT
BRANCH   1  12
ATOM     12  S   UNL     1       3.541   3.414  17.175  0.00  0.00    +0.000 S 
BRANCH  12  19
ATOM     13  C   UNL     1       2.058   7.592  20.061  0.00  0.00    +0.000 C 
ATOM     14  C   UNL     1       1.955   6.113  19.829  0.00  0.00    +0.000 A 
ATOM     15  C   UNL     1       1.204   5.304  20.678  0.00  0.00    +0.000 A 
ATOM     16  C   UNL     1       1.169   3.924  20.478  0.00  0.00    +0.000 A 
ATOM     17  C   UNL     1       1.869   3.325  19.416  0.00  0.00    +0.000 A 
ATOM     18  C   UNL     1       1.853   1.823  19.309  0.00  0.00    +0.000 C 
ATOM     19  C   UNL     1       2.598   4.139  18.526  0.00  0.00    +0.000 A 
ATOM     20  C   UNL     1       2.656   5.521  18.768  0.00  0.00    +0.000 A 
ENDBRANCH  12  19
ENDBRANCH   1  12
TORSDOF 2
ENDMDL
MODEL 5
REMARK VINA RESULT:      -6.9      2.997      5.818
REMARK  Name = 
REMARK  4 active torsions:
REMARK  status: ('A' for Active; 'I' for Inactive)
REMARK    1  A    between atoms: C_1  and  C_2
REMARK    2  A    between atoms: C_5  and  C_6
REMARK    3  A    between atoms: C_7  and  S_8
REMARK    4  A    between atoms: S_8  and  C_9
REMARK                            x       y       z     vdW  Elec       q    Type
REMARK                         _______ _______ _______ _____ _____    ______ ____
ROOT
ATOM      1  C   UNL     1       3.546   3.645  18.204  0.00  0.00    +0.000 C 
ATOM      2  C   UNL     1       2.898   2.297  18.557  0.00  0.00    +0.000 C 
ATOM      3  S   UNL     1       1.468   2.656  19.573  0.00  0.00    +0.000 S 
ATOM      4  O   UNL     1       0.269   2.495  18.779  0.00  0.00    +0.000 OA
ATOM      5  O   UNL     1       1.633   2.059  20.881  0.00  0.00    +0.000 OA
ATOM      6  C   UNL     1       1.771   4.368  19.720  0.00  0.00    +0.000 A 
ATOM      7  C   UNL     1       1.048   5.235  20.521  0.00  0.00    +0.000 A 
ATOM      8  C   UNL     1       1.427   6.575  20.523  0.00  0.00    +0.000 A 
ATOM      9  C   UNL     1       2.489   7.013  19.716  0.00  0.00    +0.000 A 
ATOM     10  C   UNL     1       3.197   6.112  18.914  0.00  0.00    +0.000 A 
ATOM     11  C   UNL     1       2.859   4.762  18.946  0.00  0.00    +0.000 A 
ENDROOT
BRANCH   1  12
ATOM     12  S   UNL     1       5.383   3.650  18.390  0.00  0.00    +0.000 S 
BRANCH  12  19
ATOM     13  C   UNL     1       5.646   3.456  13.111  0.00  0.00    +0.000 C 
ATOM     14  C   UNL     1       6.066   4.147  14.375  0.00  0.00    +0.000 A 
ATOM     15  C   UNL     1       6.951   5.223  14.345  0.00  0.00    +0.000 A 
ATOM     16  C   UNL     1       7.374   5.814  15.536  0.00  0.00    +0.000 A 
ATOM     17  C   UNL     1       6.907   5.355  16.781  0.00  0.00    +0.000 A 
ATOM     18  C   UNL     1       7.468   5.986  18.027  0.00  0.00    +0.000 C 
ATOM     19  C   UNL     1       5.979   4.295  16.819  0.00  0.00    +0.000 A 
ATOM     20  C   UNL     1       5.598   3.686  15.613  0.00  0.00    +0.000 A 
ENDBRANCH  12  19
ENDBRANCH   1  12
TORSDOF 2
ENDMDL
MODEL 6
REMARK VINA RESULT:      -6.7      2.565      5.265
REMARK  Name = 
REMARK  4 active torsions:
REMARK  status: ('A' for Active; 'I' for Inactive)
REMARK    1  A    between atoms: C_1  and  C_2
REMARK    2  A    between atoms: C_5  and  C_6
REMARK    3  A    between atoms: C_7  and  S_8
REMARK    4  A    between atoms: S_8  and  C_9
REMARK                            x       y       z     vdW  Elec       q    Type
REMARK                         _______ _______ _______ _____ _____    ______ ____
ROOT
ATOM      1  C   UNL     1       2.471   5.056  17.812  0.00  0.00    +0.000 C 
ATOM      2  C   UNL     1       2.788   3.866  16.894  0.00  0.00    +0.000 C 
ATOM      3  S   UNL     1       2.679   2.388  17.898  0.00  0.00    +0.000 S 
ATOM      4  O   UNL     1       1.446   1.696  17.593  0.00  0.00    +0.000 OA
ATOM      5  O   UNL     1       3.965   1.726  17.937  0.00  0.00    +0.000 OA
ATOM      6  C   UNL     1       2.451   3.214  19.417  0.00  0.00    +0.000 A 
ATOM      7  C   UNL     1       2.416   2.599  20.657  0.00  0.00    +0.000 A 
ATOM      8  C   UNL     1       2.229   3.411  21.773  0.00  0.00    +0.000 A 
ATOM      9  C   UNL     1       2.059   4.796  21.622  0.00  0.00    +0.000 A 
ATOM     10  C   UNL     1       2.097   5.387  20.354  0.00  0.00    +0.000 A 
ATOM     11  C   UNL     1       2.336   4.589  19.238  0.00  0.00    +0.000 A 
ENDROOT
BRANCH   1  12
ATOM     12  S   UNL     1       3.633   6.476  17.603  0.00  0.00    +0.000 S 
BRANCH  12  19
ATOM     13  C   UNL     1       6.751   4.734  13.702  0.00  0.00    +0.000 C 
ATOM     14  C   UNL     1       6.553   4.917  15.178  0.00  0.00    +0.000 A 
ATOM     15  C   UNL     1       7.492   4.446  16.093  0.00  0.00    +0.000 A 
ATOM     16  C   UNL     1       7.260   4.575  17.462  0.00  0.00    +0.000 A 
ATOM     17  C   UNL     1       6.094   5.193  17.947  0.00  0.00    +0.000 A 
ATOM     18  C   UNL     1       5.871   5.225  19.436  0.00  0.00    +0.000 C 
ATOM     19  C   UNL     1       5.157   5.711  17.030  0.00  0.00    +0.000 A 
ATOM     20  C   UNL     1       5.388   5.534  15.656  0.00  0.00    +0.000 A 
ENDBRANCH  12  19
ENDBRANCH   1  12
TORSDOF 2
ENDMDL
MODEL 7
REMARK VINA RESULT:      -6.6      2.647      5.143
REMARK  Name = 
REMARK  4 active torsions:
REMARK  status: ('A' for Active; 'I' for Inactive)
REMARK    1  A    between atoms: C_1  and  C_2
REMARK    2  A    between atoms: C_5  and  C_6
REMARK    3  A    between atoms: C_7  and  S_8
REMARK    4  A    between atoms: S_8  and  C_9
REMARK                            x       y       z     vdW  Elec       q    Type
REMARK                         _______ _______ _______ _____ _____    ______ ____
ROOT
ATOM      1  C   UNL     1       3.580   3.423  17.200  0.00  0.00    +0.000 C 
ATOM      2  C   UNL     1       3.862   2.191  18.075  0.00  0.00    +0.000 C 
ATOM      3  S   UNL     1       3.424   2.631  19.753  0.00  0.00    +0.000 S 
ATOM      4  O   UNL     1       2.165   2.006  20.096  0.00  0.00    +0.000 OA
ATOM      5  O   UNL     1       4.596   2.560  20.601  0.00  0.00    +0.000 OA
ATOM      6  C   UNL     1       3.099   4.313  19.424  0.00  0.00    +0.000 A 
ATOM      7  C   UNL     1       2.813   5.269  20.385  0.00  0.00    +0.000 A 
ATOM      8  C   UNL     1       2.582   6.571  19.947  0.00  0.00    +0.000 A 
ATOM      9  C   UNL     1       2.616   6.876  18.578  0.00  0.00    +0.000 A 
ATOM     10  C   UNL     1       2.905   5.886  17.632  0.00  0.00    +0.000 A 
ATOM     11  C   UNL     1       3.189   4.594  18.064  0.00  0.00    +0.000 A 
ENDROOT
BRANCH   1  12
ATOM     12  S   UNL     1       4.934   3.802  16.003  0.00  0.00    +0.000 S 
BRANCH  12  19
ATOM     13  C   UNL     1       8.116   5.212  19.987  0.00  0.00    +0.000 C 
ATOM     14  C   UNL     1       7.403   5.619  18.731  0.00  0.00    +0.000 A 
ATOM     15  C   UNL     1       7.458   6.932  18.269  0.00  0.00    +0.000 A 
ATOM     16  C   UNL     1       6.740   7.304  17.131  0.00  0.00    +0.000 A 
ATOM     17  C   UNL     1       5.967   6.367  16.421  0.00  0.00    +0.000 A 
ATOM     18  C   UNL     1       5.155   6.855  15.252  0.00  0.00    +0.000 C 
ATOM     19  C   UNL     1       5.939   5.027  16.857  0.00  0.00    +0.000 A 
ATOM     20  C   UNL     1       6.633   4.682  18.028  0.00  0.00    +0.000 A 
ENDBRANCH  12  19
ENDBRANCH   1  12
TORSDOF 2
ENDMDL
MODEL 8
REMARK VINA RESULT:      -6.5      3.686      6.222
REMARK  Name = 
REMARK  4 active torsions:
REMARK  status: ('A' for Active; 'I' for Inactive)
REMARK    1  A    between atoms: C_1  and  C_2
REMARK    2  A    between atoms: C_5  and  C_6
REMARK    3  A    between atoms: C_7  and  S_8
REMARK    4  A    between atoms: S_8  and  C_9
REMARK                            x       y       z     vdW  Elec       q    Type
REMARK                         _______ _______ _______ _____ _____    ______ ____
ROOT
ATOM      1  C   UNL     1       2.140   7.958  19.786  0.00  0.00    +0.000 C 
ATOM      2  C   UNL     1       1.965   8.448  18.340  0.00  0.00    +0.000 C 
ATOM      3  S   UNL     1       0.937   9.913  18.406  0.00  0.00    +0.000 S 
ATOM      4  O   UNL     1       1.764  11.083  18.209  0.00  0.00    +0.000 OA
ATOM      5  O   UNL     1      -0.291   9.683  17.674  0.00  0.00    +0.000 OA
ATOM      6  C   UNL     1       0.577   9.809  20.110  0.00  0.00    +0.000 A 
ATOM      7  C   UNL     1      -0.313  10.628  20.783  0.00  0.00    +0.000 A 
ATOM      8  C   UNL     1      -0.486  10.405  22.147  0.00  0.00    +0.000 A 
ATOM      9  C   UNL     1       0.244   9.399  22.799  0.00  0.00    +0.000 A 
ATOM     10  C   UNL     1       1.138   8.590  22.091  0.00  0.00    +0.000 A 
ATOM     11  C   UNL     1       1.277   8.771  20.717  0.00  0.00    +0.000 A 
ENDROOT
BRANCH   1  12
ATOM     12  S   UNL     1       1.923   6.134  19.976  0.00  0.00    +0.000 S 
BRANCH  12  19
ATOM     13  C   UNL     1       6.593   6.191  17.492  0.00  0.00    +0.000 C 
ATOM     14  C   UNL     1       5.264   5.518  17.675  0.00  0.00    +0.000 A 
ATOM     15  C   UNL     1       4.906   4.415  16.903  0.00  0.00    +0.000 A 
ATOM     16  C   UNL     1       3.643   3.840  17.048  0.00  0.00    +0.000 A 
ATOM     17  C   UNL     1       2.718   4.343  17.981  0.00  0.00    +0.000 A 
ATOM     18  C   UNL     1       1.346   3.726  18.027  0.00  0.00    +0.000 C 
ATOM     19  C   UNL     1       3.087   5.433  18.796  0.00  0.00    +0.000 A 
ATOM     20  C   UNL     1       4.346   6.024  18.605  0.00  0.00    +0.000 A 
ENDBRANCH  12  19
ENDBRANCH   1  12
TORSDOF 2
ENDMDL
MODEL 9
REMARK VINA RESULT:      -6.5      1.613      2.004
REMARK  Name = 
REMARK  4 active torsions:
REMARK  status: ('A' for Active; 'I' for Inactive)
REMARK    1  A    between atoms: C_1  and  C_2
REMARK    2  A    between atoms: C_5  and  C_6
REMARK    3  A    between atoms: C_7  and  S_8
REMARK    4  A    between atoms: S_8  and  C_9
REMARK                            x       y       z     vdW  Elec       q    Type
REMARK                         _______ _______ _______ _____ _____    ______ ____
ROOT
ATOM      1  C   UNL     1       5.605   4.386  17.790  0.00  0.00    +0.000 C 
ATOM      2  C   UNL     1       4.427   4.863  16.926  0.00  0.00    +0.000 C 
ATOM      3  S   UNL     1       4.795   6.540  16.420  0.00  0.00    +0.000 S 
ATOM      4  O   UNL     1       5.206   6.539  15.033  0.00  0.00    +0.000 OA
ATOM      5  O   UNL     1       3.792   7.442  16.944  0.00  0.00    +0.000 OA
ATOM      6  C   UNL     1       6.234   6.714  17.391  0.00  0.00    +0.000 A 
ATOM      7  C   UNL     1       6.955   7.887  17.538  0.00  0.00    +0.000 A 
ATOM      8  C   UNL     1       8.082   7.851  18.356  0.00  0.00    +0.000 A 
ATOM      9  C   UNL     1       8.468   6.654  18.978  0.00  0.00    +0.000 A 
ATOM     10  C   UNL     1       7.720   5.484  18.807  0.00  0.00    +0.000 A 
ATOM     11  C   UNL     1       6.563   5.524  18.033  0.00  0.00    +0.000 A 
ENDROOT
BRANCH   1  12
ATOM     12  S   UNL     1       5.082   3.514  19.331  0.00  0.00    +0.000 S 
BRANCH  12  19
ATOM     13  C   UNL     1       1.770   7.383  20.761  0.00  0.00    +0.000 C 
ATOM     14  C   UNL     1       1.938   5.961  20.314  0.00  0.00    +0.000 A 
ATOM     15  C   UNL     1       0.840   5.110  20.202  0.00  0.00    +0.000 A 
ATOM     16  C   UNL     1       1.024   3.775  19.841  0.00  0.00    +0.000 A 
ATOM     17  C   UNL     1       2.306   3.266  19.566  0.00  0.00    +0.000 A 
ATOM     18  C   UNL     1       2.439   1.798  19.262  0.00  0.00    +0.000 C 
ATOM     19  C   UNL     1       3.418   4.129  19.636  0.00  0.00    +0.000 A 
ATOM     20  C   UNL     1       3.218   5.458  20.042  0.00  0.00    +0.000 A 
ENDBRANCH  12  19
ENDBRANCH   1  12
TORSDOF 2
ENDMDL
