MODEL 1
REMARK VINA RESULT:      -7.6      0.000      0.000
REMARK  Name = 
REMARK  4 active torsions:
REMARK  status: ('A' for Active; 'I' for Inactive)
REMARK    1  A    between atoms: C_1  and  C_2
REMARK    2  A    between atoms: C_2  and  O_3
REMARK    3  A    between atoms: O_3  and  C_4
REMARK    4  A    between atoms: C_4  and  C_6
REMARK                            x       y       z     vdW  Elec       q    Type
REMARK                         _______ _______ _______ _____ _____    ______ ____
ROOT
ATOM      1  C   UNL     1       5.540   5.056  17.017  0.00  0.00    +0.000 A 
ATOM      2  N   UNL     1       5.076   6.320  16.677  0.00  0.00    +0.000 N 
ATOM      3  C   UNL     1       4.065   6.718  17.525  0.00  0.00    +0.000 A 
ATOM      4  C   UNL     1       3.282   7.874  17.612  0.00  0.00    +0.000 A 
ATOM      5  C   UNL     1       2.328   7.929  18.651  0.00  0.00    +0.000 A 
ATOM      6  C   UNL     1       2.164   6.879  19.564  0.00  0.00    +0.000 A 
ATOM      7  C   UNL     1       2.940   5.733  19.429  0.00  0.00    +0.000 A 
ATOM      8  C   UNL     1       3.887   5.672  18.409  0.00  0.00    +0.000 A 
ATOM      9  C   UNL     1       4.776   4.631  18.088  0.00  0.00    +0.000 A 
ATOM     10  C   UNL     1       4.781   3.386  18.914  0.00  0.00    +0.000 C 
ATOM     11  C   UNL     1       3.451   3.222  19.681  0.00  0.00    +0.000 C 
ATOM     12 BR   UNL     1       2.069   2.503  18.471  0.00  0.00    +0.000 Br
ATOM     13  C   UNL     1       2.844   4.510  20.264  0.00  0.00    +0.000 C 
ATOM     14  O   UNL     1       2.264   4.551  21.347  0.00  0.00    +0.000 OA
ATOM     15  H   UNL     1       5.466   6.882  15.931  0.00  0.00    +0.000 HD
ENDROOT
BRANCH   1  16
ATOM     16  C   UNL     1       6.654   4.380  16.400  0.00  0.00    +0.000 C 
ATOM     17  O   UNL     1       7.820   4.465  16.762  0.00  0.00    +0.000 OA
BRANCH  16  18
ATOM     18  O   UNL     1       6.227   3.754  15.269  0.00  0.00    +0.000 OA
BRANCH  18  20
ATOM     19  C   UNL     1       6.059   3.581  12.901  0.00  0.00    +0.000 C 
ATOM     20  C   UNL     1       6.624   4.403  14.053  0.00  0.00    +0.000 C 
ENDBRANCH  18  20
ENDBRANCH  16  18
ENDBRANCH   1  16
TORSDOF 3
ENDMDL
MODEL 2
REMARK VINA RESULT:      -7.3      1.014      1.933
REMARK  Name = 
REMARK  4 active torsions:
REMARK  status: ('A' for Active; 'I' for Inactive)
REMARK    1  A    between atoms: C_1  and  C_2
REMARK    2  A    between atoms: C_2  and  O_3
REMARK    3  A    between atoms: O_3  and  C_4
REMARK    4  A    between atoms: C_4  and  C_6
REMARK                            x       y       z     vdW  Elec       q    Type
REMARK                         _______ _______ _______ _____ _____    ______ ____
ROOT
ATOM      1  C   UNL     1       5.101   5.176  16.943  0.00  0.00    +0.000 A 
ATOM      2  N   UNL     1       4.649   6.471  16.720  0.00  0.00    +0.000 N 
ATOM      3  C   UNL     1       3.717   6.838  17.665  0.00  0.00    +0.000 A 
ATOM      4  C   UNL     1       2.976   8.004  17.885  0.00  0.00    +0.000 A 
ATOM      5  C   UNL     1       2.105   8.015  18.995  0.00  0.00    +0.000 A 
ATOM      6  C   UNL     1       1.979   6.913  19.850  0.00  0.00    +0.000 A 
ATOM      7  C   UNL     1       2.709   5.759  19.585  0.00  0.00    +0.000 A 
ATOM      8  C   UNL     1       3.575   5.742  18.494  0.00  0.00    +0.000 A 
ATOM      9  C   UNL     1       4.407   4.702  18.041  0.00  0.00    +0.000 A 
ATOM     10  C   UNL     1       4.438   3.407  18.784  0.00  0.00    +0.000 C 
ATOM     11  C   UNL     1       3.165   3.226  19.639  0.00  0.00    +0.000 C 
ATOM     12 BR   UNL     1       1.676   2.620  18.496  0.00  0.00    +0.000 Br
ATOM     13  C   UNL     1       2.641   4.487  20.347  0.00  0.00    +0.000 C 
ATOM     14  O   UNL     1       2.145   4.473  21.471  0.00  0.00    +0.000 OA
ATOM     15  H   UNL     1       4.999   7.070  15.982  0.00  0.00    +0.000 HD
ENDROOT
BRANCH   1  16
ATOM     16  C   UNL     1       6.145   4.516  16.201  0.00  0.00    +0.000 C 
ATOM     17  O   UNL     1       5.987   3.550  15.467  0.00  0.00    +0.000 OA
BRANCH  16  18
ATOM     18  O   UNL     1       7.350   5.042  16.558  0.00  0.00    +0.000 OA
BRANCH  18  20
ATOM     19  C   UNL     1       7.857   5.882  18.727  0.00  0.00    +0.000 C 
ATOM     20  C   UNL     1       7.807   4.633  17.855  0.00  0.00    +0.000 C 
ENDBRANCH  18  20
ENDBRANCH  16  18
ENDBRANCH   1  16
TORSDOF 3
ENDMDL
MODEL 3
REMARK VINA RESULT:      -7.3      2.624      4.580
REMARK  Name = 
REMARK  4 active torsions:
REMARK  status: ('A' for Active; 'I' for Inactive)
REMARK    1  A    between atoms: C_1  and  C_2
REMARK    2  A    between atoms: C_2  and  O_3
REMARK    3  A    between atoms: O_3  and  C_4
REMARK    4  A    between atoms: C_4  and  C_6
REMARK                            x       y       z     vdW  Elec       q    Type
REMARK                         _______ _______ _______ _____ _____    ______ ____
ROOT
ATOM      1  C   UNL     1       3.685   4.105  19.666  0.00  0.00    +0.000 A 
ATOM      2  N   UNL     1       2.840   5.066  20.206  0.00  0.00    +0.000 N 
ATOM      3  C   UNL     1       2.833   6.207  19.433  0.00  0.00    +0.000 A 
ATOM      4  C   UNL     1       2.167   7.433  19.534  0.00  0.00    +0.000 A 
ATOM      5  C   UNL     1       2.406   8.381  18.516  0.00  0.00    +0.000 A 
ATOM      6  C   UNL     1       3.269   8.119  17.444  0.00  0.00    +0.000 A 
ATOM      7  C   UNL     1       3.937   6.899  17.392  0.00  0.00    +0.000 A 
ATOM      8  C   UNL     1       3.703   5.956  18.390  0.00  0.00    +0.000 A 
ATOM      9  C   UNL     1       4.253   4.670  18.539  0.00  0.00    +0.000 A 
ATOM     10  C   UNL     1       5.221   4.162  17.522  0.00  0.00    +0.000 C 
ATOM     11  C   UNL     1       5.865   5.324  16.736  0.00  0.00    +0.000 C 
ATOM     12 BR   UNL     1       7.306   6.137  17.811  0.00  0.00    +0.000 Br
ATOM     13  C   UNL     1       4.931   6.491  16.369  0.00  0.00    +0.000 C 
ATOM     14  O   UNL     1       5.004   7.104  15.307  0.00  0.00    +0.000 OA
ATOM     15  H   UNL     1       2.276   4.919  21.034  0.00  0.00    +0.000 HD
ENDROOT
BRANCH   1  16
ATOM     16  C   UNL     1       3.854   2.764  20.166  0.00  0.00    +0.000 C 
ATOM     17  O   UNL     1       4.929   2.228  20.398  0.00  0.00    +0.000 OA
BRANCH  16  18
ATOM     18  O   UNL     1       2.643   2.143  20.201  0.00  0.00    +0.000 OA
BRANCH  18  20
ATOM     19  C   UNL     1       0.726   2.435  18.820  0.00  0.00    +0.000 C 
ATOM     20  C   UNL     1       2.115   1.814  18.908  0.00  0.00    +0.000 C 
ENDBRANCH  18  20
ENDBRANCH  16  18
ENDBRANCH   1  16
TORSDOF 3
ENDMDL
MODEL 4
REMARK VINA RESULT:      -7.1      1.513      2.215
REMARK  Name = 
REMARK  4 active torsions:
REMARK  status: ('A' for Active; 'I' for Inactive)
REMARK    1  A    between atoms: C_1  and  C_2
REMARK    2  A    between atoms: C_2  and  O_3
REMARK    3  A    between atoms: O_3  and  C_4
REMARK    4  A    between atoms: C_4  and  C_6
REMARK                            x       y       z     vdW  Elec       q    Type
REMARK                         _______ _______ _______ _____ _____    ______ ____
ROOT
ATOM      1  C   UNL     1       4.326   5.715  17.176  0.00  0.00    +0.000 A 
ATOM      2  N   UNL     1       3.755   6.974  17.313  0.00  0.00    +0.000 N 
ATOM      3  C   UNL     1       2.964   7.038  18.439  0.00  0.00    +0.000 A 
ATOM      4  C   UNL     1       2.190   8.050  19.015  0.00  0.00    +0.000 A 
ATOM      5  C   UNL     1       1.511   7.740  20.212  0.00  0.00    +0.000 A 
ATOM      6  C   UNL     1       1.600   6.476  20.810  0.00  0.00    +0.000 A 
ATOM      7  C   UNL     1       2.356   5.484  20.194  0.00  0.00    +0.000 A 
ATOM      8  C   UNL     1       3.034   5.784  19.015  0.00  0.00    +0.000 A 
ATOM      9  C   UNL     1       3.852   4.953  18.228  0.00  0.00    +0.000 A 
ATOM     10  C   UNL     1       4.091   3.541  18.653  0.00  0.00    +0.000 C 
ATOM     11  C   UNL     1       2.988   3.056  19.618  0.00  0.00    +0.000 C 
ATOM     12 BR   UNL     1       1.380   2.553  18.593  0.00  0.00    +0.000 Br
ATOM     13  C   UNL     1       2.499   4.081  20.656  0.00  0.00    +0.000 C 
ATOM     14  O   UNL     1       2.193   3.781  21.807  0.00  0.00    +0.000 OA
ATOM     15  H   UNL     1       3.940   7.747  16.685  0.00  0.00    +0.000 HD
ENDROOT
BRANCH   1  16
ATOM     16  C   UNL     1       5.280   5.334  16.165  0.00  0.00    +0.000 C 
ATOM     17  O   UNL     1       5.228   4.311  15.496  0.00  0.00    +0.000 OA
BRANCH  16  18
ATOM     18  O   UNL     1       6.319   6.214  16.176  0.00  0.00    +0.000 OA
BRANCH  18  20
ATOM     19  C   UNL     1       7.620   7.471  17.723  0.00  0.00    +0.000 C 
ATOM     20  C   UNL     1       7.199   6.069  17.300  0.00  0.00    +0.000 C 
ENDBRANCH  18  20
ENDBRANCH  16  18
ENDBRANCH   1  16
TORSDOF 3
ENDMDL
MODEL 5
REMARK VINA RESULT:      -7.1      1.149      1.413
REMARK  Name = 
REMARK  4 active torsions:
REMARK  status: ('A' for Active; 'I' for Inactive)
REMARK    1  A    between atoms: C_1  and  C_2
REMARK    2  A    between atoms: C_2  and  O_3
REMARK    3  A    between atoms: O_3  and  C_4
REMARK    4  A    between atoms: C_4  and  C_6
REMARK                            x       y       z     vdW  Elec       q    Type
REMARK                         _______ _______ _______ _____ _____    ______ ____
ROOT
ATOM      1  C   UNL     1       5.264   5.102  18.198  0.00  0.00    +0.000 A 
ATOM      2  N   UNL     1       4.637   6.339  18.116  0.00  0.00    +0.000 N 
ATOM      3  C   UNL     1       3.543   6.394  18.953  0.00  0.00    +0.000 A 
ATOM      4  C   UNL     1       2.598   7.385  19.237  0.00  0.00    +0.000 A 
ATOM      5  C   UNL     1       1.603   7.073  20.188  0.00  0.00    +0.000 A 
ATOM      6  C   UNL     1       1.552   5.828  20.828  0.00  0.00    +0.000 A 
ATOM      7  C   UNL     1       2.491   4.856  20.499  0.00  0.00    +0.000 A 
ATOM      8  C   UNL     1       3.480   5.157  19.565  0.00  0.00    +0.000 A 
ATOM      9  C   UNL     1       4.523   4.344  19.087  0.00  0.00    +0.000 A 
ATOM     10  C   UNL     1       4.672   2.954  19.611  0.00  0.00    +0.000 C 
ATOM     11  C   UNL     1       3.348   2.444  20.220  0.00  0.00    +0.000 C 
ATOM     12 BR   UNL     1       2.138   1.851  18.780  0.00  0.00    +0.000 Br
ATOM     13  C   UNL     1       2.537   3.471  21.029  0.00  0.00    +0.000 C 
ATOM     14  O   UNL     1       1.910   3.184  22.047  0.00  0.00    +0.000 OA
ATOM     15  H   UNL     1       4.974   7.105  17.546  0.00  0.00    +0.000 HD
ENDROOT
BRANCH   1  16
ATOM     16  C   UNL     1       6.489   4.740  17.531  0.00  0.00    +0.000 C 
ATOM     17  O   UNL     1       7.520   4.392  18.090  0.00  0.00    +0.000 OA
BRANCH  16  18
ATOM     18  O   UNL     1       6.362   4.985  16.198  0.00  0.00    +0.000 OA
BRANCH  18  20
ATOM     19  C   UNL     1       6.181   3.975  14.050  0.00  0.00    +0.000 C 
ATOM     20  C   UNL     1       5.652   3.965  15.479  0.00  0.00    +0.000 C 
ENDBRANCH  18  20
ENDBRANCH  16  18
ENDBRANCH   1  16
TORSDOF 3
ENDMDL
MODEL 6
REMARK VINA RESULT:      -7.1      1.951      2.631
REMARK  Name = 
REMARK  4 active torsions:
REMARK  status: ('A' for Active; 'I' for Inactive)
REMARK    1  A    between atoms: C_1  and  C_2
REMARK    2  A    between atoms: C_2  and  O_3
REMARK    3  A    between atoms: O_3  and  C_4
REMARK    4  A    between atoms: C_4  and  C_6
REMARK                            x       y       z     vdW  Elec       q    Type
REMARK                         _______ _______ _______ _____ _____    ______ ____
ROOT
ATOM      1  C   UNL     1       4.426   6.430  17.287  0.00  0.00    +0.000 A 
ATOM      2  N   UNL     1       3.587   7.417  17.789  0.00  0.00    +0.000 N 
ATOM      3  C   UNL     1       2.869   6.951  18.869  0.00  0.00    +0.000 A 
ATOM      4  C   UNL     1       1.914   7.531  19.711  0.00  0.00    +0.000 A 
ATOM      5  C   UNL     1       1.396   6.726  20.747  0.00  0.00    +0.000 A 
ATOM      6  C   UNL     1       1.812   5.401  20.937  0.00  0.00    +0.000 A 
ATOM      7  C   UNL     1       2.741   4.848  20.063  0.00  0.00    +0.000 A 
ATOM      8  C   UNL     1       3.262   5.638  19.040  0.00  0.00    +0.000 A 
ATOM      9  C   UNL     1       4.204   5.299  18.053  0.00  0.00    +0.000 A 
ATOM     10  C   UNL     1       4.790   3.925  18.035  0.00  0.00    +0.000 C 
ATOM     11  C   UNL     1       3.888   2.926  18.791  0.00  0.00    +0.000 C 
ATOM     12 BR   UNL     1       2.385   2.381  17.636  0.00  0.00    +0.000 Br
ATOM     13  C   UNL     1       3.234   3.449  20.081  0.00  0.00    +0.000 C 
ATOM     14  O   UNL     1       3.073   2.756  21.083  0.00  0.00    +0.000 OA
ATOM     15  H   UNL     1       3.549   8.361  17.426  0.00  0.00    +0.000 HD
ENDROOT
BRANCH   1  16
ATOM     16  C   UNL     1       5.383   6.606  16.224  0.00  0.00    +0.000 C 
ATOM     17  O   UNL     1       5.262   6.172  15.087  0.00  0.00    +0.000 OA
BRANCH  16  18
ATOM     18  O   UNL     1       6.501   7.204  16.723  0.00  0.00    +0.000 OA
BRANCH  18  20
ATOM     19  C   UNL     1       7.886   6.670  18.583  0.00  0.00    +0.000 C 
ATOM     20  C   UNL     1       7.513   6.284  17.157  0.00  0.00    +0.000 C 
ENDBRANCH  18  20
ENDBRANCH  16  18
ENDBRANCH   1  16
TORSDOF 3
ENDMDL
MODEL 7
REMARK VINA RESULT:      -7.0      1.292      1.602
REMARK  Name = 
REMARK  4 active torsions:
REMARK  status: ('A' for Active; 'I' for Inactive)
REMARK    1  A    between atoms: C_1  and  C_2
REMARK    2  A    between atoms: C_2  and  O_3
REMARK    3  A    between atoms: O_3  and  C_4
REMARK    4  A    between atoms: C_4  and  C_6
REMARK                            x       y       z     vdW  Elec       q    Type
REMARK                         _______ _______ _______ _____ _____    ______ ____
ROOT
ATOM      1  C   UNL     1       4.744   6.176  17.356  0.00  0.00    +0.000 A 
ATOM      2  N   UNL     1       3.910   7.220  17.734  0.00  0.00    +0.000 N 
ATOM      3  C   UNL     1       3.085   6.842  18.771  0.00  0.00    +0.000 A 
ATOM      4  C   UNL     1       2.090   7.502  19.499  0.00  0.00    +0.000 A 
ATOM      5  C   UNL     1       1.454   6.775  20.528  0.00  0.00    +0.000 A 
ATOM      6  C   UNL     1       1.796   5.448  20.819  0.00  0.00    +0.000 A 
ATOM      7  C   UNL     1       2.770   4.813  20.055  0.00  0.00    +0.000 A 
ATOM      8  C   UNL     1       3.406   5.526  19.041  0.00  0.00    +0.000 A 
ATOM      9  C   UNL     1       4.412   5.098  18.156  0.00  0.00    +0.000 A 
ATOM     10  C   UNL     1       4.938   3.704  18.257  0.00  0.00    +0.000 C 
ATOM     11  C   UNL     1       3.935   2.782  18.984  0.00  0.00    +0.000 C 
ATOM     12 BR   UNL     1       2.510   2.233  17.735  0.00  0.00    +0.000 Br
ATOM     13  C   UNL     1       3.199   3.399  20.186  0.00  0.00    +0.000 C 
ATOM     14  O   UNL     1       2.926   2.768  21.205  0.00  0.00    +0.000 OA
ATOM     15  H   UNL     1       3.943   8.145  17.322  0.00  0.00    +0.000 HD
ENDROOT
BRANCH   1  16
ATOM     16  C   UNL     1       5.793   6.258  16.370  0.00  0.00    +0.000 C 
ATOM     17  O   UNL     1       6.763   7.001  16.433  0.00  0.00    +0.000 OA
BRANCH  16  18
ATOM     18  O   UNL     1       5.459   5.490  15.297  0.00  0.00    +0.000 OA
BRANCH  18  20
ATOM     19  C   UNL     1       5.977   3.857  13.644  0.00  0.00    +0.000 C 
ATOM     20  C   UNL     1       6.492   4.585  14.880  0.00  0.00    +0.000 C 
ENDBRANCH  18  20
ENDBRANCH  16  18
ENDBRANCH   1  16
TORSDOF 3
ENDMDL
MODEL 8
REMARK VINA RESULT:      -6.8      2.632      4.974
REMARK  Name = 
REMARK  4 active torsions:
REMARK  status: ('A' for Active; 'I' for Inactive)
REMARK    1  A    between atoms: C_1  and  C_2
REMARK    2  A    between atoms: C_2  and  O_3
REMARK    3  A    between atoms: O_3  and  C_4
REMARK    4  A    between atoms: C_4  and  C_6
REMARK                            x       y       z     vdW  Elec       q    Type
REMARK                         _______ _______ _______ _____ _____    ______ ____
ROOT
ATOM      1  C   UNL     1       2.332   4.872  20.570  0.00  0.00    +0.000 A 
ATOM      2  N   UNL     1       1.720   6.114  20.687  0.00  0.00    +0.000 N 
ATOM      3  C   UNL     1       2.134   6.964  19.685  0.00  0.00    +0.000 A 
ATOM      4  C   UNL     1       1.826   8.289  19.360  0.00  0.00    +0.000 A 
ATOM      5  C   UNL     1       2.453   8.835  18.220  0.00  0.00    +0.000 A 
ATOM      6  C   UNL     1       3.347   8.093  17.438  0.00  0.00    +0.000 A 
ATOM      7  C   UNL     1       3.652   6.787  17.808  0.00  0.00    +0.000 A 
ATOM      8  C   UNL     1       3.033   6.239  18.929  0.00  0.00    +0.000 A 
ATOM      9  C   UNL     1       3.181   4.954  19.482  0.00  0.00    +0.000 A 
ATOM     10  C   UNL     1       4.101   3.974  18.830  0.00  0.00    +0.000 C 
ATOM     11  C   UNL     1       5.141   4.691  17.943  0.00  0.00    +0.000 C 
ATOM     12 BR   UNL     1       6.590   5.414  19.069  0.00  0.00    +0.000 Br
ATOM     13  C   UNL     1       4.624   5.892  17.132  0.00  0.00    +0.000 C 
ATOM     14  O   UNL     1       5.008   6.152  15.995  0.00  0.00    +0.000 OA
ATOM     15  H   UNL     1       1.031   6.337  21.395  0.00  0.00    +0.000 HD
ENDROOT
BRANCH   1  16
ATOM     16  C   UNL     1       2.054   3.722  21.393  0.00  0.00    +0.000 C 
ATOM     17  O   UNL     1       2.741   3.345  22.333  0.00  0.00    +0.000 OA
BRANCH  16  18
ATOM     18  O   UNL     1       0.996   3.042  20.871  0.00  0.00    +0.000 OA
BRANCH  18  20
ATOM     19  C   UNL     1       0.651   2.326  18.627  0.00  0.00    +0.000 C 
ATOM     20  C   UNL     1       1.362   2.014  19.939  0.00  0.00    +0.000 C 
ENDBRANCH  18  20
ENDBRANCH  16  18
ENDBRANCH   1  16
TORSDOF 3
ENDMDL
MODEL 9
REMARK VINA RESULT:      -6.7      2.904      5.239
REMARK  Name = 
REMARK  4 active torsions:
REMARK  status: ('A' for Active; 'I' for Inactive)
REMARK    1  A    between atoms: C_1  and  C_2
REMARK    2  A    between atoms: C_2  and  O_3
REMARK    3  A    between atoms: O_3  and  C_4
REMARK    4  A    between atoms: C_4  and  C_6
REMARK                            x       y       z     vdW  Elec       q    Type
REMARK                         _______ _______ _______ _____ _____    ______ ____
ROOT
ATOM      1  C   UNL     1       4.790   3.417  19.008  0.00  0.00    +0.000 A 
ATOM      2  N   UNL     1       5.827   3.931  19.776  0.00  0.00    +0.000 N 
ATOM      3  C   UNL     1       6.438   4.987  19.137  0.00  0.00    +0.000 A 
ATOM      4  C   UNL     1       7.504   5.829  19.473  0.00  0.00    +0.000 A 
ATOM      5  C   UNL     1       7.846   6.836  18.546  0.00  0.00    +0.000 A 
ATOM      6  C   UNL     1       7.157   6.998  17.337  0.00  0.00    +0.000 A 
ATOM      7  C   UNL     1       6.122   6.124  17.023  0.00  0.00    +0.000 A 
ATOM      8  C   UNL     1       5.774   5.130  17.935  0.00  0.00    +0.000 A 
ATOM      9  C   UNL     1       4.770   4.149  17.835  0.00  0.00    +0.000 A 
ATOM     10  C   UNL     1       3.902   4.105  16.620  0.00  0.00    +0.000 C 
ATOM     11  C   UNL     1       4.575   4.821  15.429  0.00  0.00    +0.000 C 
ATOM     12 BR   UNL     1       5.914   3.629  14.606  0.00  0.00    +0.000 Br
ATOM     13  C   UNL     1       5.339   6.114  15.762  0.00  0.00    +0.000 C 
ATOM     14  O   UNL     1       5.357   7.095  15.022  0.00  0.00    +0.000 OA
ATOM     15  H   UNL     1       6.063   3.592  20.701  0.00  0.00    +0.000 HD
ENDROOT
BRANCH   1  16
ATOM     16  C   UNL     1       3.883   2.374  19.417  0.00  0.00    +0.000 C 
ATOM     17  O   UNL     1       3.623   1.371  18.767  0.00  0.00    +0.000 OA
BRANCH  16  18
ATOM     18  O   UNL     1       3.256   2.751  20.565  0.00  0.00    +0.000 OA
BRANCH  18  20
ATOM     19  C   UNL     1       1.223   3.934  20.202  0.00  0.00    +0.000 C 
ATOM     20  C   UNL     1       1.832   2.579  20.539  0.00  0.00    +0.000 C 
ENDBRANCH  18  20
ENDBRANCH  16  18
ENDBRANCH   1  16
TORSDOF 3
ENDMDL
