MODEL 1
REMARK VINA RESULT:      -6.6      0.000      0.000
REMARK  Name = 
REMARK  6 active torsions:
REMARK  status: ('A' for Active; 'I' for Inactive)
REMARK    1  A    between atoms: C_1  and  C_2
REMARK    2  A    between atoms: C_2  and  N_3
REMARK    3  A    between atoms: N_3  and  C_4
REMARK    4  A    between atoms: C_4  and  C_5
REMARK    5  A    between atoms: C_11  and  C_13
REMARK    6  A    between atoms: C_16  and  C_17
REMARK                            x       y       z     vdW  Elec       q    Type
REMARK                         _______ _______ _______ _____ _____    ______ ____
ROOT
ATOM      1  N   UNL     1       2.730   4.185  18.904  0.00  0.00    +0.000 N 
ATOM      2  C   UNL     1       3.852   3.448  18.460  0.00  0.00    +0.000 C 
ATOM      3  O   UNL     1       3.839   2.220  18.422  0.00  0.00    +0.000 OA
ENDROOT
BRANCH   2   4
ATOM      4  C   UNL     1       5.064   4.171  18.095  0.00  0.00    +0.000 A 
ATOM      5  C   UNL     1       5.492   4.587  16.848  0.00  0.00    +0.000 A 
ATOM      6  C   UNL     1       6.739   5.222  17.029  0.00  0.00    +0.000 A 
ATOM      7  C   UNL     1       6.984   5.205  18.384  0.00  0.00    +0.000 A 
ATOM      8  C   UNL     1       8.080   5.741  19.215  0.00  0.00    +0.000 C 
ATOM      9  O   UNL     1       5.976   4.560  19.040  0.00  0.00    +0.000 OA
ENDBRANCH   2   4
BRANCH   1  11
ATOM     10  C   UNL     1       1.105   3.314  20.680  0.00  0.00    +0.000 C 
ATOM     11  C   UNL     1       1.508   3.428  19.212  0.00  0.00    +0.000 C 
ENDBRANCH   1  11
BRANCH   1  12
ATOM     12  C   UNL     1       3.010   5.296  19.822  0.00  0.00    +0.000 C 
BRANCH  12  13
ATOM     13  C   UNL     1       2.472   6.663  19.476  0.00  0.00    +0.000 A 
ATOM     14  C   UNL     1       1.799   7.502  20.363  0.00  0.00    +0.000 A 
ATOM     15  C   UNL     1       1.368   8.743  19.909  0.00  0.00    +0.000 A 
ATOM     16  N   UNL     1       1.561   9.202  18.652  0.00  0.00    +0.000 NA
ATOM     17  C   UNL     1       2.213   8.383  17.806  0.00  0.00    +0.000 A 
ATOM     18  C   UNL     1       2.684   7.132  18.169  0.00  0.00    +0.000 A 
ENDBRANCH  12  13
ENDBRANCH   1  12
TORSDOF 4
ENDMDL
MODEL 2
REMARK VINA RESULT:      -6.5      0.622      1.263
REMARK  Name = 
REMARK  6 active torsions:
REMARK  status: ('A' for Active; 'I' for Inactive)
REMARK    1  A    between atoms: C_1  and  C_2
REMARK    2  A    between atoms: C_2  and  N_3
REMARK    3  A    between atoms: N_3  and  C_4
REMARK    4  A    between atoms: C_4  and  C_5
REMARK    5  A    between atoms: C_11  and  C_13
REMARK    6  A    between atoms: C_16  and  C_17
REMARK                            x       y       z     vdW  Elec       q    Type
REMARK                         _______ _______ _______ _____ _____    ______ ____
ROOT
ATOM      1  N   UNL     1       2.686   4.668  18.606  0.00  0.00    +0.000 N 
ATOM      2  C   UNL     1       3.877   4.004  18.236  0.00  0.00    +0.000 C 
ATOM      3  O   UNL     1       3.913   2.784  18.091  0.00  0.00    +0.000 OA
ENDROOT
BRANCH   2   4
ATOM      4  C   UNL     1       5.097   4.787  18.081  0.00  0.00    +0.000 A 
ATOM      5  C   UNL     1       5.465   5.638  17.056  0.00  0.00    +0.000 A 
ATOM      6  C   UNL     1       6.750   6.132  17.369  0.00  0.00    +0.000 A 
ATOM      7  C   UNL     1       7.077   5.596  18.595  0.00  0.00    +0.000 A 
ATOM      8  C   UNL     1       8.247   5.754  19.482  0.00  0.00    +0.000 C 
ATOM      9  O   UNL     1       6.083   4.770  19.032  0.00  0.00    +0.000 OA
ENDBRANCH   2   4
BRANCH   1  11
ATOM     10  C   UNL     1       0.929   3.554  20.098  0.00  0.00    +0.000 C 
ATOM     11  C   UNL     1       1.464   3.856  18.700  0.00  0.00    +0.000 C 
ENDBRANCH   1  11
BRANCH   1  12
ATOM     12  C   UNL     1       2.818   5.699  19.644  0.00  0.00    +0.000 C 
BRANCH  12  13
ATOM     13  C   UNL     1       2.302   7.086  19.346  0.00  0.00    +0.000 A 
ATOM     14  C   UNL     1       2.387   7.717  18.106  0.00  0.00    +0.000 A 
ATOM     15  C   UNL     1       1.858   8.996  17.972  0.00  0.00    +0.000 A 
ATOM     16  N   UNL     1       1.255   9.678  18.972  0.00  0.00    +0.000 NA
ATOM     17  C   UNL     1       1.179   9.056  20.164  0.00  0.00    +0.000 A 
ATOM     18  C   UNL     1       1.672   7.782  20.391  0.00  0.00    +0.000 A 
ENDBRANCH  12  13
ENDBRANCH   1  12
TORSDOF 4
ENDMDL
MODEL 3
REMARK VINA RESULT:      -6.4      1.311      1.599
REMARK  Name = 
REMARK  6 active torsions:
REMARK  status: ('A' for Active; 'I' for Inactive)
REMARK    1  A    between atoms: C_1  and  C_2
REMARK    2  A    between atoms: C_2  and  N_3
REMARK    3  A    between atoms: N_3  and  C_4
REMARK    4  A    between atoms: C_4  and  C_5
REMARK    5  A    between atoms: C_11  and  C_13
REMARK    6  A    between atoms: C_16  and  C_17
REMARK                            x       y       z     vdW  Elec       q    Type
REMARK                         _______ _______ _______ _____ _____    ______ ____
ROOT
ATOM      1  N   UNL     1       3.115   5.166  18.110  0.00  0.00    +0.000 N 
ATOM      2  C   UNL     1       4.344   4.506  17.885  0.00  0.00    +0.000 C 
ATOM      3  O   UNL     1       4.385   3.341  17.495  0.00  0.00    +0.000 OA
ENDROOT
BRANCH   2   4
ATOM      4  C   UNL     1       5.584   5.214  18.180  0.00  0.00    +0.000 A 
ATOM      5  C   UNL     1       6.576   4.897  19.090  0.00  0.00    +0.000 A 
ATOM      6  C   UNL     1       7.552   5.914  19.007  0.00  0.00    +0.000 A 
ATOM      7  C   UNL     1       7.130   6.771  18.016  0.00  0.00    +0.000 A 
ATOM      8  C   UNL     1       7.716   7.988  17.421  0.00  0.00    +0.000 C 
ATOM      9  O   UNL     1       5.930   6.359  17.513  0.00  0.00    +0.000 OA
ENDBRANCH   2   4
BRANCH   1  11
ATOM     10  C   UNL     1       1.210   3.623  18.848  0.00  0.00    +0.000 C 
ATOM     11  C   UNL     1       1.887   4.442  17.751  0.00  0.00    +0.000 C 
ENDBRANCH   1  11
BRANCH   1  12
ATOM     12  C   UNL     1       3.022   5.954  19.346  0.00  0.00    +0.000 C 
BRANCH  12  13
ATOM     13  C   UNL     1       2.333   7.295  19.290  0.00  0.00    +0.000 A 
ATOM     14  C   UNL     1       1.646   7.882  20.352  0.00  0.00    +0.000 A 
ATOM     15  C   UNL     1       1.066   9.131  20.162  0.00  0.00    +0.000 A 
ATOM     16  N   UNL     1       1.125   9.828  19.004  0.00  0.00    +0.000 NA
ATOM     17  C   UNL     1       1.792   9.250  17.987  0.00  0.00    +0.000 A 
ATOM     18  C   UNL     1       2.406   8.013  18.085  0.00  0.00    +0.000 A 
ENDBRANCH  12  13
ENDBRANCH   1  12
TORSDOF 4
ENDMDL
MODEL 4
REMARK VINA RESULT:      -6.3      1.008      1.856
REMARK  Name = 
REMARK  6 active torsions:
REMARK  status: ('A' for Active; 'I' for Inactive)
REMARK    1  A    between atoms: C_1  and  C_2
REMARK    2  A    between atoms: C_2  and  N_3
REMARK    3  A    between atoms: N_3  and  C_4
REMARK    4  A    between atoms: C_4  and  C_5
REMARK    5  A    between atoms: C_11  and  C_13
REMARK    6  A    between atoms: C_16  and  C_17
REMARK                            x       y       z     vdW  Elec       q    Type
REMARK                         _______ _______ _______ _____ _____    ______ ____
ROOT
ATOM      1  N   UNL     1       2.683   4.475  18.622  0.00  0.00    +0.000 N 
ATOM      2  C   UNL     1       3.662   3.552  18.187  0.00  0.00    +0.000 C 
ATOM      3  O   UNL     1       3.483   2.340  18.271  0.00  0.00    +0.000 OA
ENDROOT
BRANCH   2   4
ATOM      4  C   UNL     1       4.932   4.064  17.685  0.00  0.00    +0.000 A 
ATOM      5  C   UNL     1       6.037   4.503  18.390  0.00  0.00    +0.000 A 
ATOM      6  C   UNL     1       6.994   4.918  17.440  0.00  0.00    +0.000 A 
ATOM      7  C   UNL     1       6.443   4.663  16.204  0.00  0.00    +0.000 A 
ATOM      8  C   UNL     1       6.946   4.826  14.825  0.00  0.00    +0.000 C 
ATOM      9  O   UNL     1       5.186   4.153  16.342  0.00  0.00    +0.000 OA
ENDBRANCH   2   4
BRANCH   1  11
ATOM     10  C   UNL     1       1.158   3.838  20.578  0.00  0.00    +0.000 C 
ATOM     11  C   UNL     1       1.395   3.927  19.072  0.00  0.00    +0.000 C 
ENDBRANCH   1  11
BRANCH   1  12
ATOM     12  C   UNL     1       3.172   5.613  19.410  0.00  0.00    +0.000 C 
BRANCH  12  13
ATOM     13  C   UNL     1       2.567   6.972  19.158  0.00  0.00    +0.000 A 
ATOM     14  C   UNL     1       2.630   7.660  17.947  0.00  0.00    +0.000 A 
ATOM     15  C   UNL     1       2.015   8.904  17.854  0.00  0.00    +0.000 A 
ATOM     16  N   UNL     1       1.348   9.499  18.868  0.00  0.00    +0.000 NA
ATOM     17  C   UNL     1       1.294   8.824  20.031  0.00  0.00    +0.000 A 
ATOM     18  C   UNL     1       1.871   7.579  20.217  0.00  0.00    +0.000 A 
ENDBRANCH  12  13
ENDBRANCH   1  12
TORSDOF 4
ENDMDL
MODEL 5
REMARK VINA RESULT:      -6.3      0.967      1.472
REMARK  Name = 
REMARK  6 active torsions:
REMARK  status: ('A' for Active; 'I' for Inactive)
REMARK    1  A    between atoms: C_1  and  C_2
REMARK    2  A    between atoms: C_2  and  N_3
REMARK    3  A    between atoms: N_3  and  C_4
REMARK    4  A    between atoms: C_4  and  C_5
REMARK    5  A    between atoms: C_11  and  C_13
REMARK    6  A    between atoms: C_16  and  C_17
REMARK                            x       y       z     vdW  Elec       q    Type
REMARK                         _______ _______ _______ _____ _____    ______ ____
ROOT
ATOM      1  N   UNL     1       2.694   4.386  18.710  0.00  0.00    +0.000 N 
ATOM      2  C   UNL     1       3.677   3.483  18.243  0.00  0.00    +0.000 C 
ATOM      3  O   UNL     1       3.513   2.267  18.308  0.00  0.00    +0.000 OA
ENDROOT
BRANCH   2   4
ATOM      4  C   UNL     1       4.932   4.018  17.729  0.00  0.00    +0.000 A 
ATOM      5  C   UNL     1       6.025   4.502  18.424  0.00  0.00    +0.000 A 
ATOM      6  C   UNL     1       6.971   4.923  17.464  0.00  0.00    +0.000 A 
ATOM      7  C   UNL     1       6.427   4.626  16.234  0.00  0.00    +0.000 A 
ATOM      8  C   UNL     1       6.925   4.773  14.853  0.00  0.00    +0.000 C 
ATOM      9  O   UNL     1       5.183   4.085  16.384  0.00  0.00    +0.000 OA
ENDBRANCH   2   4
BRANCH   1  11
ATOM     10  C   UNL     1       1.187   3.749  20.679  0.00  0.00    +0.000 C 
ATOM     11  C   UNL     1       1.421   3.815  19.171  0.00  0.00    +0.000 C 
ENDBRANCH   1  11
BRANCH   1  12
ATOM     12  C   UNL     1       3.184   5.516  19.510  0.00  0.00    +0.000 C 
BRANCH  12  13
ATOM     13  C   UNL     1       2.554   6.870  19.297  0.00  0.00    +0.000 A 
ATOM     14  C   UNL     1       1.843   7.578  20.265  0.00  0.00    +0.000 A 
ATOM     15  C   UNL     1       1.325   8.825  19.932  0.00  0.00    +0.000 A 
ATOM     16  N   UNL     1       1.468   9.409  18.721  0.00  0.00    +0.000 NA
ATOM     17  C   UNL     1       2.158   8.714  17.796  0.00  0.00    +0.000 A 
ATOM     18  C   UNL     1       2.714   7.469  18.037  0.00  0.00    +0.000 A 
ENDBRANCH  12  13
ENDBRANCH   1  12
TORSDOF 4
ENDMDL
MODEL 6
REMARK VINA RESULT:      -6.3      1.416      1.623
REMARK  Name = 
REMARK  6 active torsions:
REMARK  status: ('A' for Active; 'I' for Inactive)
REMARK    1  A    between atoms: C_1  and  C_2
REMARK    2  A    between atoms: C_2  and  N_3
REMARK    3  A    between atoms: N_3  and  C_4
REMARK    4  A    between atoms: C_4  and  C_5
REMARK    5  A    between atoms: C_11  and  C_13
REMARK    6  A    between atoms: C_16  and  C_17
REMARK                            x       y       z     vdW  Elec       q    Type
REMARK                         _______ _______ _______ _____ _____    ______ ____
ROOT
ATOM      1  N   UNL     1       3.378   3.221  18.225  0.00  0.00    +0.000 N 
ATOM      2  C   UNL     1       4.698   3.526  18.630  0.00  0.00    +0.000 C 
ATOM      3  O   UNL     1       5.155   3.110  19.693  0.00  0.00    +0.000 OA
ENDROOT
BRANCH   2   4
ATOM      4  C   UNL     1       5.504   4.402  17.789  0.00  0.00    +0.000 A 
ATOM      5  C   UNL     1       5.786   4.299  16.439  0.00  0.00    +0.000 A 
ATOM      6  C   UNL     1       6.630   5.382  16.110  0.00  0.00    +0.000 A 
ATOM      7  C   UNL     1       6.777   6.118  17.265  0.00  0.00    +0.000 A 
ATOM      8  C   UNL     1       7.487   7.375  17.574  0.00  0.00    +0.000 C 
ATOM      9  O   UNL     1       6.104   5.525  18.294  0.00  0.00    +0.000 OA
ENDBRANCH   2   4
BRANCH   1  11
ATOM     10  C   UNL     1       1.126   2.127  18.760  0.00  0.00    +0.000 C 
ATOM     11  C   UNL     1       2.613   2.293  19.069  0.00  0.00    +0.000 C 
ENDBRANCH   1  11
BRANCH   1  12
ATOM     12  C   UNL     1       2.597   4.337  17.677  0.00  0.00    +0.000 C 
BRANCH  12  13
ATOM     13  C   UNL     1       2.352   5.539  18.556  0.00  0.00    +0.000 A 
ATOM     14  C   UNL     1       1.998   5.481  19.903  0.00  0.00    +0.000 A 
ATOM     15  C   UNL     1       1.813   6.672  20.596  0.00  0.00    +0.000 A 
ATOM     16  N   UNL     1       1.960   7.900  20.048  0.00  0.00    +0.000 NA
ATOM     17  C   UNL     1       2.303   7.942  18.747  0.00  0.00    +0.000 A 
ATOM     18  C   UNL     1       2.512   6.809  17.978  0.00  0.00    +0.000 A 
ENDBRANCH  12  13
ENDBRANCH   1  12
TORSDOF 4
ENDMDL
MODEL 7
REMARK VINA RESULT:      -6.2      3.309      4.892
REMARK  Name = 
REMARK  6 active torsions:
REMARK  status: ('A' for Active; 'I' for Inactive)
REMARK    1  A    between atoms: C_1  and  C_2
REMARK    2  A    between atoms: C_2  and  N_3
REMARK    3  A    between atoms: N_3  and  C_4
REMARK    4  A    between atoms: C_4  and  C_5
REMARK    5  A    between atoms: C_11  and  C_13
REMARK    6  A    between atoms: C_16  and  C_17
REMARK                            x       y       z     vdW  Elec       q    Type
REMARK                         _______ _______ _______ _____ _____    ______ ____
ROOT
ATOM      1  N   UNL     1       5.708   4.932  15.934  0.00  0.00    +0.000 N 
ATOM      2  C   UNL     1       7.032   4.906  16.429  0.00  0.00    +0.000 C 
ATOM      3  O   UNL     1       7.802   3.988  16.155  0.00  0.00    +0.000 OA
ENDROOT
BRANCH   2   4
ATOM      4  C   UNL     1       7.464   5.967  17.331  0.00  0.00    +0.000 A 
ATOM      5  C   UNL     1       7.854   5.884  18.654  0.00  0.00    +0.000 A 
ATOM      6  C   UNL     1       8.152   7.196  19.081  0.00  0.00    +0.000 A 
ATOM      7  C   UNL     1       7.977   8.005  17.980  0.00  0.00    +0.000 A 
ATOM      8  C   UNL     1       8.167   9.452  17.754  0.00  0.00    +0.000 C 
ATOM      9  O   UNL     1       7.549   7.269  16.914  0.00  0.00    +0.000 OA
ENDBRANCH   2   4
BRANCH   1  11
ATOM     10  C   UNL     1       5.672   4.095  13.515  0.00  0.00    +0.000 C 
ATOM     11  C   UNL     1       5.324   3.877  14.986  0.00  0.00    +0.000 C 
ENDBRANCH   1  11
BRANCH   1  12
ATOM     12  C   UNL     1       4.664   5.297  16.901  0.00  0.00    +0.000 C 
BRANCH  12  13
ATOM     13  C   UNL     1       3.982   4.192  17.668  0.00  0.00    +0.000 A 
ATOM     14  C   UNL     1       2.756   3.624  17.325  0.00  0.00    +0.000 A 
ATOM     15  C   UNL     1       2.249   2.602  18.120  0.00  0.00    +0.000 A 
ATOM     16  N   UNL     1       2.872   2.110  19.215  0.00  0.00    +0.000 NA
ATOM     17  C   UNL     1       4.056   2.667  19.535  0.00  0.00    +0.000 A 
ATOM     18  C   UNL     1       4.641   3.685  18.801  0.00  0.00    +0.000 A 
ENDBRANCH  12  13
ENDBRANCH   1  12
TORSDOF 4
ENDMDL
MODEL 8
REMARK VINA RESULT:      -6.2      1.431      2.029
REMARK  Name = 
REMARK  6 active torsions:
REMARK  status: ('A' for Active; 'I' for Inactive)
REMARK    1  A    between atoms: C_1  and  C_2
REMARK    2  A    between atoms: C_2  and  N_3
REMARK    3  A    between atoms: N_3  and  C_4
REMARK    4  A    between atoms: C_4  and  C_5
REMARK    5  A    between atoms: C_11  and  C_13
REMARK    6  A    between atoms: C_16  and  C_17
REMARK                            x       y       z     vdW  Elec       q    Type
REMARK                         _______ _______ _______ _____ _____    ______ ____
ROOT
ATOM      1  N   UNL     1       3.358   3.379  18.294  0.00  0.00    +0.000 N 
ATOM      2  C   UNL     1       4.697   3.620  18.677  0.00  0.00    +0.000 C 
ATOM      3  O   UNL     1       5.146   3.200  19.741  0.00  0.00    +0.000 OA
ENDROOT
BRANCH   2   4
ATOM      4  C   UNL     1       5.538   4.437  17.809  0.00  0.00    +0.000 A 
ATOM      5  C   UNL     1       6.188   5.624  18.088  0.00  0.00    +0.000 A 
ATOM      6  C   UNL     1       6.848   6.021  16.905  0.00  0.00    +0.000 A 
ATOM      7  C   UNL     1       6.608   5.029  15.981  0.00  0.00    +0.000 A 
ATOM      8  C   UNL     1       7.048   4.825  14.587  0.00  0.00    +0.000 C 
ATOM      9  O   UNL     1       5.804   4.066  16.517  0.00  0.00    +0.000 OA
ENDBRANCH   2   4
BRANCH   1  11
ATOM     10  C   UNL     1       1.131   2.189  18.718  0.00  0.00    +0.000 C 
ATOM     11  C   UNL     1       2.556   2.508  19.165  0.00  0.00    +0.000 C 
ENDBRANCH   1  11
BRANCH   1  12
ATOM     12  C   UNL     1       2.629   4.525  17.735  0.00  0.00    +0.000 C 
BRANCH  12  13
ATOM     13  C   UNL     1       2.339   5.698  18.638  0.00  0.00    +0.000 A 
ATOM     14  C   UNL     1       1.985   5.599  19.982  0.00  0.00    +0.000 A 
ATOM     15  C   UNL     1       1.756   6.769  20.699  0.00  0.00    +0.000 A 
ATOM     16  N   UNL     1       1.859   8.012  20.178  0.00  0.00    +0.000 NA
ATOM     17  C   UNL     1       2.203   8.093  18.879  0.00  0.00    +0.000 A 
ATOM     18  C   UNL     1       2.455   6.985  18.087  0.00  0.00    +0.000 A 
ENDBRANCH  12  13
ENDBRANCH   1  12
TORSDOF 4
ENDMDL
MODEL 9
REMARK VINA RESULT:      -6.2      1.646      3.995
REMARK  Name = 
REMARK  6 active torsions:
REMARK  status: ('A' for Active; 'I' for Inactive)
REMARK    1  A    between atoms: C_1  and  C_2
REMARK    2  A    between atoms: C_2  and  N_3
REMARK    3  A    between atoms: N_3  and  C_4
REMARK    4  A    between atoms: C_4  and  C_5
REMARK    5  A    between atoms: C_11  and  C_13
REMARK    6  A    between atoms: C_16  and  C_17
REMARK                            x       y       z     vdW  Elec       q    Type
REMARK                         _______ _______ _______ _____ _____    ______ ____
ROOT
ATOM      1  N   UNL     1       4.159   5.668  18.047  0.00  0.00    +0.000 N 
ATOM      2  C   UNL     1       4.272   4.261  18.121  0.00  0.00    +0.000 C 
ATOM      3  O   UNL     1       5.240   3.669  17.648  0.00  0.00    +0.000 OA
ENDROOT
BRANCH   2   4
ATOM      4  C   UNL     1       3.183   3.501  18.722  0.00  0.00    +0.000 A 
ATOM      5  C   UNL     1       2.290   2.632  18.124  0.00  0.00    +0.000 A 
ATOM      6  C   UNL     1       1.417   2.175  19.135  0.00  0.00    +0.000 A 
ATOM      7  C   UNL     1       1.855   2.751  20.307  0.00  0.00    +0.000 A 
ATOM      8  C   UNL     1       1.407   2.643  21.710  0.00  0.00    +0.000 C 
ATOM      9  O   UNL     1       2.922   3.566  20.065  0.00  0.00    +0.000 OA
ENDBRANCH   2   4
BRANCH   1  11
ATOM     10  C   UNL     1       5.258   6.726  15.991  0.00  0.00    +0.000 C 
ATOM     11  C   UNL     1       5.299   6.406  17.484  0.00  0.00    +0.000 C 
ENDBRANCH   1  11
BRANCH   1  12
ATOM     12  C   UNL     1       2.841   6.191  17.664  0.00  0.00    +0.000 C 
BRANCH  12  13
ATOM     13  C   UNL     1       2.260   7.328  18.467  0.00  0.00    +0.000 A 
ATOM     14  C   UNL     1       1.858   8.553  17.937  0.00  0.00    +0.000 A 
ATOM     15  C   UNL     1       1.328   9.510  18.796  0.00  0.00    +0.000 A 
ATOM     16  N   UNL     1       1.170   9.331  20.127  0.00  0.00    +0.000 NA
ATOM     17  C   UNL     1       1.562   8.143  20.626  0.00  0.00    +0.000 A 
ATOM     18  C   UNL     1       2.095   7.129  19.848  0.00  0.00    +0.000 A 
ENDBRANCH  12  13
ENDBRANCH   1  12
TORSDOF 4
ENDMDL
