MODEL 1
REMARK VINA RESULT:      -6.9      0.000      0.000
REMARK  Name = 
REMARK  7 active torsions:
REMARK  status: ('A' for Active; 'I' for Inactive)
REMARK    1  A    between atoms: C_1  and  O_2
REMARK    2  A    between atoms: O_2  and  C_3
REMARK    3  A    between atoms: C_6  and  N_7
REMARK    4  A    between atoms: N_10  and  C_11
REMARK    5  A    between atoms: C_16  and  N_17
REMARK    6  A    between atoms: N_17  and  S_18
REMARK    7  A    between atoms: S_18  and  C_21
REMARK                            x       y       z     vdW  Elec       q    Type
REMARK                         _______ _______ _______ _____ _____    ______ ____
ROOT
ATOM      1  C   UNL     1      -2.351  12.382  20.979  0.00  0.00    +0.000 C 
ATOM      2  C   UNL     1      -2.705  12.432  22.485  0.00  0.00    +0.000 C 
ATOM      3  C   UNL     1      -2.902  13.847  23.011  0.00  0.00    +0.000 C 
ATOM      4  C   UNL     1      -3.981  14.588  22.233  0.00  0.00    +0.000 C 
ATOM      5  C   UNL     1      -3.824  14.484  20.715  0.00  0.00    +0.000 C 
ATOM      6  C   UNL     1      -3.528  13.062  20.194  0.00  0.00    +0.000 C 
ENDROOT
BRANCH   1  10
ATOM      7  N   UNL     1       0.524  10.496  19.809  0.00  0.00    +0.000 N 
ATOM      8  C   UNL     1       0.304  10.706  21.249  0.00  0.00    +0.000 C 
ATOM      9  C   UNL     1       0.029  12.191  21.606  0.00  0.00    +0.000 C 
ATOM     10  N   UNL     1      -0.973  12.910  20.760  0.00  0.00    +0.000 NA
ATOM     11  C   UNL     1      -0.476  12.746  19.374  0.00  0.00    +0.000 C 
ATOM     12  C   UNL     1      -0.315  11.288  18.887  0.00  0.00    +0.000 C 
BRANCH   7  16
ATOM     13  C   UNL     1       2.831   7.178  18.499  0.00  0.00    +0.000 A 
ATOM     14  C   UNL     1       2.317   7.208  19.794  0.00  0.00    +0.000 A 
ATOM     15  C   UNL     1       1.497   8.271  20.208  0.00  0.00    +0.000 A 
ATOM     16  C   UNL     1       1.185   9.350  19.362  0.00  0.00    +0.000 A 
ATOM     17  C   UNL     1       1.669   9.254  18.050  0.00  0.00    +0.000 A 
ATOM     18  C   UNL     1       2.490   8.197  17.627  0.00  0.00    +0.000 A 
BRANCH  13  20
ATOM     19  C   UNL     1       3.619   5.048  19.126  0.00  0.00    +0.000 C 
ATOM     20  O   UNL     1       3.677   6.141  18.218  0.00  0.00    +0.000 OA
ENDBRANCH  13  20
ENDBRANCH   7  16
ENDBRANCH   1  10
BRANCH   6  21
ATOM     21  N   UNL     1      -4.799  12.271  20.254  0.00  0.00    +0.000 NA
ATOM     22  H   UNL     1      -5.435  12.512  21.017  0.00  0.00    +0.000 HD
BRANCH  21  23
ATOM     23  S   UNL     1      -5.710  11.952  18.859  0.00  0.00    +0.000 S 
ATOM     24  O   UNL     1      -6.638  10.906  19.225  0.00  0.00    +0.000 OA
ATOM     25  O   UNL     1      -6.170  13.209  18.334  0.00  0.00    +0.000 OA
BRANCH  23  26
ATOM     26  C   UNL     1      -4.522  11.235  17.752  0.00  0.00    +0.000 A 
ATOM     27  C   UNL     1      -4.459  11.696  16.434  0.00  0.00    +0.000 A 
ATOM     28  C   UNL     1      -3.656  11.025  15.509  0.00  0.00    +0.000 A 
ATOM     29  C   UNL     1      -2.922   9.904  15.903  0.00  0.00    +0.000 A 
ATOM     30  C   UNL     1      -2.950   9.475  17.229  0.00  0.00    +0.000 A 
ATOM     31  C   UNL     1      -3.732  10.157  18.165  0.00  0.00    +0.000 A 
ENDBRANCH  23  26
ENDBRANCH  21  23
ENDBRANCH   6  21
TORSDOF 6
ENDMDL
MODEL 2
REMARK VINA RESULT:      -6.8      4.884     10.399
REMARK  Name = 
REMARK  7 active torsions:
REMARK  status: ('A' for Active; 'I' for Inactive)
REMARK    1  A    between atoms: C_1  and  O_2
REMARK    2  A    between atoms: O_2  and  C_3
REMARK    3  A    between atoms: C_6  and  N_7
REMARK    4  A    between atoms: N_10  and  C_11
REMARK    5  A    between atoms: C_16  and  N_17
REMARK    6  A    between atoms: N_17  and  S_18
REMARK    7  A    between atoms: S_18  and  C_21
REMARK                            x       y       z     vdW  Elec       q    Type
REMARK                         _______ _______ _______ _____ _____    ______ ____
ROOT
ATOM      1  C   UNL     1       3.625   4.133  18.613  0.00  0.00    +0.000 C 
ATOM      2  C   UNL     1       4.391   3.568  19.834  0.00  0.00    +0.000 C 
ATOM      3  C   UNL     1       4.041   2.122  20.149  0.00  0.00    +0.000 C 
ATOM      4  C   UNL     1       4.292   1.211  18.954  0.00  0.00    +0.000 C 
ATOM      5  C   UNL     1       3.707   1.743  17.644  0.00  0.00    +0.000 C 
ATOM      6  C   UNL     1       3.983   3.237  17.374  0.00  0.00    +0.000 C 
ENDROOT
BRANCH   1  10
ATOM      7  N   UNL     1       1.869   7.285  19.034  0.00  0.00    +0.000 N 
ATOM      8  C   UNL     1       2.409   6.568  20.201  0.00  0.00    +0.000 C 
ATOM      9  C   UNL     1       2.007   5.069  20.225  0.00  0.00    +0.000 C 
ATOM     10  N   UNL     1       2.182   4.306  18.951  0.00  0.00    +0.000 NA
ATOM     11  C   UNL     1       1.414   5.079  17.947  0.00  0.00    +0.000 C 
ATOM     12  C   UNL     1       1.852   6.549  17.753  0.00  0.00    +0.000 C 
BRANCH   7  16
ATOM     13  C   UNL     1       1.265  11.488  18.899  0.00  0.00    +0.000 A 
ATOM     14  C   UNL     1       0.850  10.754  20.008  0.00  0.00    +0.000 A 
ATOM     15  C   UNL     1       1.110   9.376  20.086  0.00  0.00    +0.000 A 
ATOM     16  C   UNL     1       1.763   8.677  19.055  0.00  0.00    +0.000 A 
ATOM     17  C   UNL     1       2.219   9.458  17.985  0.00  0.00    +0.000 A 
ATOM     18  C   UNL     1       1.964  10.836  17.897  0.00  0.00    +0.000 A 
BRANCH  13  20
ATOM     19  C   UNL     1      -0.380  13.073  18.324  0.00  0.00    +0.000 C 
ATOM     20  O   UNL     1       0.900  12.805  18.885  0.00  0.00    +0.000 OA
ENDBRANCH  13  20
ENDBRANCH   7  16
ENDBRANCH   1  10
BRANCH   6  21
ATOM     21  N   UNL     1       5.413   3.376  16.951  0.00  0.00    +0.000 NA
ATOM     22  H   UNL     1       5.860   2.523  16.610  0.00  0.00    +0.000 HD
BRANCH  21  23
ATOM     23  S   UNL     1       5.931   4.685  16.004  0.00  0.00    +0.000 S 
ATOM     24  O   UNL     1       6.948   4.154  15.123  0.00  0.00    +0.000 OA
ATOM     25  O   UNL     1       4.764   5.346  15.486  0.00  0.00    +0.000 OA
BRANCH  23  26
ATOM     26  C   UNL     1       6.751   5.737  17.176  0.00  0.00    +0.000 A 
ATOM     27  C   UNL     1       6.939   7.086  16.859  0.00  0.00    +0.000 A 
ATOM     28  C   UNL     1       7.732   7.882  17.688  0.00  0.00    +0.000 A 
ATOM     29  C   UNL     1       8.328   7.331  18.825  0.00  0.00    +0.000 A 
ATOM     30  C   UNL     1       8.100   5.998  19.164  0.00  0.00    +0.000 A 
ATOM     31  C   UNL     1       7.287   5.202  18.352  0.00  0.00    +0.000 A 
ENDBRANCH  23  26
ENDBRANCH  21  23
ENDBRANCH   6  21
TORSDOF 6
ENDMDL
MODEL 3
REMARK VINA RESULT:      -6.8      1.126      1.607
REMARK  Name = 
REMARK  7 active torsions:
REMARK  status: ('A' for Active; 'I' for Inactive)
REMARK    1  A    between atoms: C_1  and  O_2
REMARK    2  A    between atoms: O_2  and  C_3
REMARK    3  A    between atoms: C_6  and  N_7
REMARK    4  A    between atoms: N_10  and  C_11
REMARK    5  A    between atoms: C_16  and  N_17
REMARK    6  A    between atoms: N_17  and  S_18
REMARK    7  A    between atoms: S_18  and  C_21
REMARK                            x       y       z     vdW  Elec       q    Type
REMARK                         _______ _______ _______ _____ _____    ______ ____
ROOT
ATOM      1  C   UNL     1      -3.649  12.704  21.240  0.00  0.00    +0.000 C 
ATOM      2  C   UNL     1      -4.438  12.859  22.563  0.00  0.00    +0.000 C 
ATOM      3  C   UNL     1      -4.918  14.280  22.815  0.00  0.00    +0.000 C 
ATOM      4  C   UNL     1      -5.784  14.791  21.671  0.00  0.00    +0.000 C 
ATOM      5  C   UNL     1      -5.173  14.556  20.288  0.00  0.00    +0.000 C 
ATOM      6  C   UNL     1      -4.599  13.140  20.069  0.00  0.00    +0.000 C 
ENDROOT
BRANCH   1  10
ATOM      7  N   UNL     1      -0.391  11.198  20.681  0.00  0.00    +0.000 N 
ATOM      8  C   UNL     1      -0.943  11.301  22.042  0.00  0.00    +0.000 C 
ATOM      9  C   UNL     1      -1.458  12.727  22.376  0.00  0.00    +0.000 C 
ATOM     10  N   UNL     1      -2.326  13.385  21.352  0.00  0.00    +0.000 NA
ATOM     11  C   UNL     1      -1.523  13.353  20.107  0.00  0.00    +0.000 C 
ATOM     12  C   UNL     1      -1.094  11.950  19.621  0.00  0.00    +0.000 C 
BRANCH   7  16
ATOM     13  C   UNL     1       1.974   7.832  19.622  0.00  0.00    +0.000 A 
ATOM     14  C   UNL     1       1.775   8.865  18.708  0.00  0.00    +0.000 A 
ATOM     15  C   UNL     1       1.052  10.011  19.079  0.00  0.00    +0.000 A 
ATOM     16  C   UNL     1       0.478  10.155  20.355  0.00  0.00    +0.000 A 
ATOM     17  C   UNL     1       0.751   9.124  21.264  0.00  0.00    +0.000 A 
ATOM     18  C   UNL     1       1.472   7.975  20.904  0.00  0.00    +0.000 A 
BRANCH  13  20
ATOM     19  C   UNL     1       3.342   6.929  17.929  0.00  0.00    +0.000 C 
ATOM     20  O   UNL     1       2.627   6.731  19.142  0.00  0.00    +0.000 OA
ENDBRANCH  13  20
ENDBRANCH   7  16
ENDBRANCH   1  10
BRANCH   6  21
ATOM     21  N   UNL     1      -5.748  12.198  19.873  0.00  0.00    +0.000 NA
ATOM     22  H   UNL     1      -6.569  12.373  20.455  0.00  0.00    +0.000 HD
BRANCH  21  23
ATOM     23  S   UNL     1      -6.262  11.742  18.322  0.00  0.00    +0.000 S 
ATOM     24  O   UNL     1      -7.130  10.602  18.515  0.00  0.00    +0.000 OA
ATOM     25  O   UNL     1      -6.720  12.923  17.641  0.00  0.00    +0.000 OA
BRANCH  23  26
ATOM     26  C   UNL     1      -4.775  11.144  17.560  0.00  0.00    +0.000 A 
ATOM     27  C   UNL     1      -4.452  11.578  16.271  0.00  0.00    +0.000 A 
ATOM     28  C   UNL     1      -3.385  10.985  15.593  0.00  0.00    +0.000 A 
ATOM     29  C   UNL     1      -2.647   9.969  16.203  0.00  0.00    +0.000 A 
ATOM     30  C   UNL     1      -2.941   9.571  17.506  0.00  0.00    +0.000 A 
ATOM     31  C   UNL     1      -3.991  10.177  18.200  0.00  0.00    +0.000 A 
ENDBRANCH  23  26
ENDBRANCH  21  23
ENDBRANCH   6  21
TORSDOF 6
ENDMDL
MODEL 4
REMARK VINA RESULT:      -6.7      4.958     10.476
REMARK  Name = 
REMARK  7 active torsions:
REMARK  status: ('A' for Active; 'I' for Inactive)
REMARK    1  A    between atoms: C_1  and  O_2
REMARK    2  A    between atoms: O_2  and  C_3
REMARK    3  A    between atoms: C_6  and  N_7
REMARK    4  A    between atoms: N_10  and  C_11
REMARK    5  A    between atoms: C_16  and  N_17
REMARK    6  A    between atoms: N_17  and  S_18
REMARK    7  A    between atoms: S_18  and  C_21
REMARK                            x       y       z     vdW  Elec       q    Type
REMARK                         _______ _______ _______ _____ _____    ______ ____
ROOT
ATOM      1  C   UNL     1       3.665   4.290  18.708  0.00  0.00    +0.000 C 
ATOM      2  C   UNL     1       4.286   3.392  19.805  0.00  0.00    +0.000 C 
ATOM      3  C   UNL     1       3.862   1.934  19.702  0.00  0.00    +0.000 C 
ATOM      4  C   UNL     1       4.206   1.345  18.341  0.00  0.00    +0.000 C 
ATOM      5  C   UNL     1       3.774   2.224  17.165  0.00  0.00    +0.000 C 
ATOM      6  C   UNL     1       4.120   3.720  17.317  0.00  0.00    +0.000 C 
ENDROOT
BRANCH   1  10
ATOM      7  N   UNL     1       1.867   7.426  19.053  0.00  0.00    +0.000 N 
ATOM      8  C   UNL     1       2.328   6.695  20.244  0.00  0.00    +0.000 C 
ATOM      9  C   UNL     1       1.934   5.193  20.217  0.00  0.00    +0.000 C 
ATOM     10  N   UNL     1       2.202   4.451  18.947  0.00  0.00    +0.000 NA
ATOM     11  C   UNL     1       1.501   5.236  17.903  0.00  0.00    +0.000 C 
ATOM     12  C   UNL     1       1.943   6.710  17.763  0.00  0.00    +0.000 C 
BRANCH   7  16
ATOM     13  C   UNL     1       1.237  11.627  18.956  0.00  0.00    +0.000 A 
ATOM     14  C   UNL     1       0.811  10.878  20.051  0.00  0.00    +0.000 A 
ATOM     15  C   UNL     1       1.080   9.501  20.118  0.00  0.00    +0.000 A 
ATOM     16  C   UNL     1       1.751   8.818  19.088  0.00  0.00    +0.000 A 
ATOM     17  C   UNL     1       2.216   9.614  18.033  0.00  0.00    +0.000 A 
ATOM     18  C   UNL     1       1.953  10.990  17.956  0.00  0.00    +0.000 A 
BRANCH  13  20
ATOM     19  C   UNL     1      -0.388  13.214  18.331  0.00  0.00    +0.000 C 
ATOM     20  O   UNL     1       0.863  12.941  18.951  0.00  0.00    +0.000 OA
ENDBRANCH  13  20
ENDBRANCH   7  16
ENDBRANCH   1  10
BRANCH   6  21
ATOM     21  N   UNL     1       5.590   3.883  17.076  0.00  0.00    +0.000 NA
ATOM     22  H   UNL     1       6.074   3.060  16.712  0.00  0.00    +0.000 HD
BRANCH  21  23
ATOM     23  S   UNL     1       6.213   5.267  16.319  0.00  0.00    +0.000 S 
ATOM     24  O   UNL     1       5.108   6.195  16.225  0.00  0.00    +0.000 OA
ATOM     25  O   UNL     1       7.435   5.626  16.988  0.00  0.00    +0.000 OA
BRANCH  23  26
ATOM     26  C   UNL     1       6.569   4.707  14.673  0.00  0.00    +0.000 A 
ATOM     27  C   UNL     1       7.589   5.332  13.949  0.00  0.00    +0.000 A 
ATOM     28  C   UNL     1       7.762   5.023  12.599  0.00  0.00    +0.000 A 
ATOM     29  C   UNL     1       6.922   4.094  11.981  0.00  0.00    +0.000 A 
ATOM     30  C   UNL     1       5.937   3.437  12.716  0.00  0.00    +0.000 A 
ATOM     31  C   UNL     1       5.774   3.723  14.074  0.00  0.00    +0.000 A 
ENDBRANCH  23  26
ENDBRANCH  21  23
ENDBRANCH   6  21
TORSDOF 6
ENDMDL
MODEL 5
REMARK VINA RESULT:      -6.7      5.350     10.366
REMARK  Name = 
REMARK  7 active torsions:
REMARK  status: ('A' for Active; 'I' for Inactive)
REMARK    1  A    between atoms: C_1  and  O_2
REMARK    2  A    between atoms: O_2  and  C_3
REMARK    3  A    between atoms: C_6  and  N_7
REMARK    4  A    between atoms: N_10  and  C_11
REMARK    5  A    between atoms: C_16  and  N_17
REMARK    6  A    between atoms: N_17  and  S_18
REMARK    7  A    between atoms: S_18  and  C_21
REMARK                            x       y       z     vdW  Elec       q    Type
REMARK                         _______ _______ _______ _____ _____    ______ ____
ROOT
ATOM      1  C   UNL     1       3.615   4.203  18.725  0.00  0.00    +0.000 C 
ATOM      2  C   UNL     1       4.383   3.666  19.957  0.00  0.00    +0.000 C 
ATOM      3  C   UNL     1       4.055   2.218  20.288  0.00  0.00    +0.000 C 
ATOM      4  C   UNL     1       4.327   1.297  19.107  0.00  0.00    +0.000 C 
ATOM      5  C   UNL     1       3.740   1.802  17.787  0.00  0.00    +0.000 C 
ATOM      6  C   UNL     1       3.993   3.297  17.500  0.00  0.00    +0.000 C 
ENDROOT
BRANCH   1  10
ATOM      7  N   UNL     1       1.766   7.323  18.922  0.00  0.00    +0.000 N 
ATOM      8  C   UNL     1       2.328   6.709  20.137  0.00  0.00    +0.000 C 
ATOM      9  C   UNL     1       1.971   5.204  20.270  0.00  0.00    +0.000 C 
ATOM     10  N   UNL     1       2.168   4.357  19.054  0.00  0.00    +0.000 NA
ATOM     11  C   UNL     1       1.376   5.033  17.998  0.00  0.00    +0.000 C 
ATOM     12  C   UNL     1       1.770   6.497  17.698  0.00  0.00    +0.000 C 
BRANCH   7  16
ATOM     13  C   UNL     1       1.584  11.568  18.897  0.00  0.00    +0.000 A 
ATOM     14  C   UNL     1       2.191  10.885  17.845  0.00  0.00    +0.000 A 
ATOM     15  C   UNL     1       2.191   9.480  17.816  0.00  0.00    +0.000 A 
ATOM     16  C   UNL     1       1.618   8.710  18.844  0.00  0.00    +0.000 A 
ATOM     17  C   UNL     1       0.965   9.430  19.853  0.00  0.00    +0.000 A 
ATOM     18  C   UNL     1       0.960  10.833  19.891  0.00  0.00    +0.000 A 
BRANCH  13  20
ATOM     19  C   UNL     1       2.976  13.420  18.470  0.00  0.00    +0.000 C 
ATOM     20  O   UNL     1       1.702  12.929  18.870  0.00  0.00    +0.000 OA
ENDBRANCH  13  20
ENDBRANCH   7  16
ENDBRANCH   1  10
BRANCH   6  21
ATOM     21  N   UNL     1       5.424   3.454  17.082  0.00  0.00    +0.000 NA
ATOM     22  H   UNL     1       5.893   2.600  16.776  0.00  0.00    +0.000 HD
BRANCH  21  23
ATOM     23  S   UNL     1       5.919   4.738  16.091  0.00  0.00    +0.000 S 
ATOM     24  O   UNL     1       6.921   4.188  15.206  0.00  0.00    +0.000 OA
ATOM     25  O   UNL     1       4.740   5.382  15.577  0.00  0.00    +0.000 OA
BRANCH  23  26
ATOM     26  C   UNL     1       6.756   5.824  17.218  0.00  0.00    +0.000 A 
ATOM     27  C   UNL     1       6.936   7.164  16.861  0.00  0.00    +0.000 A 
ATOM     28  C   UNL     1       7.741   7.984  17.654  0.00  0.00    +0.000 A 
ATOM     29  C   UNL     1       8.359   7.466  18.794  0.00  0.00    +0.000 A 
ATOM     30  C   UNL     1       8.139   6.142  19.174  0.00  0.00    +0.000 A 
ATOM     31  C   UNL     1       7.314   5.323  18.399  0.00  0.00    +0.000 A 
ENDBRANCH  23  26
ENDBRANCH  21  23
ENDBRANCH   6  21
TORSDOF 6
ENDMDL
MODEL 6
REMARK VINA RESULT:      -6.6      5.204     10.496
REMARK  Name = 
REMARK  7 active torsions:
REMARK  status: ('A' for Active; 'I' for Inactive)
REMARK    1  A    between atoms: C_1  and  O_2
REMARK    2  A    between atoms: O_2  and  C_3
REMARK    3  A    between atoms: C_6  and  N_7
REMARK    4  A    between atoms: N_10  and  C_11
REMARK    5  A    between atoms: C_16  and  N_17
REMARK    6  A    between atoms: N_17  and  S_18
REMARK    7  A    between atoms: S_18  and  C_21
REMARK                            x       y       z     vdW  Elec       q    Type
REMARK                         _______ _______ _______ _____ _____    ______ ____
ROOT
ATOM      1  C   UNL     1       3.682   4.120  18.723  0.00  0.00    +0.000 C 
ATOM      2  C   UNL     1       4.460   3.545  19.932  0.00  0.00    +0.000 C 
ATOM      3  C   UNL     1       4.148   2.081  20.207  0.00  0.00    +0.000 C 
ATOM      4  C   UNL     1       4.429   1.210  18.990  0.00  0.00    +0.000 C 
ATOM      5  C   UNL     1       3.833   1.759  17.692  0.00  0.00    +0.000 C 
ATOM      6  C   UNL     1       4.068   3.267  17.463  0.00  0.00    +0.000 C 
ENDROOT
BRANCH   1  10
ATOM      7  N   UNL     1       1.788   7.206  19.003  0.00  0.00    +0.000 N 
ATOM      8  C   UNL     1       2.363   6.572  20.200  0.00  0.00    +0.000 C 
ATOM      9  C   UNL     1       2.029   5.059  20.298  0.00  0.00    +0.000 C 
ATOM     10  N   UNL     1       2.234   4.245  19.061  0.00  0.00    +0.000 NA
ATOM     11  C   UNL     1       1.429   4.933  18.025  0.00  0.00    +0.000 C 
ATOM     12  C   UNL     1       1.800   6.410  17.758  0.00  0.00    +0.000 C 
BRANCH   7  16
ATOM     13  C   UNL     1       1.549  11.448  19.072  0.00  0.00    +0.000 A 
ATOM     14  C   UNL     1       2.127  10.795  17.986  0.00  0.00    +0.000 A 
ATOM     15  C   UNL     1       2.145   9.391  17.928  0.00  0.00    +0.000 A 
ATOM     16  C   UNL     1       1.619   8.592  18.958  0.00  0.00    +0.000 A 
ATOM     17  C   UNL     1       0.992   9.283  20.004  0.00  0.00    +0.000 A 
ATOM     18  C   UNL     1       0.969  10.684  20.072  0.00  0.00    +0.000 A 
BRANCH  13  20
ATOM     19  C   UNL     1       0.547  13.498  18.485  0.00  0.00    +0.000 C 
ATOM     20  O   UNL     1       1.647  12.811  19.070  0.00  0.00    +0.000 OA
ENDBRANCH  13  20
ENDBRANCH   7  16
ENDBRANCH   1  10
BRANCH   6  21
ATOM     21  N   UNL     1       5.496   3.457  17.049  0.00  0.00    +0.000 NA
ATOM     22  H   UNL     1       5.995   2.609  16.778  0.00  0.00    +0.000 HD
BRANCH  21  23
ATOM     23  S   UNL     1       5.956   4.721  16.015  0.00  0.00    +0.000 S 
ATOM     24  O   UNL     1       6.813   4.120  15.018  0.00  0.00    +0.000 OA
ATOM     25  O   UNL     1       4.769   5.443  15.644  0.00  0.00    +0.000 OA
BRANCH  23  26
ATOM     26  C   UNL     1       6.983   5.738  17.046  0.00  0.00    +0.000 A 
ATOM     27  C   UNL     1       7.449   5.221  18.258  0.00  0.00    +0.000 A 
ATOM     28  C   UNL     1       8.108   6.064  19.155  0.00  0.00    +0.000 A 
ATOM     29  C   UNL     1       8.300   7.410  18.839  0.00  0.00    +0.000 A 
ATOM     30  C   UNL     1       7.876   7.911  17.608  0.00  0.00    +0.000 A 
ATOM     31  C   UNL     1       7.238   7.068  16.696  0.00  0.00    +0.000 A 
ENDBRANCH  23  26
ENDBRANCH  21  23
ENDBRANCH   6  21
TORSDOF 6
ENDMDL
MODEL 7
REMARK VINA RESULT:      -6.6      2.221      3.309
REMARK  Name = 
REMARK  7 active torsions:
REMARK  status: ('A' for Active; 'I' for Inactive)
REMARK    1  A    between atoms: C_1  and  O_2
REMARK    2  A    between atoms: O_2  and  C_3
REMARK    3  A    between atoms: C_6  and  N_7
REMARK    4  A    between atoms: N_10  and  C_11
REMARK    5  A    between atoms: C_16  and  N_17
REMARK    6  A    between atoms: N_17  and  S_18
REMARK    7  A    between atoms: S_18  and  C_21
REMARK                            x       y       z     vdW  Elec       q    Type
REMARK                         _______ _______ _______ _____ _____    ______ ____
ROOT
ATOM      1  C   UNL     1      -0.543  10.909  20.407  0.00  0.00    +0.000 C 
ATOM      2  C   UNL     1      -1.109  11.503  21.720  0.00  0.00    +0.000 C 
ATOM      3  C   UNL     1      -0.904  13.006  21.838  0.00  0.00    +0.000 C 
ATOM      4  C   UNL     1      -1.522  13.750  20.663  0.00  0.00    +0.000 C 
ATOM      5  C   UNL     1      -1.155  13.158  19.300  0.00  0.00    +0.000 C 
ATOM      6  C   UNL     1      -1.271  11.622  19.213  0.00  0.00    +0.000 C 
ENDROOT
BRANCH   1  10
ATOM      7  N   UNL     1       1.691   8.099  19.856  0.00  0.00    +0.000 N 
ATOM      8  C   UNL     1       1.319   8.501  21.223  0.00  0.00    +0.000 C 
ATOM      9  C   UNL     1       1.499  10.022  21.472  0.00  0.00    +0.000 C 
ATOM     10  N   UNL     1       0.948  10.944  20.432  0.00  0.00    +0.000 NA
ATOM     11  C   UNL     1       1.584  10.501  19.169  0.00  0.00    +0.000 C 
ATOM     12  C   UNL     1       1.328   9.030  18.768  0.00  0.00    +0.000 C 
BRANCH   7  16
ATOM     13  C   UNL     1       2.283   3.986  18.971  0.00  0.00    +0.000 A 
ATOM     14  C   UNL     1       2.476   4.951  17.985  0.00  0.00    +0.000 A 
ATOM     15  C   UNL     1       2.349   6.316  18.292  0.00  0.00    +0.000 A 
ATOM     16  C   UNL     1       1.997   6.765  19.578  0.00  0.00    +0.000 A 
ATOM     17  C   UNL     1       1.871   5.770  20.556  0.00  0.00    +0.000 A 
ATOM     18  C   UNL     1       1.995   4.404  20.260  0.00  0.00    +0.000 A 
BRANCH  13  20
ATOM     19  C   UNL     1       3.657   2.109  18.595  0.00  0.00    +0.000 C 
ATOM     20  O   UNL     1       2.357   2.686  18.556  0.00  0.00    +0.000 OA
ENDBRANCH  13  20
ENDBRANCH   7  16
ENDBRANCH   1  10
BRANCH   6  21
ATOM     21  N   UNL     1      -2.726  11.271  19.127  0.00  0.00    +0.000 NA
ATOM     22  H   UNL     1      -3.367  11.923  19.582  0.00  0.00    +0.000 HD
BRANCH  21  23
ATOM     23  S   UNL     1      -3.422  10.739  17.675  0.00  0.00    +0.000 S 
ATOM     24  O   UNL     1      -2.737  11.458  16.624  0.00  0.00    +0.000 OA
ATOM     25  O   UNL     1      -3.455   9.302  17.699  0.00  0.00    +0.000 OA
BRANCH  23  26
ATOM     26  C   UNL     1      -5.075  11.381  17.756  0.00  0.00    +0.000 A 
ATOM     27  C   UNL     1      -5.437  12.432  16.907  0.00  0.00    +0.000 A 
ATOM     28  C   UNL     1      -6.671  13.061  17.080  0.00  0.00    +0.000 A 
ATOM     29  C   UNL     1      -7.535  12.639  18.092  0.00  0.00    +0.000 A 
ATOM     30  C   UNL     1      -7.193  11.559  18.906  0.00  0.00    +0.000 A 
ATOM     31  C   UNL     1      -5.970  10.910  18.722  0.00  0.00    +0.000 A 
ENDBRANCH  23  26
ENDBRANCH  21  23
ENDBRANCH   6  21
TORSDOF 6
ENDMDL
MODEL 8
REMARK VINA RESULT:      -6.5      5.247     10.381
REMARK  Name = 
REMARK  7 active torsions:
REMARK  status: ('A' for Active; 'I' for Inactive)
REMARK    1  A    between atoms: C_1  and  O_2
REMARK    2  A    between atoms: O_2  and  C_3
REMARK    3  A    between atoms: C_6  and  N_7
REMARK    4  A    between atoms: N_10  and  C_11
REMARK    5  A    between atoms: C_16  and  N_17
REMARK    6  A    between atoms: N_17  and  S_18
REMARK    7  A    between atoms: S_18  and  C_21
REMARK                            x       y       z     vdW  Elec       q    Type
REMARK                         _______ _______ _______ _____ _____    ______ ____
ROOT
ATOM      1  C   UNL     1       3.673   4.599  18.743  0.00  0.00    +0.000 C 
ATOM      2  C   UNL     1       4.349   3.855  19.921  0.00  0.00    +0.000 C 
ATOM      3  C   UNL     1       3.991   2.378  19.984  0.00  0.00    +0.000 C 
ATOM      4  C   UNL     1       4.344   1.659  18.688  0.00  0.00    +0.000 C 
ATOM      5  C   UNL     1       3.856   2.384  17.432  0.00  0.00    +0.000 C 
ATOM      6  C   UNL     1       4.136   3.902  17.415  0.00  0.00    +0.000 C 
ENDROOT
BRANCH   1  10
ATOM      7  N   UNL     1       1.770   7.685  18.973  0.00  0.00    +0.000 N 
ATOM      8  C   UNL     1       2.266   7.021  20.189  0.00  0.00    +0.000 C 
ATOM      9  C   UNL     1       1.924   5.507  20.230  0.00  0.00    +0.000 C 
ATOM     10  N   UNL     1       2.207   4.721  18.990  0.00  0.00    +0.000 NA
ATOM     11  C   UNL     1       1.471   5.436  17.921  0.00  0.00    +0.000 C 
ATOM     12  C   UNL     1       1.860   6.918  17.714  0.00  0.00    +0.000 C 
BRANCH   7  16
ATOM     13  C   UNL     1       1.541  11.925  19.119  0.00  0.00    +0.000 A 
ATOM     14  C   UNL     1       2.156  11.291  18.041  0.00  0.00    +0.000 A 
ATOM     15  C   UNL     1       2.172   9.889  17.955  0.00  0.00    +0.000 A 
ATOM     16  C   UNL     1       1.607   9.072  18.950  0.00  0.00    +0.000 A 
ATOM     17  C   UNL     1       0.945   9.744  19.986  0.00  0.00    +0.000 A 
ATOM     18  C   UNL     1       0.923  11.144  20.082  0.00  0.00    +0.000 A 
BRANCH  13  20
ATOM     19  C   UNL     1       2.340  13.820  20.268  0.00  0.00    +0.000 C 
ATOM     20  O   UNL     1       1.643  13.287  19.147  0.00  0.00    +0.000 OA
ENDBRANCH  13  20
ENDBRANCH   7  16
ENDBRANCH   1  10
BRANCH   6  21
ATOM     21  N   UNL     1       5.593   4.103  17.131  0.00  0.00    +0.000 NA
ATOM     22  H   UNL     1       6.105   3.271  16.830  0.00  0.00    +0.000 HD
BRANCH  21  23
ATOM     23  S   UNL     1       6.145   5.439  16.244  0.00  0.00    +0.000 S 
ATOM     24  O   UNL     1       5.005   6.317  16.106  0.00  0.00    +0.000 OA
ATOM     25  O   UNL     1       7.370   5.894  16.844  0.00  0.00    +0.000 OA
BRANCH  23  26
ATOM     26  C   UNL     1       6.477   4.755  14.640  0.00  0.00    +0.000 A 
ATOM     27  C   UNL     1       7.543   5.265  13.893  0.00  0.00    +0.000 A 
ATOM     28  C   UNL     1       7.707   4.862  12.567  0.00  0.00    +0.000 A 
ATOM     29  C   UNL     1       6.812   3.954  11.996  0.00  0.00    +0.000 A 
ATOM     30  C   UNL     1       5.779   3.411  12.757  0.00  0.00    +0.000 A 
ATOM     31  C   UNL     1       5.623   3.791  14.092  0.00  0.00    +0.000 A 
ENDBRANCH  23  26
ENDBRANCH  21  23
ENDBRANCH   6  21
TORSDOF 6
ENDMDL
MODEL 9
REMARK VINA RESULT:      -6.5      0.895      1.319
REMARK  Name = 
REMARK  7 active torsions:
REMARK  status: ('A' for Active; 'I' for Inactive)
REMARK    1  A    between atoms: C_1  and  O_2
REMARK    2  A    between atoms: O_2  and  C_3
REMARK    3  A    between atoms: C_6  and  N_7
REMARK    4  A    between atoms: N_10  and  C_11
REMARK    5  A    between atoms: C_16  and  N_17
REMARK    6  A    between atoms: N_17  and  S_18
REMARK    7  A    between atoms: S_18  and  C_21
REMARK                            x       y       z     vdW  Elec       q    Type
REMARK                         _______ _______ _______ _____ _____    ______ ____
ROOT
ATOM      1  C   UNL     1      -1.733  11.980  20.643  0.00  0.00    +0.000 C 
ATOM      2  C   UNL     1      -1.835  11.944  22.187  0.00  0.00    +0.000 C 
ATOM      3  C   UNL     1      -1.771  13.322  22.827  0.00  0.00    +0.000 C 
ATOM      4  C   UNL     1      -2.860  14.241  22.290  0.00  0.00    +0.000 C 
ATOM      5  C   UNL     1      -2.959  14.247  20.763  0.00  0.00    +0.000 C 
ATOM      6  C   UNL     1      -2.926  12.849  20.110  0.00  0.00    +0.000 C 
ENDROOT
BRANCH   1  10
ATOM      7  N   UNL     1       1.000   9.723  19.847  0.00  0.00    +0.000 N 
ATOM      8  C   UNL     1       0.873  10.296  21.198  0.00  0.00    +0.000 C 
ATOM      9  C   UNL     1       0.672  11.835  21.181  0.00  0.00    +0.000 C 
ATOM     10  N   UNL     1      -0.352  12.369  20.231  0.00  0.00    +0.000 NA
ATOM     11  C   UNL     1       0.056  11.840  18.909  0.00  0.00    +0.000 C 
ATOM     12  C   UNL     1       0.137  10.300  18.797  0.00  0.00    +0.000 C 
BRANCH   7  16
ATOM     13  C   UNL     1       2.489   5.791  19.236  0.00  0.00    +0.000 A 
ATOM     14  C   UNL     1       2.618   6.754  18.237  0.00  0.00    +0.000 A 
ATOM     15  C   UNL     1       2.190   8.073  18.462  0.00  0.00    +0.000 A 
ATOM     16  C   UNL     1       1.593   8.471  19.672  0.00  0.00    +0.000 A 
ATOM     17  C   UNL     1       1.535   7.492  20.672  0.00  0.00    +0.000 A 
ATOM     18  C   UNL     1       1.960   6.171  20.458  0.00  0.00    +0.000 A 
BRANCH  13  20
ATOM     19  C   UNL     1       3.004   4.287  17.498  0.00  0.00    +0.000 C 
ATOM     20  O   UNL     1       2.867   4.523  18.894  0.00  0.00    +0.000 OA
ENDBRANCH  13  20
ENDBRANCH   7  16
ENDBRANCH   1  10
BRANCH   6  21
ATOM     21  N   UNL     1      -4.259  12.202  20.331  0.00  0.00    +0.000 NA
ATOM     22  H   UNL     1      -4.779  12.525  21.148  0.00  0.00    +0.000 HD
BRANCH  21  23
ATOM     23  S   UNL     1      -5.346  11.956  19.051  0.00  0.00    +0.000 S 
ATOM     24  O   UNL     1      -6.266  10.938  19.506  0.00  0.00    +0.000 OA
ATOM     25  O   UNL     1      -5.813  13.244  18.613  0.00  0.00    +0.000 OA
BRANCH  23  26
ATOM     26  C   UNL     1      -4.333  11.221  17.792  0.00  0.00    +0.000 A 
ATOM     27  C   UNL     1      -4.432  11.695  16.480  0.00  0.00    +0.000 A 
ATOM     28  C   UNL     1      -3.776  11.015  15.453  0.00  0.00    +0.000 A 
ATOM     29  C   UNL     1      -3.026   9.872  15.738  0.00  0.00    +0.000 A 
ATOM     30  C   UNL     1      -2.890   9.429  17.053  0.00  0.00    +0.000 A 
ATOM     31  C   UNL     1      -3.524  10.120  18.089  0.00  0.00    +0.000 A 
ENDBRANCH  23  26
ENDBRANCH  21  23
ENDBRANCH   6  21
TORSDOF 6
ENDMDL
