MODEL 1
REMARK VINA RESULT:      -8.9      0.000      0.000
REMARK  Name = 
REMARK  6 active torsions:
REMARK  status: ('A' for Active; 'I' for Inactive)
REMARK    1  A    between atoms: C_1  and  C_2
REMARK    2  A    between atoms: C_3  and  C_4
REMARK    3  A    between atoms: C_4  and  C_5
REMARK    4  A    between atoms: C_9  and  O_10
REMARK    5  A    between atoms: C_12  and  C_13
REMARK    6  A    between atoms: C_24  and  C_25
REMARK                            x       y       z     vdW  Elec       q    Type
REMARK                         _______ _______ _______ _____ _____    ______ ____
ROOT
ATOM      1  C   UNL     1       1.894   5.576  20.209  0.00  0.00    +0.000 A 
ATOM      2  C   UNL     1       0.867   4.661  20.547  0.00  0.00    +0.000 A 
ATOM      3  N   UNL     1       0.978   3.485  19.930  0.00  0.00    +0.000 NA
ATOM      4  N   UNL     1       2.093   3.623  19.167  0.00  0.00    +0.000 N 
ATOM      5  C   UNL     1       2.710   2.621  18.409  0.00  0.00    +0.000 A 
ATOM      6  C   UNL     1       3.807   2.903  17.698  0.00  0.00    +0.000 A 
ATOM      7  C   UNL     1       4.269   4.330  17.748  0.00  0.00    +0.000 A 
ATOM      8  N   UNL     1       3.749   5.252  18.522  0.00  0.00    +0.000 NA
ATOM      9  C   UNL     1       2.647   4.900  19.258  0.00  0.00    +0.000 A 
ENDROOT
BRANCH   7  10
ATOM     10  C   UNL     1       5.407   4.677  16.848  0.00  0.00    +0.000 A 
ATOM     11  C   UNL     1       5.636   3.996  15.648  0.00  0.00    +0.000 A 
ATOM     12  C   UNL     1       6.709   4.381  14.868  0.00  0.00    +0.000 A 
ATOM     13  N   UNL     1       7.545   5.389  15.191  0.00  0.00    +0.000 NA
ATOM     14  C   UNL     1       7.291   6.050  16.341  0.00  0.00    +0.000 A 
ATOM     15  C   UNL     1       6.246   5.739  17.192  0.00  0.00    +0.000 A 
ENDBRANCH   7  10
BRANCH   5  16
ATOM     16  O   UNL     1       2.203   1.329  18.443  0.00  0.00    +0.000 OA
ATOM     17  H   UNL     1       1.237   1.427  18.296  0.00  0.00    +0.000 HD
ENDBRANCH   5  16
BRANCH   1  18
ATOM     18  C   UNL     1       2.157   6.896  20.852  0.00  0.00    +0.000 C 
BRANCH  18  21
ATOM     19  C   UNL     1       0.036   8.978  21.653  0.00  0.00    +0.000 C 
ATOM     20  C   UNL     1       0.667   8.957  20.282  0.00  0.00    +0.000 A 
ATOM     21  C   UNL     1       1.668   8.005  19.940  0.00  0.00    +0.000 A 
ATOM     22  C   UNL     1       2.309   8.110  18.688  0.00  0.00    +0.000 A 
ATOM     23  C   UNL     1       1.973   9.104  17.778  0.00  0.00    +0.000 A 
ATOM     24  C   UNL     1       0.946   9.986  18.080  0.00  0.00    +0.000 A 
ATOM     25  C   UNL     1       0.258   9.913  19.308  0.00  0.00    +0.000 A 
BRANCH  25  26
ATOM     26  C   UNL     1      -0.889  10.896  19.478  0.00  0.00    +0.000 C 
ATOM     27  F   UNL     1      -1.186  11.248  20.759  0.00  0.00    +0.000 F 
ATOM     28  F   UNL     1      -0.669  12.067  18.815  0.00  0.00    +0.000 F 
ATOM     29  F   UNL     1      -2.058  10.405  18.967  0.00  0.00    +0.000 F 
ENDBRANCH  25  26
ENDBRANCH  18  21
ENDBRANCH   1  18
TORSDOF 5
ENDMDL
MODEL 2
REMARK VINA RESULT:      -8.8      0.417      1.087
REMARK  Name = 
REMARK  6 active torsions:
REMARK  status: ('A' for Active; 'I' for Inactive)
REMARK    1  A    between atoms: C_1  and  C_2
REMARK    2  A    between atoms: C_3  and  C_4
REMARK    3  A    between atoms: C_4  and  C_5
REMARK    4  A    between atoms: C_9  and  O_10
REMARK    5  A    between atoms: C_12  and  C_13
REMARK    6  A    between atoms: C_24  and  C_25
REMARK                            x       y       z     vdW  Elec       q    Type
REMARK                         _______ _______ _______ _____ _____    ______ ____
ROOT
ATOM      1  C   UNL     1       1.865   5.516  20.195  0.00  0.00    +0.000 A 
ATOM      2  C   UNL     1       0.827   4.597  20.483  0.00  0.00    +0.000 A 
ATOM      3  N   UNL     1       0.934   3.448  19.817  0.00  0.00    +0.000 NA
ATOM      4  N   UNL     1       2.058   3.608  19.072  0.00  0.00    +0.000 N 
ATOM      5  C   UNL     1       2.674   2.635  18.277  0.00  0.00    +0.000 A 
ATOM      6  C   UNL     1       3.781   2.939  17.589  0.00  0.00    +0.000 A 
ATOM      7  C   UNL     1       4.254   4.358  17.706  0.00  0.00    +0.000 A 
ATOM      8  N   UNL     1       3.734   5.249  18.514  0.00  0.00    +0.000 NA
ATOM      9  C   UNL     1       2.622   4.876  19.223  0.00  0.00    +0.000 A 
ENDROOT
BRANCH   7  10
ATOM     10  C   UNL     1       5.404   4.733  16.833  0.00  0.00    +0.000 A 
ATOM     11  C   UNL     1       6.306   5.741  17.191  0.00  0.00    +0.000 A 
ATOM     12  C   UNL     1       7.349   6.025  16.331  0.00  0.00    +0.000 A 
ATOM     13  N   UNL     1       7.556   5.376  15.167  0.00  0.00    +0.000 NA
ATOM     14  C   UNL     1       6.689   4.389  14.853  0.00  0.00    +0.000 A 
ATOM     15  C   UNL     1       5.613   4.031  15.644  0.00  0.00    +0.000 A 
ENDBRANCH   7  10
BRANCH   5  16
ATOM     16  O   UNL     1       2.156   1.347  18.249  0.00  0.00    +0.000 OA
ATOM     17  H   UNL     1       1.182   1.462  18.209  0.00  0.00    +0.000 HD
ENDBRANCH   5  16
BRANCH   1  18
ATOM     18  C   UNL     1       2.133   6.804  20.897  0.00  0.00    +0.000 C 
BRANCH  18  21
ATOM     19  C   UNL     1       0.484   9.241  21.804  0.00  0.00    +0.000 C 
ATOM     20  C   UNL     1       0.966   9.078  20.384  0.00  0.00    +0.000 A 
ATOM     21  C   UNL     1       1.753   7.959  19.990  0.00  0.00    +0.000 A 
ATOM     22  C   UNL     1       2.278   7.921  18.682  0.00  0.00    +0.000 A 
ATOM     23  C   UNL     1       2.030   8.937  17.767  0.00  0.00    +0.000 A 
ATOM     24  C   UNL     1       1.201   9.990  18.125  0.00  0.00    +0.000 A 
ATOM     25  C   UNL     1       0.634  10.067  19.413  0.00  0.00    +0.000 A 
BRANCH  25  26
ATOM     26  C   UNL     1      -0.308  11.237  19.647  0.00  0.00    +0.000 C 
ATOM     27  F   UNL     1      -1.559  10.917  20.076  0.00  0.00    +0.000 F 
ATOM     28  F   UNL     1       0.182  12.120  20.564  0.00  0.00    +0.000 F 
ATOM     29  F   UNL     1      -0.502  11.968  18.509  0.00  0.00    +0.000 F 
ENDBRANCH  25  26
ENDBRANCH  18  21
ENDBRANCH   1  18
TORSDOF 5
ENDMDL
MODEL 3
REMARK VINA RESULT:      -8.7      2.457      3.505
REMARK  Name = 
REMARK  6 active torsions:
REMARK  status: ('A' for Active; 'I' for Inactive)
REMARK    1  A    between atoms: C_1  and  C_2
REMARK    2  A    between atoms: C_3  and  C_4
REMARK    3  A    between atoms: C_4  and  C_5
REMARK    4  A    between atoms: C_9  and  O_10
REMARK    5  A    between atoms: C_12  and  C_13
REMARK    6  A    between atoms: C_24  and  C_25
REMARK                            x       y       z     vdW  Elec       q    Type
REMARK                         _______ _______ _______ _____ _____    ______ ____
ROOT
ATOM      1  C   UNL     1       3.838   5.037  18.419  0.00  0.00    +0.000 A 
ATOM      2  C   UNL     1       4.358   4.976  19.734  0.00  0.00    +0.000 A 
ATOM      3  N   UNL     1       5.680   4.813  19.776  0.00  0.00    +0.000 NA
ATOM      4  N   UNL     1       6.042   4.762  18.468  0.00  0.00    +0.000 N 
ATOM      5  C   UNL     1       7.349   4.715  17.968  0.00  0.00    +0.000 A 
ATOM      6  C   UNL     1       7.557   4.662  16.648  0.00  0.00    +0.000 A 
ATOM      7  C   UNL     1       6.324   4.614  15.795  0.00  0.00    +0.000 A 
ATOM      8  N   UNL     1       5.101   4.744  16.248  0.00  0.00    +0.000 NA
ATOM      9  C   UNL     1       4.946   4.831  17.608  0.00  0.00    +0.000 A 
ENDROOT
BRANCH   7  10
ATOM     10  C   UNL     1       6.552   4.415  14.334  0.00  0.00    +0.000 A 
ATOM     11  C   UNL     1       5.789   3.515  13.581  0.00  0.00    +0.000 A 
ATOM     12  C   UNL     1       6.059   3.393  12.232  0.00  0.00    +0.000 A 
ATOM     13  N   UNL     1       7.011   4.103  11.592  0.00  0.00    +0.000 NA
ATOM     14  C   UNL     1       7.718   4.984  12.333  0.00  0.00    +0.000 A 
ATOM     15  C   UNL     1       7.527   5.178  13.688  0.00  0.00    +0.000 A 
ENDBRANCH   7  10
BRANCH   5  16
ATOM     16  O   UNL     1       8.420   4.775  18.851  0.00  0.00    +0.000 OA
ATOM     17  H   UNL     1       8.452   3.892  19.278  0.00  0.00    +0.000 HD
ENDBRANCH   5  16
BRANCH   1  18
ATOM     18  C   UNL     1       2.441   5.387  18.030  0.00  0.00    +0.000 C 
BRANCH  18  21
ATOM     19  C   UNL     1       1.450   6.050  20.869  0.00  0.00    +0.000 C 
ATOM     20  C   UNL     1       1.634   7.111  19.811  0.00  0.00    +0.000 A 
ATOM     21  C   UNL     1       2.121   6.789  18.514  0.00  0.00    +0.000 A 
ATOM     22  C   UNL     1       2.390   7.836  17.607  0.00  0.00    +0.000 A 
ATOM     23  C   UNL     1       2.171   9.166  17.944  0.00  0.00    +0.000 A 
ATOM     24  C   UNL     1       1.624   9.475  19.180  0.00  0.00    +0.000 A 
ATOM     25  C   UNL     1       1.319   8.467  20.117  0.00  0.00    +0.000 A 
BRANCH  25  26
ATOM     26  C   UNL     1       0.662   8.941  21.402  0.00  0.00    +0.000 C 
ATOM     27  F   UNL     1      -0.492   8.309  21.749  0.00  0.00    +0.000 F 
ATOM     28  F   UNL     1       1.488   8.819  22.481  0.00  0.00    +0.000 F 
ATOM     29  F   UNL     1       0.335  10.267  21.346  0.00  0.00    +0.000 F 
ENDBRANCH  25  26
ENDBRANCH  18  21
ENDBRANCH   1  18
TORSDOF 5
ENDMDL
MODEL 4
REMARK VINA RESULT:      -8.3      0.764      1.732
REMARK  Name = 
REMARK  6 active torsions:
REMARK  status: ('A' for Active; 'I' for Inactive)
REMARK    1  A    between atoms: C_1  and  C_2
REMARK    2  A    between atoms: C_3  and  C_4
REMARK    3  A    between atoms: C_4  and  C_5
REMARK    4  A    between atoms: C_9  and  O_10
REMARK    5  A    between atoms: C_12  and  C_13
REMARK    6  A    between atoms: C_24  and  C_25
REMARK                            x       y       z     vdW  Elec       q    Type
REMARK                         _______ _______ _______ _____ _____    ______ ____
ROOT
ATOM      1  C   UNL     1       2.146   5.821  20.068  0.00  0.00    +0.000 A 
ATOM      2  C   UNL     1       1.046   5.015  20.450  0.00  0.00    +0.000 A 
ATOM      3  N   UNL     1       0.992   3.849  19.808  0.00  0.00    +0.000 NA
ATOM      4  N   UNL     1       2.071   3.882  18.984  0.00  0.00    +0.000 N 
ATOM      5  C   UNL     1       2.531   2.837  18.174  0.00  0.00    +0.000 A 
ATOM      6  C   UNL     1       3.611   3.015  17.405  0.00  0.00    +0.000 A 
ATOM      7  C   UNL     1       4.228   4.381  17.453  0.00  0.00    +0.000 A 
ATOM      8  N   UNL     1       3.857   5.336  18.270  0.00  0.00    +0.000 NA
ATOM      9  C   UNL     1       2.766   5.089  19.064  0.00  0.00    +0.000 A 
ENDROOT
BRANCH   7  10
ATOM     10  C   UNL     1       5.345   4.623  16.494  0.00  0.00    +0.000 A 
ATOM     11  C   UNL     1       5.338   4.092  15.199  0.00  0.00    +0.000 A 
ATOM     12  C   UNL     1       6.408   4.367  14.370  0.00  0.00    +0.000 A 
ATOM     13  N   UNL     1       7.459   5.131  14.734  0.00  0.00    +0.000 NA
ATOM     14  C   UNL     1       7.433   5.655  15.978  0.00  0.00    +0.000 A 
ATOM     15  C   UNL     1       6.411   5.437  16.884  0.00  0.00    +0.000 A 
ENDBRANCH   7  10
BRANCH   5  16
ATOM     16  O   UNL     1       1.887   1.607  18.216  0.00  0.00    +0.000 OA
ATOM     17  H   UNL     1       1.656   1.469  19.159  0.00  0.00    +0.000 HD
ENDBRANCH   5  16
BRANCH   1  18
ATOM     18  C   UNL     1       2.588   7.089  20.716  0.00  0.00    +0.000 C 
BRANCH  18  21
ATOM     19  C   UNL     1       1.818   8.727  18.226  0.00  0.00    +0.000 C 
ATOM     20  C   UNL     1       1.103   8.882  19.546  0.00  0.00    +0.000 A 
ATOM     21  C   UNL     1       1.453   8.095  20.677  0.00  0.00    +0.000 A 
ATOM     22  C   UNL     1       0.671   8.195  21.847  0.00  0.00    +0.000 A 
ATOM     23  C   UNL     1      -0.417   9.056  21.924  0.00  0.00    +0.000 A 
ATOM     24  C   UNL     1      -0.713   9.880  20.848  0.00  0.00    +0.000 A 
ATOM     25  C   UNL     1       0.048   9.834  19.663  0.00  0.00    +0.000 A 
BRANCH  25  26
ATOM     26  C   UNL     1      -0.344  10.838  18.591  0.00  0.00    +0.000 C 
ATOM     27  F   UNL     1       0.632  11.701  18.199  0.00  0.00    +0.000 F 
ATOM     28  F   UNL     1      -0.781  10.231  17.450  0.00  0.00    +0.000 F 
ATOM     29  F   UNL     1      -1.379  11.635  18.996  0.00  0.00    +0.000 F 
ENDBRANCH  25  26
ENDBRANCH  18  21
ENDBRANCH   1  18
TORSDOF 5
ENDMDL
MODEL 5
REMARK VINA RESULT:      -8.1      4.136      6.803
REMARK  Name = 
REMARK  6 active torsions:
REMARK  status: ('A' for Active; 'I' for Inactive)
REMARK    1  A    between atoms: C_1  and  C_2
REMARK    2  A    between atoms: C_3  and  C_4
REMARK    3  A    between atoms: C_4  and  C_5
REMARK    4  A    between atoms: C_9  and  O_10
REMARK    5  A    between atoms: C_12  and  C_13
REMARK    6  A    between atoms: C_24  and  C_25
REMARK                            x       y       z     vdW  Elec       q    Type
REMARK                         _______ _______ _______ _____ _____    ______ ____
ROOT
ATOM      1  C   UNL     1      -1.640  12.037  21.278  0.00  0.00    +0.000 A 
ATOM      2  C   UNL     1      -2.113  12.164  22.607  0.00  0.00    +0.000 A 
ATOM      3  N   UNL     1      -1.564  11.292  23.453  0.00  0.00    +0.000 NA
ATOM      4  N   UNL     1      -0.717  10.573  22.673  0.00  0.00    +0.000 N 
ATOM      5  C   UNL     1       0.190   9.600  23.108  0.00  0.00    +0.000 A 
ATOM      6  C   UNL     1       0.963   8.964  22.221  0.00  0.00    +0.000 A 
ATOM      7  C   UNL     1       0.749   9.337  20.783  0.00  0.00    +0.000 A 
ATOM      8  N   UNL     1      -0.033  10.305  20.376  0.00  0.00    +0.000 NA
ATOM      9  C   UNL     1      -0.777  10.950  21.330  0.00  0.00    +0.000 A 
ENDROOT
BRANCH   7  10
ATOM     10  C   UNL     1       1.510   8.532  19.783  0.00  0.00    +0.000 A 
ATOM     11  C   UNL     1       1.774   9.009  18.495  0.00  0.00    +0.000 A 
ATOM     12  C   UNL     1       2.490   8.205  17.630  0.00  0.00    +0.000 A 
ATOM     13  N   UNL     1       2.962   6.985  17.960  0.00  0.00    +0.000 NA
ATOM     14  C   UNL     1       2.718   6.555  19.217  0.00  0.00    +0.000 A 
ATOM     15  C   UNL     1       2.010   7.282  20.155  0.00  0.00    +0.000 A 
ENDBRANCH   7  10
BRANCH   5  16
ATOM     16  O   UNL     1       0.312   9.340  24.467  0.00  0.00    +0.000 OA
ATOM     17  H   UNL     1       1.171   9.735  24.729  0.00  0.00    +0.000 HD
ENDBRANCH   5  16
BRANCH   1  18
ATOM     18  C   UNL     1      -1.917  12.963  20.143  0.00  0.00    +0.000 C 
BRANCH  18  21
ATOM     19  C   UNL     1      -1.113  11.379  17.629  0.00  0.00    +0.000 C 
ATOM     20  C   UNL     1      -2.555  11.605  18.012  0.00  0.00    +0.000 A 
ATOM     21  C   UNL     1      -2.906  12.314  19.194  0.00  0.00    +0.000 A 
ATOM     22  C   UNL     1      -4.265  12.389  19.566  0.00  0.00    +0.000 A 
ATOM     23  C   UNL     1      -5.264  11.804  18.798  0.00  0.00    +0.000 A 
ATOM     24  C   UNL     1      -4.930  11.178  17.606  0.00  0.00    +0.000 A 
ATOM     25  C   UNL     1      -3.590  11.092  17.177  0.00  0.00    +0.000 A 
BRANCH  25  26
ATOM     26  C   UNL     1      -3.374  10.440  15.821  0.00  0.00    +0.000 C 
ATOM     27  F   UNL     1      -2.607  11.138  14.941  0.00  0.00    +0.000 F 
ATOM     28  F   UNL     1      -2.791   9.211  15.926  0.00  0.00    +0.000 F 
ATOM     29  F   UNL     1      -4.555  10.226  15.168  0.00  0.00    +0.000 F 
ENDBRANCH  25  26
ENDBRANCH  18  21
ENDBRANCH   1  18
TORSDOF 5
ENDMDL
MODEL 6
REMARK VINA RESULT:      -8.1      5.207      8.257
REMARK  Name = 
REMARK  6 active torsions:
REMARK  status: ('A' for Active; 'I' for Inactive)
REMARK    1  A    between atoms: C_1  and  C_2
REMARK    2  A    between atoms: C_3  and  C_4
REMARK    3  A    between atoms: C_4  and  C_5
REMARK    4  A    between atoms: C_9  and  O_10
REMARK    5  A    between atoms: C_12  and  C_13
REMARK    6  A    between atoms: C_24  and  C_25
REMARK                            x       y       z     vdW  Elec       q    Type
REMARK                         _______ _______ _______ _____ _____    ______ ____
ROOT
ATOM      1  C   UNL     1       0.856   8.673  21.030  0.00  0.00    +0.000 A 
ATOM      2  C   UNL     1       1.470   9.379  22.093  0.00  0.00    +0.000 A 
ATOM      3  N   UNL     1       1.029  10.630  22.225  0.00  0.00    +0.000 NA
ATOM      4  N   UNL     1       0.111  10.757  21.232  0.00  0.00    +0.000 N 
ATOM      5  C   UNL     1      -0.730  11.854  21.012  0.00  0.00    +0.000 A 
ATOM      6  C   UNL     1      -1.586  11.843  19.985  0.00  0.00    +0.000 A 
ATOM      7  C   UNL     1      -1.537  10.627  19.107  0.00  0.00    +0.000 A 
ATOM      8  N   UNL     1      -0.816   9.561  19.355  0.00  0.00    +0.000 NA
ATOM      9  C   UNL     1       0.019   9.610  20.441  0.00  0.00    +0.000 A 
ENDROOT
BRANCH   7  10
ATOM     10  C   UNL     1      -2.391  10.673  17.885  0.00  0.00    +0.000 A 
ATOM     11  C   UNL     1      -3.575  11.417  17.837  0.00  0.00    +0.000 A 
ATOM     12  C   UNL     1      -4.307  11.412  16.666  0.00  0.00    +0.000 A 
ATOM     13  N   UNL     1      -3.939  10.739  15.556  0.00  0.00    +0.000 NA
ATOM     14  C   UNL     1      -2.780  10.049  15.616  0.00  0.00    +0.000 A 
ATOM     15  C   UNL     1      -1.978   9.988  16.741  0.00  0.00    +0.000 A 
ENDBRANCH   7  10
BRANCH   5  16
ATOM     16  O   UNL     1      -0.699  12.925  21.895  0.00  0.00    +0.000 OA
ATOM     17  H   UNL     1      -0.347  12.558  22.735  0.00  0.00    +0.000 HD
ENDBRANCH   5  16
BRANCH   1  18
ATOM     18  C   UNL     1       0.995   7.218  20.733  0.00  0.00    +0.000 C 
BRANCH  18  21
ATOM     19  C   UNL     1       2.715   4.678  20.475  0.00  0.00    +0.000 C 
ATOM     20  C   UNL     1       2.891   5.867  19.562  0.00  0.00    +0.000 A 
ATOM     21  C   UNL     1       2.067   7.020  19.678  0.00  0.00    +0.000 A 
ATOM     22  C   UNL     1       2.195   8.049  18.722  0.00  0.00    +0.000 A 
ATOM     23  C   UNL     1       3.118   7.970  17.686  0.00  0.00    +0.000 A 
ATOM     24  C   UNL     1       3.974   6.882  17.617  0.00  0.00    +0.000 A 
ATOM     25  C   UNL     1       3.902   5.835  18.558  0.00  0.00    +0.000 A 
BRANCH  25  26
ATOM     26  C   UNL     1       4.944   4.740  18.404  0.00  0.00    +0.000 C 
ATOM     27  F   UNL     1       5.759   4.538  19.475  0.00  0.00    +0.000 F 
ATOM     28  F   UNL     1       4.382   3.526  18.134  0.00  0.00    +0.000 F 
ATOM     29  F   UNL     1       5.790   4.987  17.359  0.00  0.00    +0.000 F 
ENDBRANCH  25  26
ENDBRANCH  18  21
ENDBRANCH   1  18
TORSDOF 5
ENDMDL
MODEL 7
REMARK VINA RESULT:      -8.1      4.138      6.792
REMARK  Name = 
REMARK  6 active torsions:
REMARK  status: ('A' for Active; 'I' for Inactive)
REMARK    1  A    between atoms: C_1  and  C_2
REMARK    2  A    between atoms: C_3  and  C_4
REMARK    3  A    between atoms: C_4  and  C_5
REMARK    4  A    between atoms: C_9  and  O_10
REMARK    5  A    between atoms: C_12  and  C_13
REMARK    6  A    between atoms: C_24  and  C_25
REMARK                            x       y       z     vdW  Elec       q    Type
REMARK                         _______ _______ _______ _____ _____    ______ ____
ROOT
ATOM      1  C   UNL     1      -1.633  12.032  21.275  0.00  0.00    +0.000 A 
ATOM      2  C   UNL     1      -2.116  12.160  22.600  0.00  0.00    +0.000 A 
ATOM      3  N   UNL     1      -1.571  11.292  23.451  0.00  0.00    +0.000 NA
ATOM      4  N   UNL     1      -0.716  10.573  22.679  0.00  0.00    +0.000 N 
ATOM      5  C   UNL     1       0.190   9.603  23.123  0.00  0.00    +0.000 A 
ATOM      6  C   UNL     1       0.971   8.967  22.243  0.00  0.00    +0.000 A 
ATOM      7  C   UNL     1       0.767   9.337  20.803  0.00  0.00    +0.000 A 
ATOM      8  N   UNL     1      -0.015  10.302  20.388  0.00  0.00    +0.000 NA
ATOM      9  C   UNL     1      -0.768  10.947  21.336  0.00  0.00    +0.000 A 
ENDROOT
BRANCH   7  10
ATOM     10  C   UNL     1       1.537   8.531  19.810  0.00  0.00    +0.000 A 
ATOM     11  C   UNL     1       2.043   7.264  20.118  0.00  0.00    +0.000 A 
ATOM     12  C   UNL     1       2.740   6.580  19.141  0.00  0.00    +0.000 A 
ATOM     13  N   UNL     1       2.952   7.059  17.899  0.00  0.00    +0.000 NA
ATOM     14  C   UNL     1       2.433   8.274  17.615  0.00  0.00    +0.000 A 
ATOM     15  C   UNL     1       1.724   9.038  18.523  0.00  0.00    +0.000 A 
ENDBRANCH   7  10
BRANCH   5  16
ATOM     16  O   UNL     1       0.303   9.346  24.483  0.00  0.00    +0.000 OA
ATOM     17  H   UNL     1      -0.023   8.427  24.600  0.00  0.00    +0.000 HD
ENDBRANCH   5  16
BRANCH   1  18
ATOM     18  C   UNL     1      -1.903  12.955  20.136  0.00  0.00    +0.000 C 
BRANCH  18  21
ATOM     19  C   UNL     1      -1.113  11.380  17.611  0.00  0.00    +0.000 C 
ATOM     20  C   UNL     1      -2.553  11.604  18.004  0.00  0.00    +0.000 A 
ATOM     21  C   UNL     1      -2.898  12.309  19.190  0.00  0.00    +0.000 A 
ATOM     22  C   UNL     1      -4.254  12.382  19.570  0.00  0.00    +0.000 A 
ATOM     23  C   UNL     1      -5.258  11.800  18.806  0.00  0.00    +0.000 A 
ATOM     24  C   UNL     1      -4.931  11.179  17.610  0.00  0.00    +0.000 A 
ATOM     25  C   UNL     1      -3.593  11.094  17.173  0.00  0.00    +0.000 A 
BRANCH  25  26
ATOM     26  C   UNL     1      -3.385  10.447  15.814  0.00  0.00    +0.000 C 
ATOM     27  F   UNL     1      -4.514  10.192  15.098  0.00  0.00    +0.000 F 
ATOM     28  F   UNL     1      -2.594  11.201  14.998  0.00  0.00    +0.000 F 
ATOM     29  F   UNL     1      -2.752   9.240  15.917  0.00  0.00    +0.000 F 
ENDBRANCH  25  26
ENDBRANCH  18  21
ENDBRANCH   1  18
TORSDOF 5
ENDMDL
MODEL 8
REMARK VINA RESULT:      -8.1      5.194      8.222
REMARK  Name = 
REMARK  6 active torsions:
REMARK  status: ('A' for Active; 'I' for Inactive)
REMARK    1  A    between atoms: C_1  and  C_2
REMARK    2  A    between atoms: C_3  and  C_4
REMARK    3  A    between atoms: C_4  and  C_5
REMARK    4  A    between atoms: C_9  and  O_10
REMARK    5  A    between atoms: C_12  and  C_13
REMARK    6  A    between atoms: C_24  and  C_25
REMARK                            x       y       z     vdW  Elec       q    Type
REMARK                         _______ _______ _______ _____ _____    ______ ____
ROOT
ATOM      1  C   UNL     1       0.887   8.587  21.064  0.00  0.00    +0.000 A 
ATOM      2  C   UNL     1       1.494   9.266  22.149  0.00  0.00    +0.000 A 
ATOM      3  N   UNL     1       1.059  10.515  22.306  0.00  0.00    +0.000 NA
ATOM      4  N   UNL     1       0.151  10.670  21.307  0.00  0.00    +0.000 N 
ATOM      5  C   UNL     1      -0.682  11.777  21.105  0.00  0.00    +0.000 A 
ATOM      6  C   UNL     1      -1.528  11.794  20.069  0.00  0.00    +0.000 A 
ATOM      7  C   UNL     1      -1.476  10.599  19.164  0.00  0.00    +0.000 A 
ATOM      8  N   UNL     1      -0.764   9.523  19.394  0.00  0.00    +0.000 NA
ATOM      9  C   UNL     1       0.061   9.543  20.489  0.00  0.00    +0.000 A 
ENDROOT
BRANCH   7  10
ATOM     10  C   UNL     1      -2.319  10.678  17.935  0.00  0.00    +0.000 A 
ATOM     11  C   UNL     1      -1.981   9.997  16.761  0.00  0.00    +0.000 A 
ATOM     12  C   UNL     1      -2.816  10.117  15.667  0.00  0.00    +0.000 A 
ATOM     13  N   UNL     1      -3.951  10.847  15.670  0.00  0.00    +0.000 NA
ATOM     14  C   UNL     1      -4.272  11.475  16.821  0.00  0.00    +0.000 A 
ATOM     15  C   UNL     1      -3.501  11.420  17.968  0.00  0.00    +0.000 A 
ENDBRANCH   7  10
BRANCH   5  16
ATOM     16  O   UNL     1      -0.653  12.827  22.013  0.00  0.00    +0.000 OA
ATOM     17  H   UNL     1      -0.627  13.642  21.465  0.00  0.00    +0.000 HD
ENDBRANCH   5  16
BRANCH   1  18
ATOM     18  C   UNL     1       1.020   7.139  20.734  0.00  0.00    +0.000 C 
BRANCH  18  21
ATOM     19  C   UNL     1       2.717   4.592  20.398  0.00  0.00    +0.000 C 
ATOM     20  C   UNL     1       2.902   5.805  19.520  0.00  0.00    +0.000 A 
ATOM     21  C   UNL     1       2.089   6.962  19.671  0.00  0.00    +0.000 A 
ATOM     22  C   UNL     1       2.224   8.017  18.744  0.00  0.00    +0.000 A 
ATOM     23  C   UNL     1       3.144   7.960  17.705  0.00  0.00    +0.000 A 
ATOM     24  C   UNL     1       3.990   6.866  17.602  0.00  0.00    +0.000 A 
ATOM     25  C   UNL     1       3.910   5.793  18.513  0.00  0.00    +0.000 A 
BRANCH  25  26
ATOM     26  C   UNL     1       4.942   4.693  18.325  0.00  0.00    +0.000 C 
ATOM     27  F   UNL     1       4.461   3.492  17.901  0.00  0.00    +0.000 F 
ATOM     28  F   UNL     1       5.910   5.040  17.428  0.00  0.00    +0.000 F 
ATOM     29  F   UNL     1       5.608   4.417  19.486  0.00  0.00    +0.000 F 
ENDBRANCH  25  26
ENDBRANCH  18  21
ENDBRANCH   1  18
TORSDOF 5
ENDMDL
MODEL 9
REMARK VINA RESULT:      -8.0      4.853      8.005
REMARK  Name = 
REMARK  6 active torsions:
REMARK  status: ('A' for Active; 'I' for Inactive)
REMARK    1  A    between atoms: C_1  and  C_2
REMARK    2  A    between atoms: C_3  and  C_4
REMARK    3  A    between atoms: C_4  and  C_5
REMARK    4  A    between atoms: C_9  and  O_10
REMARK    5  A    between atoms: C_12  and  C_13
REMARK    6  A    between atoms: C_24  and  C_25
REMARK                            x       y       z     vdW  Elec       q    Type
REMARK                         _______ _______ _______ _____ _____    ______ ____
ROOT
ATOM      1  C   UNL     1       2.007   7.568  19.551  0.00  0.00    +0.000 A 
ATOM      2  C   UNL     1       1.691   6.683  20.610  0.00  0.00    +0.000 A 
ATOM      3  N   UNL     1       0.962   7.245  21.573  0.00  0.00    +0.000 NA
ATOM      4  N   UNL     1       0.795   8.524  21.149  0.00  0.00    +0.000 N 
ATOM      5  C   UNL     1      -0.002   9.503  21.754  0.00  0.00    +0.000 A 
ATOM      6  C   UNL     1      -0.067  10.730  21.225  0.00  0.00    +0.000 A 
ATOM      7  C   UNL     1       0.783  10.964  20.012  0.00  0.00    +0.000 A 
ATOM      8  N   UNL     1       1.463  10.032  19.390  0.00  0.00    +0.000 NA
ATOM      9  C   UNL     1       1.467   8.782  19.954  0.00  0.00    +0.000 A 
ENDROOT
BRANCH   7  10
ATOM     10  C   UNL     1       0.819  12.367  19.504  0.00  0.00    +0.000 A 
ATOM     11  C   UNL     1      -0.343  13.135  19.368  0.00  0.00    +0.000 A 
ATOM     12  C   UNL     1      -0.225  14.428  18.896  0.00  0.00    +0.000 A 
ATOM     13  N   UNL     1       0.952  15.000  18.569  0.00  0.00    +0.000 NA
ATOM     14  C   UNL     1       2.064  14.249  18.732  0.00  0.00    +0.000 A 
ATOM     15  C   UNL     1       2.051  12.946  19.193  0.00  0.00    +0.000 A 
ENDBRANCH   7  10
BRANCH   5  16
ATOM     16  O   UNL     1      -0.757   9.174  22.872  0.00  0.00    +0.000 OA
ATOM     17  H   UNL     1      -0.491   8.258  23.103  0.00  0.00    +0.000 HD
ENDBRANCH   5  16
BRANCH   1  18
ATOM     18  C   UNL     1       2.649   7.209  18.253  0.00  0.00    +0.000 C 
BRANCH  18  21
ATOM     19  C   UNL     1       1.353   4.480  17.661  0.00  0.00    +0.000 C 
ATOM     20  C   UNL     1       2.773   4.608  18.157  0.00  0.00    +0.000 A 
ATOM     21  C   UNL     1       3.364   5.880  18.396  0.00  0.00    +0.000 A 
ATOM     22  C   UNL     1       4.730   5.942  18.741  0.00  0.00    +0.000 A 
ATOM     23  C   UNL     1       5.503   4.795  18.869  0.00  0.00    +0.000 A 
ATOM     24  C   UNL     1       4.910   3.552  18.711  0.00  0.00    +0.000 A 
ATOM     25  C   UNL     1       3.543   3.431  18.386  0.00  0.00    +0.000 A 
BRANCH  25  26
ATOM     26  C   UNL     1       3.009   2.010  18.309  0.00  0.00    +0.000 C 
ATOM     27  F   UNL     1       3.934   1.019  18.432  0.00  0.00    +0.000 F 
ATOM     28  F   UNL     1       2.070   1.759  19.267  0.00  0.00    +0.000 F 
ATOM     29  F   UNL     1       2.385   1.766  17.118  0.00  0.00    +0.000 F 
ENDBRANCH  25  26
ENDBRANCH  18  21
ENDBRANCH   1  18
TORSDOF 5
ENDMDL
