MODEL 1
REMARK VINA RESULT:      -8.1      0.000      0.000
REMARK  Name = 
REMARK  5 active torsions:
REMARK  status: ('A' for Active; 'I' for Inactive)
REMARK    1  A    between atoms: C_2  and  O_3
REMARK    2  A    between atoms: C_2  and  C_15
REMARK    3  A    between atoms: O_3  and  C_4
REMARK    4  A    between atoms: C_4  and  C_5
REMARK    5  A    between atoms: C_8  and  C_9
REMARK                            x       y       z     vdW  Elec       q    Type
REMARK                         _______ _______ _______ _____ _____    ______ ____
ROOT
ATOM      1  O   UNL     1       6.584   5.659  17.677  0.00  0.00    +0.000 OA
ENDROOT
BRANCH   1   3
ATOM      2  O   UNL     1       8.285   4.109  17.681  0.00  0.00    +0.000 OA
ATOM      3  C   UNL     1       7.406   4.738  17.111  0.00  0.00    +0.000 C 
BRANCH   3   4
ATOM      4  C   UNL     1       7.074   4.579  15.661  0.00  0.00    +0.000 A 
ATOM      5  C   UNL     1       6.059   3.773  15.310  0.00  0.00    +0.000 A 
ATOM      6  C   UNL     1       5.714   3.611  13.916  0.00  0.00    +0.000 A 
ATOM      7  C   UNL     1       6.395   4.264  12.963  0.00  0.00    +0.000 A 
ATOM      8  C   UNL     1       7.517   5.163  13.346  0.00  0.00    +0.000 A 
ATOM      9  O   UNL     1       8.151   5.779  12.498  0.00  0.00    +0.000 OA
ATOM     10  N   UNL     1       7.784   5.251  14.689  0.00  0.00    +0.000 N 
ATOM     11  H   UNL     1       8.550   5.855  14.968  0.00  0.00    +0.000 HD
ENDBRANCH   3   4
ENDBRANCH   1   3
BRANCH   1  12
ATOM     12  C   UNL     1       6.365   5.503  19.087  0.00  0.00    +0.000 C 
BRANCH  12  13
ATOM     13  C   UNL     1       4.989   4.931  19.310  0.00  0.00    +0.000 A 
ATOM     14  C   UNL     1       3.881   5.777  19.451  0.00  0.00    +0.000 A 
ATOM     15  C   UNL     1       2.609   5.247  19.680  0.00  0.00    +0.000 A 
ATOM     16  C   UNL     1       2.420   3.862  19.782  0.00  0.00    +0.000 A 
ATOM     17  C   UNL     1       3.530   3.015  19.639  0.00  0.00    +0.000 A 
ATOM     18  C   UNL     1       4.803   3.545  19.409  0.00  0.00    +0.000 A 
BRANCH  16  19
ATOM     19  C   UNL     1       1.053   3.278  20.049  0.00  0.00    +0.000 C 
ATOM     20  F   UNL     1       1.030   2.393  21.085  0.00  0.00    +0.000 F 
ATOM     21  F   UNL     1       0.129   4.231  20.354  0.00  0.00    +0.000 F 
ATOM     22  F   UNL     1       0.556   2.605  18.974  0.00  0.00    +0.000 F 
ENDBRANCH  16  19
ENDBRANCH  12  13
ENDBRANCH   1  12
TORSDOF 5
ENDMDL
MODEL 2
REMARK VINA RESULT:      -8.1      1.905      3.325
REMARK  Name = 
REMARK  5 active torsions:
REMARK  status: ('A' for Active; 'I' for Inactive)
REMARK    1  A    between atoms: C_2  and  O_3
REMARK    2  A    between atoms: C_2  and  C_15
REMARK    3  A    between atoms: O_3  and  C_4
REMARK    4  A    between atoms: C_4  and  C_5
REMARK    5  A    between atoms: C_8  and  C_9
REMARK                            x       y       z     vdW  Elec       q    Type
REMARK                         _______ _______ _______ _____ _____    ______ ____
ROOT
ATOM      1  O   UNL     1       5.665   3.667  15.759  0.00  0.00    +0.000 OA
ENDROOT
BRANCH   1   3
ATOM      2  O   UNL     1       7.262   4.473  14.312  0.00  0.00    +0.000 OA
ATOM      3  C   UNL     1       6.729   4.436  15.411  0.00  0.00    +0.000 C 
BRANCH   3   4
ATOM      4  C   UNL     1       7.166   5.264  16.577  0.00  0.00    +0.000 A 
ATOM      5  C   UNL     1       7.487   4.651  17.728  0.00  0.00    +0.000 A 
ATOM      6  C   UNL     1       7.921   5.430  18.865  0.00  0.00    +0.000 A 
ATOM      7  C   UNL     1       8.013   6.766  18.783  0.00  0.00    +0.000 A 
ATOM      8  C   UNL     1       7.664   7.450  17.509  0.00  0.00    +0.000 A 
ATOM      9  O   UNL     1       7.747   8.668  17.402  0.00  0.00    +0.000 OA
ATOM     10  N   UNL     1       7.252   6.637  16.484  0.00  0.00    +0.000 N 
ATOM     11  H   UNL     1       7.005   7.087  15.609  0.00  0.00    +0.000 HD
ENDBRANCH   3   4
ENDBRANCH   1   3
BRANCH   1  12
ATOM     12  C   UNL     1       4.413   4.362  15.865  0.00  0.00    +0.000 C 
BRANCH  12  13
ATOM     13  C   UNL     1       3.821   4.098  17.226  0.00  0.00    +0.000 A 
ATOM     14  C   UNL     1       2.985   5.045  17.833  0.00  0.00    +0.000 A 
ATOM     15  C   UNL     1       2.454   4.811  19.103  0.00  0.00    +0.000 A 
ATOM     16  C   UNL     1       2.755   3.630  19.797  0.00  0.00    +0.000 A 
ATOM     17  C   UNL     1       3.591   2.683  19.188  0.00  0.00    +0.000 A 
ATOM     18  C   UNL     1       4.122   2.916  17.916  0.00  0.00    +0.000 A 
BRANCH  16  19
ATOM     19  C   UNL     1       2.203   3.375  21.179  0.00  0.00    +0.000 C 
ATOM     20  F   UNL     1       0.882   3.041  21.186  0.00  0.00    +0.000 F 
ATOM     21  F   UNL     1       2.846   2.358  21.818  0.00  0.00    +0.000 F 
ATOM     22  F   UNL     1       2.317   4.460  21.993  0.00  0.00    +0.000 F 
ENDBRANCH  16  19
ENDBRANCH  12  13
ENDBRANCH   1  12
TORSDOF 5
ENDMDL
MODEL 3
REMARK VINA RESULT:      -8.0      1.915      3.311
REMARK  Name = 
REMARK  5 active torsions:
REMARK  status: ('A' for Active; 'I' for Inactive)
REMARK    1  A    between atoms: C_2  and  O_3
REMARK    2  A    between atoms: C_2  and  C_15
REMARK    3  A    between atoms: O_3  and  C_4
REMARK    4  A    between atoms: C_4  and  C_5
REMARK    5  A    between atoms: C_8  and  C_9
REMARK                            x       y       z     vdW  Elec       q    Type
REMARK                         _______ _______ _______ _____ _____    ______ ____
ROOT
ATOM      1  O   UNL     1       5.661   3.574  16.010  0.00  0.00    +0.000 OA
ENDROOT
BRANCH   1   3
ATOM      2  O   UNL     1       7.071   4.436  14.410  0.00  0.00    +0.000 OA
ATOM      3  C   UNL     1       6.645   4.391  15.554  0.00  0.00    +0.000 C 
BRANCH   3   4
ATOM      4  C   UNL     1       7.140   5.264  16.663  0.00  0.00    +0.000 A 
ATOM      5  C   UNL     1       7.573   4.691  17.799  0.00  0.00    +0.000 A 
ATOM      6  C   UNL     1       8.066   5.514  18.879  0.00  0.00    +0.000 A 
ATOM      7  C   UNL     1       8.102   6.849  18.761  0.00  0.00    +0.000 A 
ATOM      8  C   UNL     1       7.630   7.489  17.503  0.00  0.00    +0.000 A 
ATOM      9  O   UNL     1       7.661   8.705  17.362  0.00  0.00    +0.000 OA
ATOM     10  N   UNL     1       7.169   6.636  16.532  0.00  0.00    +0.000 N 
ATOM     11  H   UNL     1       6.838   7.055  15.669  0.00  0.00    +0.000 HD
ENDBRANCH   3   4
ENDBRANCH   1   3
BRANCH   1  12
ATOM     12  C   UNL     1       4.350   4.158  16.062  0.00  0.00    +0.000 C 
BRANCH  12  13
ATOM     13  C   UNL     1       3.731   3.856  17.402  0.00  0.00    +0.000 A 
ATOM     14  C   UNL     1       2.345   3.949  17.583  0.00  0.00    +0.000 A 
ATOM     15  C   UNL     1       1.773   3.691  18.831  0.00  0.00    +0.000 A 
ATOM     16  C   UNL     1       2.576   3.344  19.926  0.00  0.00    +0.000 A 
ATOM     17  C   UNL     1       3.965   3.250  19.744  0.00  0.00    +0.000 A 
ATOM     18  C   UNL     1       4.537   3.507  18.495  0.00  0.00    +0.000 A 
BRANCH  16  19
ATOM     19  C   UNL     1       1.973   3.083  21.285  0.00  0.00    +0.000 C 
ATOM     20  F   UNL     1       2.284   4.032  22.213  0.00  0.00    +0.000 F 
ATOM     21  F   UNL     1       0.612   3.031  21.251  0.00  0.00    +0.000 F 
ATOM     22  F   UNL     1       2.379   1.897  21.815  0.00  0.00    +0.000 F 
ENDBRANCH  16  19
ENDBRANCH  12  13
ENDBRANCH   1  12
TORSDOF 5
ENDMDL
MODEL 4
REMARK VINA RESULT:      -7.8      0.890      1.151
REMARK  Name = 
REMARK  5 active torsions:
REMARK  status: ('A' for Active; 'I' for Inactive)
REMARK    1  A    between atoms: C_2  and  O_3
REMARK    2  A    between atoms: C_2  and  C_15
REMARK    3  A    between atoms: O_3  and  C_4
REMARK    4  A    between atoms: C_4  and  C_5
REMARK    5  A    between atoms: C_8  and  C_9
REMARK                            x       y       z     vdW  Elec       q    Type
REMARK                         _______ _______ _______ _____ _____    ______ ____
ROOT
ATOM      1  O   UNL     1       7.413   5.215  18.087  0.00  0.00    +0.000 OA
ENDROOT
BRANCH   1   3
ATOM      2  O   UNL     1       7.351   7.284  17.083  0.00  0.00    +0.000 OA
ATOM      3  C   UNL     1       7.234   6.068  17.046  0.00  0.00    +0.000 C 
BRANCH   3   4
ATOM      4  C   UNL     1       6.882   5.302  15.811  0.00  0.00    +0.000 A 
ATOM      5  C   UNL     1       5.889   4.399  15.866  0.00  0.00    +0.000 A 
ATOM      6  C   UNL     1       5.525   3.654  14.682  0.00  0.00    +0.000 A 
ATOM      7  C   UNL     1       6.165   3.857  13.522  0.00  0.00    +0.000 A 
ATOM      8  C   UNL     1       7.263   4.860  13.454  0.00  0.00    +0.000 A 
ATOM      9  O   UNL     1       7.859   5.073  12.405  0.00  0.00    +0.000 OA
ATOM     10  N   UNL     1       7.551   5.515  14.624  0.00  0.00    +0.000 N 
ATOM     11  H   UNL     1       8.300   6.198  14.598  0.00  0.00    +0.000 HD
ENDBRANCH   3   4
ENDBRANCH   1   3
BRANCH   1  12
ATOM     12  C   UNL     1       6.690   5.544  19.283  0.00  0.00    +0.000 C 
BRANCH  12  13
ATOM     13  C   UNL     1       5.296   4.982  19.183  0.00  0.00    +0.000 A 
ATOM     14  C   UNL     1       4.193   5.835  19.045  0.00  0.00    +0.000 A 
ATOM     15  C   UNL     1       2.898   5.315  18.975  0.00  0.00    +0.000 A 
ATOM     16  C   UNL     1       2.678   3.933  19.051  0.00  0.00    +0.000 A 
ATOM     17  C   UNL     1       3.784   3.079  19.188  0.00  0.00    +0.000 A 
ATOM     18  C   UNL     1       5.080   3.599  19.257  0.00  0.00    +0.000 A 
BRANCH  16  19
ATOM     19  C   UNL     1       1.283   3.360  18.997  0.00  0.00    +0.000 C 
ATOM     20  F   UNL     1       1.246   2.001  19.088  0.00  0.00    +0.000 F 
ATOM     21  F   UNL     1       0.490   3.821  20.005  0.00  0.00    +0.000 F 
ATOM     22  F   UNL     1       0.637   3.673  17.840  0.00  0.00    +0.000 F 
ENDBRANCH  16  19
ENDBRANCH  12  13
ENDBRANCH   1  12
TORSDOF 5
ENDMDL
MODEL 5
REMARK VINA RESULT:      -7.8      1.923      3.571
REMARK  Name = 
REMARK  5 active torsions:
REMARK  status: ('A' for Active; 'I' for Inactive)
REMARK    1  A    between atoms: C_2  and  O_3
REMARK    2  A    between atoms: C_2  and  C_15
REMARK    3  A    between atoms: O_3  and  C_4
REMARK    4  A    between atoms: C_4  and  C_5
REMARK    5  A    between atoms: C_8  and  C_9
REMARK                            x       y       z     vdW  Elec       q    Type
REMARK                         _______ _______ _______ _____ _____    ______ ____
ROOT
ATOM      1  O   UNL     1       5.242   4.968  15.597  0.00  0.00    +0.000 OA
ENDROOT
BRANCH   1   3
ATOM      2  O   UNL     1       7.172   5.172  14.361  0.00  0.00    +0.000 OA
ATOM      3  C   UNL     1       6.541   5.311  15.398  0.00  0.00    +0.000 C 
BRANCH   3   4
ATOM      4  C   UNL     1       7.108   5.911  16.645  0.00  0.00    +0.000 A 
ATOM      5  C   UNL     1       7.422   5.103  17.672  0.00  0.00    +0.000 A 
ATOM      6  C   UNL     1       7.982   5.659  18.882  0.00  0.00    +0.000 A 
ATOM      7  C   UNL     1       8.197   6.977  18.993  0.00  0.00    +0.000 A 
ATOM      8  C   UNL     1       7.857   7.876  17.858  0.00  0.00    +0.000 A 
ATOM      9  O   UNL     1       8.052   9.084  17.927  0.00  0.00    +0.000 OA
ATOM     10  N   UNL     1       7.322   7.269  16.750  0.00  0.00    +0.000 N 
ATOM     11  H   UNL     1       7.078   7.867  15.968  0.00  0.00    +0.000 HD
ENDBRANCH   3   4
ENDBRANCH   1   3
BRANCH   1  12
ATOM     12  C   UNL     1       5.020   3.612  16.012  0.00  0.00    +0.000 C 
BRANCH  12  13
ATOM     13  C   UNL     1       4.035   3.604  17.153  0.00  0.00    +0.000 A 
ATOM     14  C   UNL     1       3.784   2.425  17.867  0.00  0.00    +0.000 A 
ATOM     15  C   UNL     1       2.854   2.412  18.910  0.00  0.00    +0.000 A 
ATOM     16  C   UNL     1       2.151   3.574  19.254  0.00  0.00    +0.000 A 
ATOM     17  C   UNL     1       2.405   4.755  18.539  0.00  0.00    +0.000 A 
ATOM     18  C   UNL     1       3.335   4.769  17.496  0.00  0.00    +0.000 A 
BRANCH  16  19
ATOM     19  C   UNL     1       1.129   3.568  20.366  0.00  0.00    +0.000 C 
ATOM     20  F   UNL     1      -0.058   2.999  20.013  0.00  0.00    +0.000 F 
ATOM     21  F   UNL     1       1.557   2.885  21.464  0.00  0.00    +0.000 F 
ATOM     22  F   UNL     1       0.826   4.823  20.800  0.00  0.00    +0.000 F 
ENDBRANCH  16  19
ENDBRANCH  12  13
ENDBRANCH   1  12
TORSDOF 5
ENDMDL
MODEL 6
REMARK VINA RESULT:      -7.7      1.149      1.330
REMARK  Name = 
REMARK  5 active torsions:
REMARK  status: ('A' for Active; 'I' for Inactive)
REMARK    1  A    between atoms: C_2  and  O_3
REMARK    2  A    between atoms: C_2  and  C_15
REMARK    3  A    between atoms: O_3  and  C_4
REMARK    4  A    between atoms: C_4  and  C_5
REMARK    5  A    between atoms: C_8  and  C_9
REMARK                            x       y       z     vdW  Elec       q    Type
REMARK                         _______ _______ _______ _____ _____    ______ ____
ROOT
ATOM      1  O   UNL     1       5.996   6.386  17.477  0.00  0.00    +0.000 OA
ENDROOT
BRANCH   1   3
ATOM      2  O   UNL     1       6.817   4.345  18.154  0.00  0.00    +0.000 OA
ATOM      3  C   UNL     1       6.516   5.147  17.281  0.00  0.00    +0.000 C 
BRANCH   3   4
ATOM      4  C   UNL     1       6.664   4.879  15.817  0.00  0.00    +0.000 A 
ATOM      5  C   UNL     1       5.847   3.986  15.234  0.00  0.00    +0.000 A 
ATOM      6  C   UNL     1       5.964   3.718  13.819  0.00  0.00    +0.000 A 
ATOM      7  C   UNL     1       6.879   4.356  13.075  0.00  0.00    +0.000 A 
ATOM      8  C   UNL     1       7.783   5.350  13.714  0.00  0.00    +0.000 A 
ATOM      9  O   UNL     1       8.622   5.956  13.059  0.00  0.00    +0.000 OA
ATOM     10  N   UNL     1       7.611   5.538  15.063  0.00  0.00    +0.000 N 
ATOM     11  H   UNL     1       8.222   6.207  15.517  0.00  0.00    +0.000 HD
ENDBRANCH   3   4
ENDBRANCH   1   3
BRANCH   1  12
ATOM     12  C   UNL     1       4.623   6.545  17.088  0.00  0.00    +0.000 C 
BRANCH  12  13
ATOM     13  C   UNL     1       3.761   5.679  17.971  0.00  0.00    +0.000 A 
ATOM     14  C   UNL     1       3.627   5.966  19.336  0.00  0.00    +0.000 A 
ATOM     15  C   UNL     1       2.846   5.151  20.158  0.00  0.00    +0.000 A 
ATOM     16  C   UNL     1       2.189   4.028  19.635  0.00  0.00    +0.000 A 
ATOM     17  C   UNL     1       2.322   3.743  18.268  0.00  0.00    +0.000 A 
ATOM     18  C   UNL     1       3.103   4.559  17.444  0.00  0.00    +0.000 A 
BRANCH  16  19
ATOM     19  C   UNL     1       1.359   3.128  20.518  0.00  0.00    +0.000 C 
ATOM     20  F   UNL     1       1.503   3.384  21.849  0.00  0.00    +0.000 F 
ATOM     21  F   UNL     1       0.025   3.233  20.263  0.00  0.00    +0.000 F 
ATOM     22  F   UNL     1       1.668   1.812  20.357  0.00  0.00    +0.000 F 
ENDBRANCH  16  19
ENDBRANCH  12  13
ENDBRANCH   1  12
TORSDOF 5
ENDMDL
MODEL 7
REMARK VINA RESULT:      -7.6      3.103      4.561
REMARK  Name = 
REMARK  5 active torsions:
REMARK  status: ('A' for Active; 'I' for Inactive)
REMARK    1  A    between atoms: C_2  and  O_3
REMARK    2  A    between atoms: C_2  and  C_15
REMARK    3  A    between atoms: O_3  and  C_4
REMARK    4  A    between atoms: C_4  and  C_5
REMARK    5  A    between atoms: C_8  and  C_9
REMARK                            x       y       z     vdW  Elec       q    Type
REMARK                         _______ _______ _______ _____ _____    ______ ____
ROOT
ATOM      1  O   UNL     1       4.197   4.751  16.593  0.00  0.00    +0.000 OA
ENDROOT
BRANCH   1   3
ATOM      2  O   UNL     1       5.884   3.433  15.751  0.00  0.00    +0.000 OA
ATOM      3  C   UNL     1       5.487   4.354  16.449  0.00  0.00    +0.000 C 
BRANCH   3   4
ATOM      4  C   UNL     1       6.386   5.225  17.268  0.00  0.00    +0.000 A 
ATOM      5  C   UNL     1       6.757   6.420  16.778  0.00  0.00    +0.000 A 
ATOM      6  C   UNL     1       7.617   7.283  17.555  0.00  0.00    +0.000 A 
ATOM      7  C   UNL     1       8.047   6.908  18.768  0.00  0.00    +0.000 A 
ATOM      8  C   UNL     1       7.634   5.588  19.319  0.00  0.00    +0.000 A 
ATOM      9  O   UNL     1       8.004   5.222  20.428  0.00  0.00    +0.000 OA
ATOM     10  N   UNL     1       6.826   4.827  18.512  0.00  0.00    +0.000 N 
ATOM     11  H   UNL     1       6.540   3.922  18.869  0.00  0.00    +0.000 HD
ENDBRANCH   3   4
ENDBRANCH   1   3
BRANCH   1  12
ATOM     12  C   UNL     1       3.485   4.145  17.683  0.00  0.00    +0.000 C 
BRANCH  12  13
ATOM     13  C   UNL     1       2.904   5.231  18.552  0.00  0.00    +0.000 A 
ATOM     14  C   UNL     1       2.301   4.916  19.776  0.00  0.00    +0.000 A 
ATOM     15  C   UNL     1       1.742   5.919  20.571  0.00  0.00    +0.000 A 
ATOM     16  C   UNL     1       1.766   7.258  20.154  0.00  0.00    +0.000 A 
ATOM     17  C   UNL     1       2.372   7.572  18.928  0.00  0.00    +0.000 A 
ATOM     18  C   UNL     1       2.932   6.569  18.133  0.00  0.00    +0.000 A 
BRANCH  16  19
ATOM     19  C   UNL     1       1.148   8.348  20.994  0.00  0.00    +0.000 C 
ATOM     20  F   UNL     1       0.885   9.491  20.299  0.00  0.00    +0.000 F 
ATOM     21  F   UNL     1      -0.037   7.972  21.550  0.00  0.00    +0.000 F 
ATOM     22  F   UNL     1       1.946   8.720  22.033  0.00  0.00    +0.000 F 
ENDBRANCH  16  19
ENDBRANCH  12  13
ENDBRANCH   1  12
TORSDOF 5
ENDMDL
MODEL 8
REMARK VINA RESULT:      -7.6      1.975      3.701
REMARK  Name = 
REMARK  5 active torsions:
REMARK  status: ('A' for Active; 'I' for Inactive)
REMARK    1  A    between atoms: C_2  and  O_3
REMARK    2  A    between atoms: C_2  and  C_15
REMARK    3  A    between atoms: O_3  and  C_4
REMARK    4  A    between atoms: C_4  and  C_5
REMARK    5  A    between atoms: C_8  and  C_9
REMARK                            x       y       z     vdW  Elec       q    Type
REMARK                         _______ _______ _______ _____ _____    ______ ____
ROOT
ATOM      1  O   UNL     1       5.637   3.496  16.199  0.00  0.00    +0.000 OA
ENDROOT
BRANCH   1   3
ATOM      2  O   UNL     1       7.018   4.293  14.540  0.00  0.00    +0.000 OA
ATOM      3  C   UNL     1       6.609   4.298  15.692  0.00  0.00    +0.000 C 
BRANCH   3   4
ATOM      4  C   UNL     1       7.115   5.223  16.752  0.00  0.00    +0.000 A 
ATOM      5  C   UNL     1       7.095   6.547  16.523  0.00  0.00    +0.000 A 
ATOM      6  C   UNL     1       7.569   7.461  17.537  0.00  0.00    +0.000 A 
ATOM      7  C   UNL     1       8.027   7.003  18.711  0.00  0.00    +0.000 A 
ATOM      8  C   UNL     1       8.046   5.539  18.972  0.00  0.00    +0.000 A 
ATOM      9  O   UNL     1       8.450   5.092  20.038  0.00  0.00    +0.000 OA
ATOM     10  N   UNL     1       7.587   4.741  17.954  0.00  0.00    +0.000 N 
ATOM     11  H   UNL     1       7.598   3.739  18.112  0.00  0.00    +0.000 HD
ENDBRANCH   3   4
ENDBRANCH   1   3
BRANCH   1  12
ATOM     12  C   UNL     1       4.321   4.067  16.227  0.00  0.00    +0.000 C 
BRANCH  12  13
ATOM     13  C   UNL     1       3.701   3.804  17.575  0.00  0.00    +0.000 A 
ATOM     14  C   UNL     1       4.502   3.449  18.669  0.00  0.00    +0.000 A 
ATOM     15  C   UNL     1       3.926   3.183  19.913  0.00  0.00    +0.000 A 
ATOM     16  C   UNL     1       2.537   3.258  20.088  0.00  0.00    +0.000 A 
ATOM     17  C   UNL     1       1.736   3.615  18.993  0.00  0.00    +0.000 A 
ATOM     18  C   UNL     1       2.312   3.882  17.747  0.00  0.00    +0.000 A 
BRANCH  16  19
ATOM     19  C   UNL     1       1.901   2.954  21.423  0.00  0.00    +0.000 C 
ATOM     20  F   UNL     1       0.549   2.793  21.359  0.00  0.00    +0.000 F 
ATOM     21  F   UNL     1       2.384   1.811  21.984  0.00  0.00    +0.000 F 
ATOM     22  F   UNL     1       2.115   3.939  22.338  0.00  0.00    +0.000 F 
ENDBRANCH  16  19
ENDBRANCH  12  13
ENDBRANCH   1  12
TORSDOF 5
ENDMDL
MODEL 9
REMARK VINA RESULT:      -7.6      1.503      2.030
REMARK  Name = 
REMARK  5 active torsions:
REMARK  status: ('A' for Active; 'I' for Inactive)
REMARK    1  A    between atoms: C_2  and  O_3
REMARK    2  A    between atoms: C_2  and  C_15
REMARK    3  A    between atoms: O_3  and  C_4
REMARK    4  A    between atoms: C_4  and  C_5
REMARK    5  A    between atoms: C_8  and  C_9
REMARK                            x       y       z     vdW  Elec       q    Type
REMARK                         _______ _______ _______ _____ _____    ______ ____
ROOT
ATOM      1  O   UNL     1       6.153   5.959  16.195  0.00  0.00    +0.000 OA
ENDROOT
BRANCH   1   3
ATOM      2  O   UNL     1       7.739   4.364  16.676  0.00  0.00    +0.000 OA
ATOM      3  C   UNL     1       7.036   4.975  15.885  0.00  0.00    +0.000 C 
BRANCH   3   4
ATOM      4  C   UNL     1       7.024   4.721  14.412  0.00  0.00    +0.000 A 
ATOM      5  C   UNL     1       7.778   5.492  13.612  0.00  0.00    +0.000 A 
ATOM      6  C   UNL     1       7.790   5.259  12.186  0.00  0.00    +0.000 A 
ATOM      7  C   UNL     1       7.057   4.273  11.648  0.00  0.00    +0.000 A 
ATOM      8  C   UNL     1       6.224   3.411  12.530  0.00  0.00    +0.000 A 
ATOM      9  O   UNL     1       5.551   2.497  12.069  0.00  0.00    +0.000 OA
ATOM     10  N   UNL     1       6.263   3.707  13.869  0.00  0.00    +0.000 N 
ATOM     11  H   UNL     1       5.696   3.134  14.485  0.00  0.00    +0.000 HD
ENDBRANCH   3   4
ENDBRANCH   1   3
BRANCH   1  12
ATOM     12  C   UNL     1       5.974   6.206  17.598  0.00  0.00    +0.000 C 
BRANCH  12  13
ATOM     13  C   UNL     1       4.772   5.435  18.081  0.00  0.00    +0.000 A 
ATOM     14  C   UNL     1       3.491   5.740  17.602  0.00  0.00    +0.000 A 
ATOM     15  C   UNL     1       2.375   5.041  18.068  0.00  0.00    +0.000 A 
ATOM     16  C   UNL     1       2.515   4.029  19.028  0.00  0.00    +0.000 A 
ATOM     17  C   UNL     1       3.799   3.724  19.505  0.00  0.00    +0.000 A 
ATOM     18  C   UNL     1       4.916   4.422  19.040  0.00  0.00    +0.000 A 
BRANCH  16  19
ATOM     19  C   UNL     1       1.314   3.280  19.553  0.00  0.00    +0.000 C 
ATOM     20  F   UNL     1       0.567   2.693  18.577  0.00  0.00    +0.000 F 
ATOM     21  F   UNL     1       1.657   2.279  20.411  0.00  0.00    +0.000 F 
ATOM     22  F   UNL     1       0.459   4.086  20.241  0.00  0.00    +0.000 F 
ENDBRANCH  16  19
ENDBRANCH  12  13
ENDBRANCH   1  12
TORSDOF 5
ENDMDL
