MODEL 1
REMARK VINA RESULT:      -7.9      0.000      0.000
REMARK  Name = 
REMARK  2 active torsions:
REMARK  status: ('A' for Active; 'I' for Inactive)
REMARK    1  A    between atoms: C_4  and  O_5
REMARK    2  A    between atoms: N_9  and  C_10
REMARK                            x       y       z     vdW  Elec       q    Type
REMARK                         _______ _______ _______ _____ _____    ______ ____
ROOT
ATOM      1  N   UNL     1       1.365   2.863  22.118  0.00  0.00    +0.000 N 
ATOM      2  C   UNL     1       2.334   3.279  21.229  0.00  0.00    +0.000 A 
ATOM      3  N   UNL     1       3.270   2.374  20.894  0.00  0.00    +0.000 NA
ATOM      4  C   UNL     1       4.196   2.739  19.995  0.00  0.00    +0.000 A 
ATOM      5  C   UNL     1       4.183   3.999  19.413  0.00  0.00    +0.000 A 
ATOM      6  N   UNL     1       4.951   4.609  18.452  0.00  0.00    +0.000 NA
ATOM      7  C   UNL     1       4.404   5.795  18.293  0.00  0.00    +0.000 A 
ATOM      8  N   UNL     1       3.320   6.008  19.122  0.00  0.00    +0.000 N 
ATOM      9  C   UNL     1       3.172   4.840  19.853  0.00  0.00    +0.000 A 
ATOM     10  N   UNL     1       2.214   4.524  20.747  0.00  0.00    +0.000 NA
ATOM     11  H   UNL     1       1.280   1.857  22.100  0.00  0.00    +0.000 HD
ATOM     12  H   UNL     1       0.517   3.399  21.989  0.00  0.00    +0.000 HD
ENDROOT
BRANCH   8  13
ATOM     13  C   UNL     1       2.526   7.185  19.180  0.00  0.00    +0.000 A 
ATOM     14  C   UNL     1       2.347   7.966  18.030  0.00  0.00    +0.000 A 
ATOM     15  C   UNL     1       1.543   9.109  18.080  0.00  0.00    +0.000 A 
ATOM     16  C   UNL     1       0.940   9.499  19.279  0.00  0.00    +0.000 A 
ATOM     17 CL   UNL     1      -0.032  10.927  19.261  0.00  0.00    +0.000 Cl
ATOM     18  C   UNL     1       1.136   8.736  20.433  0.00  0.00    +0.000 A 
ATOM     19 CL   UNL     1       0.458   9.181  21.961  0.00  0.00    +0.000 Cl
ATOM     20  C   UNL     1       1.915   7.573  20.381  0.00  0.00    +0.000 A 
ENDBRANCH   8  13
BRANCH   4  21
ATOM     21  O   UNL     1       5.114   1.774  19.689  0.00  0.00    +0.000 OA
ATOM     22  H   UNL     1       4.603   0.967  19.874  0.00  0.00    +0.000 HD
ENDBRANCH   4  21
TORSDOF 2
ENDMDL
MODEL 2
REMARK VINA RESULT:      -7.7      1.404      1.410
REMARK  Name = 
REMARK  2 active torsions:
REMARK  status: ('A' for Active; 'I' for Inactive)
REMARK    1  A    between atoms: C_4  and  O_5
REMARK    2  A    between atoms: N_9  and  C_10
REMARK                            x       y       z     vdW  Elec       q    Type
REMARK                         _______ _______ _______ _____ _____    ______ ____
ROOT
ATOM      1  N   UNL     1       0.421   2.057  18.637  0.00  0.00    +0.000 N 
ATOM      2  C   UNL     1       1.683   2.550  18.898  0.00  0.00    +0.000 A 
ATOM      3  N   UNL     1       2.665   1.643  19.033  0.00  0.00    +0.000 NA
ATOM      4  C   UNL     1       3.910   2.099  19.241  0.00  0.00    +0.000 A 
ATOM      5  C   UNL     1       4.183   3.459  19.297  0.00  0.00    +0.000 A 
ATOM      6  N   UNL     1       5.335   4.192  19.439  0.00  0.00    +0.000 NA
ATOM      7  C   UNL     1       4.944   5.445  19.361  0.00  0.00    +0.000 A 
ATOM      8  N   UNL     1       3.579   5.578  19.196  0.00  0.00    +0.000 N 
ATOM      9  C   UNL     1       3.079   4.287  19.153  0.00  0.00    +0.000 A 
ATOM     10  N   UNL     1       1.811   3.883  18.937  0.00  0.00    +0.000 NA
ATOM     11  H   UNL     1       0.482   1.138  18.222  0.00  0.00    +0.000 HD
ATOM     12  H   UNL     1      -0.131   2.747  18.146  0.00  0.00    +0.000 HD
ENDROOT
BRANCH   8  13
ATOM     13  C   UNL     1       2.863   6.800  19.079  0.00  0.00    +0.000 A 
ATOM     14  C   UNL     1       2.922   7.535  17.887  0.00  0.00    +0.000 A 
ATOM     15  C   UNL     1       2.195   8.722  17.762  0.00  0.00    +0.000 A 
ATOM     16  C   UNL     1       1.433   9.203  18.830  0.00  0.00    +0.000 A 
ATOM     17 CL   UNL     1       0.569  10.681  18.600  0.00  0.00    +0.000 Cl
ATOM     18  C   UNL     1       1.391   8.485  20.029  0.00  0.00    +0.000 A 
ATOM     19 CL   UNL     1       0.507   9.040  21.407  0.00  0.00    +0.000 Cl
ATOM     20  C   UNL     1       2.093   7.279  20.148  0.00  0.00    +0.000 A 
ENDBRANCH   8  13
BRANCH   4  21
ATOM     21  O   UNL     1       4.865   1.131  19.362  0.00  0.00    +0.000 OA
ATOM     22  H   UNL     1       4.351   0.335  19.141  0.00  0.00    +0.000 HD
ENDBRANCH   4  21
TORSDOF 2
ENDMDL
MODEL 3
REMARK VINA RESULT:      -7.6      2.458      3.648
REMARK  Name = 
REMARK  2 active torsions:
REMARK  status: ('A' for Active; 'I' for Inactive)
REMARK    1  A    between atoms: C_4  and  O_5
REMARK    2  A    between atoms: N_9  and  C_10
REMARK                            x       y       z     vdW  Elec       q    Type
REMARK                         _______ _______ _______ _____ _____    ______ ____
ROOT
ATOM      1  N   UNL     1       7.444   7.534  17.034  0.00  0.00    +0.000 N 
ATOM      2  C   UNL     1       6.387   6.648  17.054  0.00  0.00    +0.000 A 
ATOM      3  N   UNL     1       6.646   5.395  16.646  0.00  0.00    +0.000 NA
ATOM      4  C   UNL     1       5.646   4.502  16.700  0.00  0.00    +0.000 A 
ATOM      5  C   UNL     1       4.390   4.850  17.179  0.00  0.00    +0.000 A 
ATOM      6  N   UNL     1       3.228   4.151  17.393  0.00  0.00    +0.000 NA
ATOM      7  C   UNL     1       2.402   5.032  17.915  0.00  0.00    +0.000 A 
ATOM      8  N   UNL     1       2.957   6.291  18.036  0.00  0.00    +0.000 N 
ATOM      9  C   UNL     1       4.252   6.178  17.558  0.00  0.00    +0.000 A 
ATOM     10  N   UNL     1       5.223   7.112  17.530  0.00  0.00    +0.000 NA
ATOM     11  H   UNL     1       8.321   7.035  17.074  0.00  0.00    +0.000 HD
ATOM     12  H   UNL     1       7.301   8.267  17.716  0.00  0.00    +0.000 HD
ENDROOT
BRANCH   8  13
ATOM     13  C   UNL     1       2.314   7.444  18.563  0.00  0.00    +0.000 A 
ATOM     14  C   UNL     1       1.951   8.494  17.709  0.00  0.00    +0.000 A 
ATOM     15  C   UNL     1       1.294   9.617  18.221  0.00  0.00    +0.000 A 
ATOM     16  C   UNL     1       1.023   9.716  19.589  0.00  0.00    +0.000 A 
ATOM     17 CL   UNL     1       0.215  11.136  20.147  0.00  0.00    +0.000 Cl
ATOM     18  C   UNL     1       1.406   8.681  20.448  0.00  0.00    +0.000 A 
ATOM     19 CL   UNL     1       1.145   8.754  22.155  0.00  0.00    +0.000 Cl
ATOM     20  C   UNL     1       2.037   7.541  19.934  0.00  0.00    +0.000 A 
ENDBRANCH   8  13
BRANCH   4  21
ATOM     21  O   UNL     1       5.973   3.244  16.280  0.00  0.00    +0.000 OA
ATOM     22  H   UNL     1       5.103   2.913  15.995  0.00  0.00    +0.000 HD
ENDBRANCH   4  21
TORSDOF 2
ENDMDL
MODEL 4
REMARK VINA RESULT:      -7.5      4.137      5.556
REMARK  Name = 
REMARK  2 active torsions:
REMARK  status: ('A' for Active; 'I' for Inactive)
REMARK    1  A    between atoms: C_4  and  O_5
REMARK    2  A    between atoms: N_9  and  C_10
REMARK                            x       y       z     vdW  Elec       q    Type
REMARK                         _______ _______ _______ _____ _____    ______ ____
ROOT
ATOM      1  N   UNL     1       8.290   5.262  20.431  0.00  0.00    +0.000 N 
ATOM      2  C   UNL     1       7.621   5.872  19.390  0.00  0.00    +0.000 A 
ATOM      3  N   UNL     1       8.277   6.854  18.749  0.00  0.00    +0.000 NA
ATOM      4  C   UNL     1       7.667   7.431  17.702  0.00  0.00    +0.000 A 
ATOM      5  C   UNL     1       6.410   7.020  17.280  0.00  0.00    +0.000 A 
ATOM      6  N   UNL     1       5.592   7.382  16.239  0.00  0.00    +0.000 NA
ATOM      7  C   UNL     1       4.549   6.587  16.343  0.00  0.00    +0.000 A 
ATOM      8  N   UNL     1       4.628   5.728  17.422  0.00  0.00    +0.000 N 
ATOM      9  C   UNL     1       5.838   6.006  18.036  0.00  0.00    +0.000 A 
ATOM     10  N   UNL     1       6.408   5.388  19.089  0.00  0.00    +0.000 NA
ATOM     11  H   UNL     1       9.287   5.378  20.324  0.00  0.00    +0.000 HD
ATOM     12  H   UNL     1       7.948   4.320  20.564  0.00  0.00    +0.000 HD
ENDROOT
BRANCH   8  13
ATOM     13  C   UNL     1       3.659   4.756  17.793  0.00  0.00    +0.000 A 
ATOM     14  C   UNL     1       3.544   3.567  17.061  0.00  0.00    +0.000 A 
ATOM     15  C   UNL     1       2.612   2.598  17.443  0.00  0.00    +0.000 A 
ATOM     16  C   UNL     1       1.766   2.820  18.533  0.00  0.00    +0.000 A 
ATOM     17 CL   UNL     1       0.636   1.579  18.938  0.00  0.00    +0.000 Cl
ATOM     18  C   UNL     1       1.862   4.015  19.251  0.00  0.00    +0.000 A 
ATOM     19 CL   UNL     1       0.820   4.377  20.584  0.00  0.00    +0.000 Cl
ATOM     20  C   UNL     1       2.816   4.975  18.892  0.00  0.00    +0.000 A 
ENDBRANCH   8  13
BRANCH   4  21
ATOM     21  O   UNL     1       8.387   8.415  17.086  0.00  0.00    +0.000 OA
ATOM     22  H   UNL     1       9.172   8.456  17.660  0.00  0.00    +0.000 HD
ENDBRANCH   4  21
TORSDOF 2
ENDMDL
MODEL 5
REMARK VINA RESULT:      -7.5      4.777      6.665
REMARK  Name = 
REMARK  2 active torsions:
REMARK  status: ('A' for Active; 'I' for Inactive)
REMARK    1  A    between atoms: C_4  and  O_5
REMARK    2  A    between atoms: N_9  and  C_10
REMARK                            x       y       z     vdW  Elec       q    Type
REMARK                         _______ _______ _______ _____ _____    ______ ____
ROOT
ATOM      1  N   UNL     1       5.294   3.056  12.143  0.00  0.00    +0.000 N 
ATOM      2  C   UNL     1       5.926   3.818  13.104  0.00  0.00    +0.000 A 
ATOM      3  N   UNL     1       7.061   4.432  12.732  0.00  0.00    +0.000 NA
ATOM      4  C   UNL     1       7.669   5.218  13.634  0.00  0.00    +0.000 A 
ATOM      5  C   UNL     1       7.140   5.407  14.904  0.00  0.00    +0.000 A 
ATOM      6  N   UNL     1       7.507   6.173  15.982  0.00  0.00    +0.000 NA
ATOM      7  C   UNL     1       6.566   5.962  16.876  0.00  0.00    +0.000 A 
ATOM      8  N   UNL     1       5.601   5.070  16.448  0.00  0.00    +0.000 N 
ATOM      9  C   UNL     1       5.971   4.706  15.163  0.00  0.00    +0.000 A 
ATOM     10  N   UNL     1       5.316   3.912  14.294  0.00  0.00    +0.000 NA
ATOM     11  H   UNL     1       5.562   3.363  11.220  0.00  0.00    +0.000 HD
ATOM     12  H   UNL     1       4.304   2.994  12.339  0.00  0.00    +0.000 HD
ENDROOT
BRANCH   8  13
ATOM     13  C   UNL     1       4.464   4.645  17.187  0.00  0.00    +0.000 A 
ATOM     14  C   UNL     1       3.488   5.576  17.567  0.00  0.00    +0.000 A 
ATOM     15  C   UNL     1       2.355   5.153  18.269  0.00  0.00    +0.000 A 
ATOM     16  C   UNL     1       2.203   3.811  18.626  0.00  0.00    +0.000 A 
ATOM     17 CL   UNL     1       0.781   3.368  19.500  0.00  0.00    +0.000 Cl
ATOM     18  C   UNL     1       3.187   2.884  18.271  0.00  0.00    +0.000 A 
ATOM     19 CL   UNL     1       3.089   1.216  18.716  0.00  0.00    +0.000 Cl
ATOM     20  C   UNL     1       4.308   3.297  17.540  0.00  0.00    +0.000 A 
ENDBRANCH   8  13
BRANCH   4  21
ATOM     21  O   UNL     1       8.813   5.821  13.195  0.00  0.00    +0.000 OA
ATOM     22  H   UNL     1       8.987   6.441  13.925  0.00  0.00    +0.000 HD
ENDBRANCH   4  21
TORSDOF 2
ENDMDL
MODEL 6
REMARK VINA RESULT:      -7.5      2.485      4.083
REMARK  Name = 
REMARK  2 active torsions:
REMARK  status: ('A' for Active; 'I' for Inactive)
REMARK    1  A    between atoms: C_4  and  O_5
REMARK    2  A    between atoms: N_9  and  C_10
REMARK                            x       y       z     vdW  Elec       q    Type
REMARK                         _______ _______ _______ _____ _____    ______ ____
ROOT
ATOM      1  N   UNL     1       7.590   7.335  16.955  0.00  0.00    +0.000 N 
ATOM      2  C   UNL     1       6.594   6.383  16.889  0.00  0.00    +0.000 A 
ATOM      3  N   UNL     1       6.898   5.238  16.257  0.00  0.00    +0.000 NA
ATOM      4  C   UNL     1       5.962   4.278  16.221  0.00  0.00    +0.000 A 
ATOM      5  C   UNL     1       4.726   4.448  16.829  0.00  0.00    +0.000 A 
ATOM      6  N   UNL     1       3.628   3.640  16.993  0.00  0.00    +0.000 NA
ATOM      7  C   UNL     1       2.790   4.359  17.709  0.00  0.00    +0.000 A 
ATOM      8  N   UNL     1       3.274   5.617  18.009  0.00  0.00    +0.000 N 
ATOM      9  C   UNL     1       4.535   5.681  17.438  0.00  0.00    +0.000 A 
ATOM     10  N   UNL     1       5.442   6.675  17.510  0.00  0.00    +0.000 NA
ATOM     11  H   UNL     1       8.496   6.902  16.854  0.00  0.00    +0.000 HD
ATOM     12  H   UNL     1       7.453   7.932  17.759  0.00  0.00    +0.000 HD
ENDROOT
BRANCH   8  13
ATOM     13  C   UNL     1       2.603   6.617  18.764  0.00  0.00    +0.000 A 
ATOM     14  C   UNL     1       2.189   6.344  20.075  0.00  0.00    +0.000 A 
ATOM     15  C   UNL     1       1.554   7.336  20.828  0.00  0.00    +0.000 A 
ATOM     16  C   UNL     1       1.298   8.592  20.273  0.00  0.00    +0.000 A 
ATOM     17 CL   UNL     1       0.503   9.762  21.264  0.00  0.00    +0.000 Cl
ATOM     18  C   UNL     1       1.688   8.860  18.957  0.00  0.00    +0.000 A 
ATOM     19 CL   UNL     1       1.366  10.376  18.190  0.00  0.00    +0.000 Cl
ATOM     20  C   UNL     1       2.353   7.880  18.210  0.00  0.00    +0.000 A 
ENDBRANCH   8  13
BRANCH   4  21
ATOM     21  O   UNL     1       6.333   3.135  15.572  0.00  0.00    +0.000 OA
ATOM     22  H   UNL     1       7.135   2.893  16.068  0.00  0.00    +0.000 HD
ENDBRANCH   4  21
TORSDOF 2
ENDMDL
MODEL 7
REMARK VINA RESULT:      -7.4      3.840      5.186
REMARK  Name = 
REMARK  2 active torsions:
REMARK  status: ('A' for Active; 'I' for Inactive)
REMARK    1  A    between atoms: C_4  and  O_5
REMARK    2  A    between atoms: N_9  and  C_10
REMARK                            x       y       z     vdW  Elec       q    Type
REMARK                         _______ _______ _______ _____ _____    ______ ____
ROOT
ATOM      1  N   UNL     1       5.538   1.049  21.302  0.00  0.00    +0.000 N 
ATOM      2  C   UNL     1       4.524   1.896  20.906  0.00  0.00    +0.000 A 
ATOM      3  N   UNL     1       3.435   1.938  21.690  0.00  0.00    +0.000 NA
ATOM      4  C   UNL     1       2.454   2.790  21.352  0.00  0.00    +0.000 A 
ATOM      5  C   UNL     1       2.564   3.615  20.241  0.00  0.00    +0.000 A 
ATOM      6  N   UNL     1       1.765   4.593  19.702  0.00  0.00    +0.000 NA
ATOM      7  C   UNL     1       2.447   5.048  18.672  0.00  0.00    +0.000 A 
ATOM      8  N   UNL     1       3.652   4.399  18.490  0.00  0.00    +0.000 N 
ATOM      9  C   UNL     1       3.734   3.465  19.510  0.00  0.00    +0.000 A 
ATOM     10  N   UNL     1       4.750   2.632  19.808  0.00  0.00    +0.000 NA
ATOM     11  H   UNL     1       5.478   0.871  22.294  0.00  0.00    +0.000 HD
ATOM     12  H   UNL     1       6.426   1.374  20.946  0.00  0.00    +0.000 HD
ENDROOT
BRANCH   8  13
ATOM     13  C   UNL     1       4.604   4.667  17.469  0.00  0.00    +0.000 A 
ATOM     14  C   UNL     1       4.609   3.897  16.298  0.00  0.00    +0.000 A 
ATOM     15  C   UNL     1       5.526   4.178  15.281  0.00  0.00    +0.000 A 
ATOM     16  C   UNL     1       6.463   5.203  15.435  0.00  0.00    +0.000 A 
ATOM     17 CL   UNL     1       7.567   5.484  14.137  0.00  0.00    +0.000 Cl
ATOM     18  C   UNL     1       6.477   5.957  16.612  0.00  0.00    +0.000 A 
ATOM     19 CL   UNL     1       7.634   7.211  16.892  0.00  0.00    +0.000 Cl
ATOM     20  C   UNL     1       5.540   5.700  17.620  0.00  0.00    +0.000 A 
ENDBRANCH   8  13
BRANCH   4  21
ATOM     21  O   UNL     1       1.378   2.793  22.193  0.00  0.00    +0.000 OA
ATOM     22  H   UNL     1       1.324   1.850  22.428  0.00  0.00    +0.000 HD
ENDBRANCH   4  21
TORSDOF 2
ENDMDL
MODEL 8
REMARK VINA RESULT:      -7.4      1.231      1.231
REMARK  Name = 
REMARK  2 active torsions:
REMARK  status: ('A' for Active; 'I' for Inactive)
REMARK    1  A    between atoms: C_4  and  O_5
REMARK    2  A    between atoms: N_9  and  C_10
REMARK                            x       y       z     vdW  Elec       q    Type
REMARK                         _______ _______ _______ _____ _____    ______ ____
ROOT
ATOM      1  N   UNL     1       0.684   2.784  20.456  0.00  0.00    +0.000 N 
ATOM      2  C   UNL     1       1.698   3.329  19.697  0.00  0.00    +0.000 A 
ATOM      3  N   UNL     1       2.547   2.464  19.118  0.00  0.00    +0.000 NA
ATOM      4  C   UNL     1       3.514   2.967  18.336  0.00  0.00    +0.000 A 
ATOM      5  C   UNL     1       3.628   4.333  18.114  0.00  0.00    +0.000 A 
ATOM      6  N   UNL     1       4.461   5.104  17.341  0.00  0.00    +0.000 NA
ATOM      7  C   UNL     1       4.031   6.335  17.514  0.00  0.00    +0.000 A 
ATOM      8  N   UNL     1       2.962   6.418  18.386  0.00  0.00    +0.000 N 
ATOM      9  C   UNL     1       2.696   5.117  18.779  0.00  0.00    +0.000 A 
ATOM     10  N   UNL     1       1.702   4.664  19.568  0.00  0.00    +0.000 NA
ATOM     11  H   UNL     1       0.504   1.833  20.169  0.00  0.00    +0.000 HD
ATOM     12  H   UNL     1      -0.108   3.412  20.487  0.00  0.00    +0.000 HD
ENDROOT
BRANCH   8  13
ATOM     13  C   UNL     1       2.283   7.606  18.769  0.00  0.00    +0.000 A 
ATOM     14  C   UNL     1       2.004   8.593  17.814  0.00  0.00    +0.000 A 
ATOM     15  C   UNL     1       1.311   9.749  18.185  0.00  0.00    +0.000 A 
ATOM     16  C   UNL     1       0.921   9.946  19.512  0.00  0.00    +0.000 A 
ATOM     17 CL   UNL     1       0.075  11.402  19.893  0.00  0.00    +0.000 Cl
ATOM     18  C   UNL     1       1.219   8.975  20.473  0.00  0.00    +0.000 A 
ATOM     19 CL   UNL     1       0.807   9.169  22.141  0.00  0.00    +0.000 Cl
ATOM     20  C   UNL     1       1.885   7.801  20.099  0.00  0.00    +0.000 A 
ENDBRANCH   8  13
BRANCH   4  21
ATOM     21  O   UNL     1       4.340   2.038  17.770  0.00  0.00    +0.000 OA
ATOM     22  H   UNL     1       4.479   1.434  18.520  0.00  0.00    +0.000 HD
ENDBRANCH   4  21
TORSDOF 2
ENDMDL
MODEL 9
REMARK VINA RESULT:      -7.3      4.362      5.946
REMARK  Name = 
REMARK  2 active torsions:
REMARK  status: ('A' for Active; 'I' for Inactive)
REMARK    1  A    between atoms: C_4  and  O_5
REMARK    2  A    between atoms: N_9  and  C_10
REMARK                            x       y       z     vdW  Elec       q    Type
REMARK                         _______ _______ _______ _____ _____    ______ ____
ROOT
ATOM      1  N   UNL     1       2.263   7.211  20.116  0.00  0.00    +0.000 N 
ATOM      2  C   UNL     1       2.387   5.856  19.893  0.00  0.00    +0.000 A 
ATOM      3  N   UNL     1       1.587   5.053  20.614  0.00  0.00    +0.000 NA
ATOM      4  C   UNL     1       1.655   3.733  20.382  0.00  0.00    +0.000 A 
ATOM      5  C   UNL     1       2.507   3.211  19.418  0.00  0.00    +0.000 A 
ATOM      6  N   UNL     1       2.739   1.944  18.942  0.00  0.00    +0.000 NA
ATOM      7  C   UNL     1       3.629   2.106  17.987  0.00  0.00    +0.000 A 
ATOM      8  N   UNL     1       4.015   3.422  17.823  0.00  0.00    +0.000 N 
ATOM      9  C   UNL     1       3.286   4.146  18.753  0.00  0.00    +0.000 A 
ATOM     10  N   UNL     1       3.254   5.480  18.942  0.00  0.00    +0.000 NA
ATOM     11  H   UNL     1       1.354   7.422  20.502  0.00  0.00    +0.000 HD
ATOM     12  H   UNL     1       2.546   7.730  19.296  0.00  0.00    +0.000 HD
ENDROOT
BRANCH   8  13
ATOM     13  C   UNL     1       4.956   3.909  16.875  0.00  0.00    +0.000 A 
ATOM     14  C   UNL     1       6.040   4.688  17.302  0.00  0.00    +0.000 A 
ATOM     15  C   UNL     1       6.982   5.143  16.374  0.00  0.00    +0.000 A 
ATOM     16  C   UNL     1       6.833   4.856  15.014  0.00  0.00    +0.000 A 
ATOM     17 CL   UNL     1       8.033   5.460  13.930  0.00  0.00    +0.000 Cl
ATOM     18  C   UNL     1       5.739   4.100  14.582  0.00  0.00    +0.000 A 
ATOM     19 CL   UNL     1       5.466   3.742  12.913  0.00  0.00    +0.000 Cl
ATOM     20  C   UNL     1       4.811   3.615  15.512  0.00  0.00    +0.000 A 
ENDBRANCH   8  13
BRANCH   4  21
ATOM     21  O   UNL     1       0.812   2.971  21.139  0.00  0.00    +0.000 OA
ATOM     22  H   UNL     1       1.242   3.029  22.010  0.00  0.00    +0.000 HD
ENDBRANCH   4  21
TORSDOF 2
ENDMDL
