MODEL 1
REMARK VINA RESULT:      -8.8      0.000      0.000
REMARK  Name = 
REMARK  6 active torsions:
REMARK  status: ('A' for Active; 'I' for Inactive)
REMARK    1  A    between atoms: C_1  and  C_2
REMARK    2  A    between atoms: C_2  and  C_3
REMARK    3  A    between atoms: C_3  and  N_4
REMARK    4  A    between atoms: N_7  and  S_8
REMARK    5  A    between atoms: S_8  and  C_9
REMARK    6  A    between atoms: C_18  and  C_19
REMARK                            x       y       z     vdW  Elec       q    Type
REMARK                         _______ _______ _______ _____ _____    ______ ____
ROOT
ATOM      1  N   UNL     1       6.795   5.988  17.776  0.00  0.00    +0.000 N 
ATOM      2  N   UNL     1       5.770   5.685  18.625  0.00  0.00    +0.000 NA
ATOM      3  C   UNL     1       5.072   4.779  17.943  0.00  0.00    +0.000 A 
ATOM      4  N   UNL     1       3.889   4.251  18.436  0.00  0.00    +0.000 N 
ATOM      5  C   UNL     1       5.569   4.575  16.641  0.00  0.00    +0.000 A 
ATOM      6  C   UNL     1       5.173   3.849  15.523  0.00  0.00    +0.000 A 
ATOM      7  C   UNL     1       5.886   4.039  14.343  0.00  0.00    +0.000 A 
ATOM      8  C   UNL     1       5.434   3.380  13.194  0.00  0.00    +0.000 A 
ATOM      9  C   UNL     1       6.078   3.559  11.983  0.00  0.00    +0.000 A 
ATOM     10  C   UNL     1       7.194   4.383  11.930  0.00  0.00    +0.000 A 
ATOM     11  C   UNL     1       7.666   5.042  13.089  0.00  0.00    +0.000 A 
ATOM     12  C   UNL     1       8.900   5.892  12.955  0.00  0.00    +0.000 C 
ATOM     13  C   UNL     1       7.016   4.903  14.329  0.00  0.00    +0.000 A 
ATOM     14  N   UNL     1       7.441   5.576  15.436  0.00  0.00    +0.000 NA
ATOM     15  C   UNL     1       6.676   5.397  16.537  0.00  0.00    +0.000 A 
ATOM     16  H   UNL     1       3.358   4.894  19.018  0.00  0.00    +0.000 HD
ENDROOT
BRANCH   4  17
ATOM     17  S   UNL     1       3.919   2.719  19.120  0.00  0.00    +0.000 S 
ATOM     18  C   UNL     1       2.446   2.719  20.133  0.00  0.00    +0.000 C 
ATOM     19  O   UNL     1       3.689   1.784  18.029  0.00  0.00    +0.000 OA
ATOM     20  O   UNL     1       5.080   2.583  19.974  0.00  0.00    +0.000 OA
ENDBRANCH   4  17
BRANCH   1  21
ATOM     21  C   UNL     1       7.826   6.910  18.220  0.00  0.00    +0.000 C 
BRANCH  21  23
ATOM     22  C   UNL     1       8.561   9.350  18.308  0.00  0.00    +0.000 C 
ATOM     23  C   UNL     1       7.724   8.303  17.588  0.00  0.00    +0.000 C 
ENDBRANCH  21  23
ENDBRANCH   1  21
TORSDOF 3
ENDMDL
MODEL 2
REMARK VINA RESULT:      -8.3      3.973      7.211
REMARK  Name = 
REMARK  6 active torsions:
REMARK  status: ('A' for Active; 'I' for Inactive)
REMARK    1  A    between atoms: C_1  and  C_2
REMARK    2  A    between atoms: C_2  and  C_3
REMARK    3  A    between atoms: C_3  and  N_4
REMARK    4  A    between atoms: N_7  and  S_8
REMARK    5  A    between atoms: S_8  and  C_9
REMARK    6  A    between atoms: C_18  and  C_19
REMARK                            x       y       z     vdW  Elec       q    Type
REMARK                         _______ _______ _______ _____ _____    ______ ____
ROOT
ATOM      1  N   UNL     1       3.271   4.366  19.476  0.00  0.00    +0.000 N 
ATOM      2  N   UNL     1       3.946   3.815  18.424  0.00  0.00    +0.000 NA
ATOM      3  C   UNL     1       4.149   4.856  17.620  0.00  0.00    +0.000 A 
ATOM      4  N   UNL     1       4.758   4.710  16.383  0.00  0.00    +0.000 N 
ATOM      5  C   UNL     1       3.531   6.034  18.083  0.00  0.00    +0.000 A 
ATOM      6  C   UNL     1       3.350   7.324  17.598  0.00  0.00    +0.000 A 
ATOM      7  C   UNL     1       2.525   8.178  18.325  0.00  0.00    +0.000 A 
ATOM      8  C   UNL     1       2.266   9.446  17.791  0.00  0.00    +0.000 A 
ATOM      9  C   UNL     1       1.423  10.325  18.448  0.00  0.00    +0.000 A 
ATOM     10  C   UNL     1       0.858   9.939  19.655  0.00  0.00    +0.000 A 
ATOM     11  C   UNL     1       1.124   8.665  20.208  0.00  0.00    +0.000 A 
ATOM     12  C   UNL     1       0.499   8.335  21.536  0.00  0.00    +0.000 C 
ATOM     13  C   UNL     1       1.954   7.738  19.550  0.00  0.00    +0.000 A 
ATOM     14  N   UNL     1       2.172   6.492  20.059  0.00  0.00    +0.000 NA
ATOM     15  C   UNL     1       2.934   5.688  19.281  0.00  0.00    +0.000 A 
ATOM     16  H   UNL     1       4.581   3.814  15.936  0.00  0.00    +0.000 HD
ENDROOT
BRANCH   4  17
ATOM     17  S   UNL     1       6.373   5.141  16.229  0.00  0.00    +0.000 S 
ATOM     18  C   UNL     1       6.797   4.482  14.622  0.00  0.00    +0.000 C 
ATOM     19  O   UNL     1       6.397   6.591  16.118  0.00  0.00    +0.000 OA
ATOM     20  O   UNL     1       7.161   4.466  17.239  0.00  0.00    +0.000 OA
ENDBRANCH   4  17
BRANCH   1  21
ATOM     21  C   UNL     1       2.936   3.527  20.613  0.00  0.00    +0.000 C 
BRANCH  21  23
ATOM     22  C   UNL     1       0.806   2.737  19.455  0.00  0.00    +0.000 C 
ATOM     23  C   UNL     1       1.436   3.236  20.746  0.00  0.00    +0.000 C 
ENDBRANCH  21  23
ENDBRANCH   1  21
TORSDOF 3
ENDMDL
MODEL 3
REMARK VINA RESULT:      -8.1      4.382      7.420
REMARK  Name = 
REMARK  6 active torsions:
REMARK  status: ('A' for Active; 'I' for Inactive)
REMARK    1  A    between atoms: C_1  and  C_2
REMARK    2  A    between atoms: C_2  and  C_3
REMARK    3  A    between atoms: C_3  and  N_4
REMARK    4  A    between atoms: N_7  and  S_8
REMARK    5  A    between atoms: S_8  and  C_9
REMARK    6  A    between atoms: C_18  and  C_19
REMARK                            x       y       z     vdW  Elec       q    Type
REMARK                         _______ _______ _______ _____ _____    ______ ____
ROOT
ATOM      1  N   UNL     1       3.145   4.840  19.552  0.00  0.00    +0.000 N 
ATOM      2  N   UNL     1       3.854   4.335  18.500  0.00  0.00    +0.000 NA
ATOM      3  C   UNL     1       4.022   5.396  17.714  0.00  0.00    +0.000 A 
ATOM      4  N   UNL     1       4.650   5.295  16.482  0.00  0.00    +0.000 N 
ATOM      5  C   UNL     1       3.350   6.539  18.188  0.00  0.00    +0.000 A 
ATOM      6  C   UNL     1       3.121   7.828  17.720  0.00  0.00    +0.000 A 
ATOM      7  C   UNL     1       2.253   8.636  18.450  0.00  0.00    +0.000 A 
ATOM      8  C   UNL     1       1.947   9.900  17.933  0.00  0.00    +0.000 A 
ATOM      9  C   UNL     1       1.061  10.732  18.594  0.00  0.00    +0.000 A 
ATOM     10  C   UNL     1       0.500  10.305  19.788  0.00  0.00    +0.000 A 
ATOM     11  C   UNL     1       0.812   9.034  20.325  0.00  0.00    +0.000 A 
ATOM     12  C   UNL     1       0.187   8.657  21.641  0.00  0.00    +0.000 C 
ATOM     13  C   UNL     1       1.687   8.153  19.663  0.00  0.00    +0.000 A 
ATOM     14  N   UNL     1       1.952   6.909  20.154  0.00  0.00    +0.000 NA
ATOM     15  C   UNL     1       2.756   6.150  19.374  0.00  0.00    +0.000 A 
ATOM     16  H   UNL     1       4.516   4.399  16.020  0.00  0.00    +0.000 HD
ENDROOT
BRANCH   4  17
ATOM     17  S   UNL     1       6.248   5.794  16.353  0.00  0.00    +0.000 S 
ATOM     18  C   UNL     1       7.097   4.656  17.438  0.00  0.00    +0.000 C 
ATOM     19  O   UNL     1       6.661   5.481  14.993  0.00  0.00    +0.000 OA
ATOM     20  O   UNL     1       6.387   7.138  16.874  0.00  0.00    +0.000 OA
ENDBRANCH   4  17
BRANCH   1  21
ATOM     21  C   UNL     1       2.833   3.970  20.672  0.00  0.00    +0.000 C 
BRANCH  21  23
ATOM     22  C   UNL     1       0.818   2.879  19.553  0.00  0.00    +0.000 C 
ATOM     23  C   UNL     1       1.347   3.609  20.779  0.00  0.00    +0.000 C 
ENDBRANCH  21  23
ENDBRANCH   1  21
TORSDOF 3
ENDMDL
MODEL 4
REMARK VINA RESULT:      -7.9      0.843      1.003
REMARK  Name = 
REMARK  6 active torsions:
REMARK  status: ('A' for Active; 'I' for Inactive)
REMARK    1  A    between atoms: C_1  and  C_2
REMARK    2  A    between atoms: C_2  and  C_3
REMARK    3  A    between atoms: C_3  and  N_4
REMARK    4  A    between atoms: N_7  and  S_8
REMARK    5  A    between atoms: S_8  and  C_9
REMARK    6  A    between atoms: C_18  and  C_19
REMARK                            x       y       z     vdW  Elec       q    Type
REMARK                         _______ _______ _______ _____ _____    ______ ____
ROOT
ATOM      1  N   UNL     1       6.553   6.049  17.686  0.00  0.00    +0.000 N 
ATOM      2  N   UNL     1       5.443   5.831  18.451  0.00  0.00    +0.000 NA
ATOM      3  C   UNL     1       4.736   4.974  17.717  0.00  0.00    +0.000 A 
ATOM      4  N   UNL     1       3.481   4.541  18.115  0.00  0.00    +0.000 N 
ATOM      5  C   UNL     1       5.317   4.723  16.459  0.00  0.00    +0.000 A 
ATOM      6  C   UNL     1       4.958   4.019  15.316  0.00  0.00    +0.000 A 
ATOM      7  C   UNL     1       5.775   4.145  14.195  0.00  0.00    +0.000 A 
ATOM      8  C   UNL     1       5.366   3.512  13.015  0.00  0.00    +0.000 A 
ATOM      9  C   UNL     1       6.116   3.633  11.859  0.00  0.00    +0.000 A 
ATOM     10  C   UNL     1       7.291   4.369  11.893  0.00  0.00    +0.000 A 
ATOM     11  C   UNL     1       7.719   5.001  13.084  0.00  0.00    +0.000 A 
ATOM     12  C   UNL     1       9.021   5.754  13.048  0.00  0.00    +0.000 C 
ATOM     13  C   UNL     1       6.963   4.921  14.270  0.00  0.00    +0.000 A 
ATOM     14  N   UNL     1       7.350   5.569  15.405  0.00  0.00    +0.000 NA
ATOM     15  C   UNL     1       6.488   5.458  16.442  0.00  0.00    +0.000 A 
ATOM     16  H   UNL     1       2.956   5.226  18.652  0.00  0.00    +0.000 HD
ENDROOT
BRANCH   4  17
ATOM     17  S   UNL     1       3.340   3.016  18.803  0.00  0.00    +0.000 S 
ATOM     18  C   UNL     1       4.799   2.920  19.831  0.00  0.00    +0.000 C 
ATOM     19  O   UNL     1       2.191   3.079  19.693  0.00  0.00    +0.000 OA
ATOM     20  O   UNL     1       3.420   2.002  17.773  0.00  0.00    +0.000 OA
ENDBRANCH   4  17
BRANCH   1  21
ATOM     21  C   UNL     1       7.612   6.894  18.208  0.00  0.00    +0.000 C 
BRANCH  21  23
ATOM     22  C   UNL     1       8.521   9.273  18.332  0.00  0.00    +0.000 C 
ATOM     23  C   UNL     1       7.686   8.274  17.544  0.00  0.00    +0.000 C 
ENDBRANCH  21  23
ENDBRANCH   1  21
TORSDOF 3
ENDMDL
MODEL 5
REMARK VINA RESULT:      -7.8      3.787      7.099
REMARK  Name = 
REMARK  6 active torsions:
REMARK  status: ('A' for Active; 'I' for Inactive)
REMARK    1  A    between atoms: C_1  and  C_2
REMARK    2  A    between atoms: C_2  and  C_3
REMARK    3  A    between atoms: C_3  and  N_4
REMARK    4  A    between atoms: N_7  and  S_8
REMARK    5  A    between atoms: S_8  and  C_9
REMARK    6  A    between atoms: C_18  and  C_19
REMARK                            x       y       z     vdW  Elec       q    Type
REMARK                         _______ _______ _______ _____ _____    ______ ____
ROOT
ATOM      1  N   UNL     1       3.357   4.232  19.894  0.00  0.00    +0.000 N 
ATOM      2  N   UNL     1       4.202   3.639  19.000  0.00  0.00    +0.000 NA
ATOM      3  C   UNL     1       4.517   4.637  18.176  0.00  0.00    +0.000 A 
ATOM      4  N   UNL     1       5.321   4.436  17.065  0.00  0.00    +0.000 N 
ATOM      5  C   UNL     1       3.813   5.823  18.462  0.00  0.00    +0.000 A 
ATOM      6  C   UNL     1       3.692   7.078  17.876  0.00  0.00    +0.000 A 
ATOM      7  C   UNL     1       2.746   7.951  18.407  0.00  0.00    +0.000 A 
ATOM      8  C   UNL     1       2.557   9.179  17.762  0.00  0.00    +0.000 A 
ATOM      9  C   UNL     1       1.604  10.072  18.220  0.00  0.00    +0.000 A 
ATOM     10  C   UNL     1       0.857   9.742  19.342  0.00  0.00    +0.000 A 
ATOM     11  C   UNL     1       1.050   8.509  20.007  0.00  0.00    +0.000 A 
ATOM     12  C   UNL     1       0.223   8.239  21.235  0.00  0.00    +0.000 C 
ATOM     13  C   UNL     1       1.991   7.567  19.549  0.00  0.00    +0.000 A 
ATOM     14  N   UNL     1       2.144   6.359  20.161  0.00  0.00    +0.000 NA
ATOM     15  C   UNL     1       3.035   5.531  19.567  0.00  0.00    +0.000 A 
ATOM     16  H   UNL     1       5.233   3.511  16.651  0.00  0.00    +0.000 HD
ENDROOT
BRANCH   4  17
ATOM     17  S   UNL     1       6.932   4.898  17.147  0.00  0.00    +0.000 S 
ATOM     18  C   UNL     1       6.829   6.679  17.039  0.00  0.00    +0.000 C 
ATOM     19  O   UNL     1       7.378   4.574  18.494  0.00  0.00    +0.000 OA
ATOM     20  O   UNL     1       7.648   4.395  15.993  0.00  0.00    +0.000 OA
ENDBRANCH   4  17
BRANCH   1  21
ATOM     21  C   UNL     1       2.855   3.451  21.010  0.00  0.00    +0.000 C 
BRANCH  21  23
ATOM     22  C   UNL     1       0.833   2.781  19.609  0.00  0.00    +0.000 C 
ATOM     23  C   UNL     1       1.340   3.223  20.974  0.00  0.00    +0.000 C 
ENDBRANCH  21  23
ENDBRANCH   1  21
TORSDOF 3
ENDMDL
MODEL 6
REMARK VINA RESULT:      -7.6      0.906      1.155
REMARK  Name = 
REMARK  6 active torsions:
REMARK  status: ('A' for Active; 'I' for Inactive)
REMARK    1  A    between atoms: C_1  and  C_2
REMARK    2  A    between atoms: C_2  and  C_3
REMARK    3  A    between atoms: C_3  and  N_4
REMARK    4  A    between atoms: N_7  and  S_8
REMARK    5  A    between atoms: S_8  and  C_9
REMARK    6  A    between atoms: C_18  and  C_19
REMARK                            x       y       z     vdW  Elec       q    Type
REMARK                         _______ _______ _______ _____ _____    ______ ____
ROOT
ATOM      1  N   UNL     1       6.063   6.406  17.335  0.00  0.00    +0.000 N 
ATOM      2  N   UNL     1       4.936   6.141  18.059  0.00  0.00    +0.000 NA
ATOM      3  C   UNL     1       4.385   5.125  17.398  0.00  0.00    +0.000 A 
ATOM      4  N   UNL     1       3.165   4.588  17.776  0.00  0.00    +0.000 N 
ATOM      5  C   UNL     1       5.078   4.805  16.214  0.00  0.00    +0.000 A 
ATOM      6  C   UNL     1       4.883   3.936  15.146  0.00  0.00    +0.000 A 
ATOM      7  C   UNL     1       5.755   4.033  14.066  0.00  0.00    +0.000 A 
ATOM      8  C   UNL     1       5.506   3.223  12.951  0.00  0.00    +0.000 A 
ATOM      9  C   UNL     1       6.315   3.303  11.832  0.00  0.00    +0.000 A 
ATOM     10  C   UNL     1       7.391   4.179  11.840  0.00  0.00    +0.000 A 
ATOM     11  C   UNL     1       7.659   4.991  12.967  0.00  0.00    +0.000 A 
ATOM     12  C   UNL     1       8.863   5.891  12.911  0.00  0.00    +0.000 C 
ATOM     13  C   UNL     1       6.837   4.955  14.110  0.00  0.00    +0.000 A 
ATOM     14  N   UNL     1       7.066   5.771  15.177  0.00  0.00    +0.000 NA
ATOM     15  C   UNL     1       6.153   5.674  16.171  0.00  0.00    +0.000 A 
ATOM     16  H   UNL     1       2.528   5.259  18.195  0.00  0.00    +0.000 HD
ENDROOT
BRANCH   4  17
ATOM     17  S   UNL     1       3.156   3.146  18.636  0.00  0.00    +0.000 S 
ATOM     18  C   UNL     1       1.746   3.349  19.716  0.00  0.00    +0.000 C 
ATOM     19  O   UNL     1       2.817   2.105  17.678  0.00  0.00    +0.000 OA
ATOM     20  O   UNL     1       4.356   3.045  19.440  0.00  0.00    +0.000 OA
ENDBRANCH   4  17
BRANCH   1  21
ATOM     21  C   UNL     1       6.977   7.430  17.808  0.00  0.00    +0.000 C 
BRANCH  21  23
ATOM     22  C   UNL     1       7.866   5.745  19.502  0.00  0.00    +0.000 C 
ATOM     23  C   UNL     1       8.204   6.874  18.540  0.00  0.00    +0.000 C 
ENDBRANCH  21  23
ENDBRANCH   1  21
TORSDOF 3
ENDMDL
MODEL 7
REMARK VINA RESULT:      -7.5      2.692      5.738
REMARK  Name = 
REMARK  6 active torsions:
REMARK  status: ('A' for Active; 'I' for Inactive)
REMARK    1  A    between atoms: C_1  and  C_2
REMARK    2  A    between atoms: C_2  and  C_3
REMARK    3  A    between atoms: C_3  and  N_4
REMARK    4  A    between atoms: N_7  and  S_8
REMARK    5  A    between atoms: S_8  and  C_9
REMARK    6  A    between atoms: C_18  and  C_19
REMARK                            x       y       z     vdW  Elec       q    Type
REMARK                         _______ _______ _______ _____ _____    ______ ____
ROOT
ATOM      1  N   UNL     1       6.716   5.052  18.279  0.00  0.00    +0.000 N 
ATOM      2  N   UNL     1       7.381   4.679  17.147  0.00  0.00    +0.000 NA
ATOM      3  C   UNL     1       6.433   4.090  16.421  0.00  0.00    +0.000 A 
ATOM      4  N   UNL     1       6.714   3.501  15.199  0.00  0.00    +0.000 N 
ATOM      5  C   UNL     1       5.206   3.986  17.106  0.00  0.00    +0.000 A 
ATOM      6  C   UNL     1       3.973   3.395  16.861  0.00  0.00    +0.000 A 
ATOM      7  C   UNL     1       3.038   3.396  17.893  0.00  0.00    +0.000 A 
ATOM      8  C   UNL     1       1.831   2.720  17.681  0.00  0.00    +0.000 A 
ATOM      9  C   UNL     1       0.879   2.654  18.684  0.00  0.00    +0.000 A 
ATOM     10  C   UNL     1       1.130   3.288  19.892  0.00  0.00    +0.000 A 
ATOM     11  C   UNL     1       2.341   3.984  20.111  0.00  0.00    +0.000 A 
ATOM     12  C   UNL     1       2.524   4.672  21.436  0.00  0.00    +0.000 C 
ATOM     13  C   UNL     1       3.341   4.045  19.122  0.00  0.00    +0.000 A 
ATOM     14  N   UNL     1       4.529   4.675  19.348  0.00  0.00    +0.000 NA
ATOM     15  C   UNL     1       5.418   4.591  18.331  0.00  0.00    +0.000 A 
ATOM     16  H   UNL     1       7.650   3.110  15.132  0.00  0.00    +0.000 HD
ENDROOT
BRANCH   4  17
ATOM     17  S   UNL     1       6.319   4.335  13.796  0.00  0.00    +0.000 S 
ATOM     18  C   UNL     1       6.334   3.043  12.561  0.00  0.00    +0.000 C 
ATOM     19  O   UNL     1       4.937   4.761  13.955  0.00  0.00    +0.000 OA
ATOM     20  O   UNL     1       7.357   5.296  13.487  0.00  0.00    +0.000 OA
ENDBRANCH   4  17
BRANCH   1  21
ATOM     21  C   UNL     1       7.427   5.806  19.296  0.00  0.00    +0.000 C 
BRANCH  21  23
ATOM     22  C   UNL     1       7.522   7.802  17.712  0.00  0.00    +0.000 C 
ATOM     23  C   UNL     1       8.268   6.959  18.736  0.00  0.00    +0.000 C 
ENDBRANCH  21  23
ENDBRANCH   1  21
TORSDOF 3
ENDMDL
MODEL 8
REMARK VINA RESULT:      -7.4      2.824      5.650
REMARK  Name = 
REMARK  6 active torsions:
REMARK  status: ('A' for Active; 'I' for Inactive)
REMARK    1  A    between atoms: C_1  and  C_2
REMARK    2  A    between atoms: C_2  and  C_3
REMARK    3  A    between atoms: C_3  and  N_4
REMARK    4  A    between atoms: N_7  and  S_8
REMARK    5  A    between atoms: S_8  and  C_9
REMARK    6  A    between atoms: C_18  and  C_19
REMARK                            x       y       z     vdW  Elec       q    Type
REMARK                         _______ _______ _______ _____ _____    ______ ____
ROOT
ATOM      1  N   UNL     1       6.310   6.172  16.687  0.00  0.00    +0.000 N 
ATOM      2  N   UNL     1       7.056   5.545  15.731  0.00  0.00    +0.000 NA
ATOM      3  C   UNL     1       6.298   4.504  15.392  0.00  0.00    +0.000 A 
ATOM      4  N   UNL     1       6.731   3.557  14.477  0.00  0.00    +0.000 N 
ATOM      5  C   UNL     1       5.136   4.395  16.180  0.00  0.00    +0.000 A 
ATOM      6  C   UNL     1       4.100   3.478  16.310  0.00  0.00    +0.000 A 
ATOM      7  C   UNL     1       3.190   3.672  17.346  0.00  0.00    +0.000 A 
ATOM      8  C   UNL     1       2.200   2.701  17.536  0.00  0.00    +0.000 A 
ATOM      9  C   UNL     1       1.292   2.819  18.573  0.00  0.00    +0.000 A 
ATOM     10  C   UNL     1       1.361   3.927  19.405  0.00  0.00    +0.000 A 
ATOM     11  C   UNL     1       2.349   4.920  19.213  0.00  0.00    +0.000 A 
ATOM     12  C   UNL     1       2.338   6.107  20.137  0.00  0.00    +0.000 C 
ATOM     13  C   UNL     1       3.306   4.814  18.185  0.00  0.00    +0.000 A 
ATOM     14  N   UNL     1       4.288   5.746  18.028  0.00  0.00    +0.000 NA
ATOM     15  C   UNL     1       5.176   5.475  17.044  0.00  0.00    +0.000 A 
ATOM     16  H   UNL     1       7.737   3.410  14.477  0.00  0.00    +0.000 HD
ENDROOT
BRANCH   4  17
ATOM     17  S   UNL     1       6.143   3.632  12.906  0.00  0.00    +0.000 S 
ATOM     18  C   UNL     1       7.274   4.773  12.124  0.00  0.00    +0.000 C 
ATOM     19  O   UNL     1       6.383   2.321  12.322  0.00  0.00    +0.000 OA
ATOM     20  O   UNL     1       4.815   4.208  12.905  0.00  0.00    +0.000 OA
ENDBRANCH   4  17
BRANCH   1  21
ATOM     21  C   UNL     1       6.794   7.419  17.251  0.00  0.00    +0.000 C 
BRANCH  21  23
ATOM     22  C   UNL     1       7.887   6.028  19.087  0.00  0.00    +0.000 C 
ATOM     23  C   UNL     1       7.998   7.248  18.186  0.00  0.00    +0.000 C 
ENDBRANCH  21  23
ENDBRANCH   1  21
TORSDOF 3
ENDMDL
MODEL 9
REMARK VINA RESULT:      -7.4      3.449      6.079
REMARK  Name = 
REMARK  6 active torsions:
REMARK  status: ('A' for Active; 'I' for Inactive)
REMARK    1  A    between atoms: C_1  and  C_2
REMARK    2  A    between atoms: C_2  and  C_3
REMARK    3  A    between atoms: C_3  and  N_4
REMARK    4  A    between atoms: N_7  and  S_8
REMARK    5  A    between atoms: S_8  and  C_9
REMARK    6  A    between atoms: C_18  and  C_19
REMARK                            x       y       z     vdW  Elec       q    Type
REMARK                         _______ _______ _______ _____ _____    ______ ____
ROOT
ATOM      1  N   UNL     1       4.807   5.815  17.167  0.00  0.00    +0.000 N 
ATOM      2  N   UNL     1       5.448   4.749  17.732  0.00  0.00    +0.000 NA
ATOM      3  C   UNL     1       4.787   4.572  18.874  0.00  0.00    +0.000 A 
ATOM      4  N   UNL     1       5.172   3.609  19.793  0.00  0.00    +0.000 N 
ATOM      5  C   UNL     1       3.810   5.561  19.099  0.00  0.00    +0.000 A 
ATOM      6  C   UNL     1       2.946   5.893  20.136  0.00  0.00    +0.000 A 
ATOM      7  C   UNL     1       2.218   7.074  20.018  0.00  0.00    +0.000 A 
ATOM      8  C   UNL     1       1.418   7.458  21.100  0.00  0.00    +0.000 A 
ATOM      9  C   UNL     1       0.701   8.641  21.057  0.00  0.00    +0.000 A 
ATOM     10  C   UNL     1       0.769   9.428  19.917  0.00  0.00    +0.000 A 
ATOM     11  C   UNL     1       1.565   9.041  18.813  0.00  0.00    +0.000 A 
ATOM     12  C   UNL     1       1.561   9.933  17.601  0.00  0.00    +0.000 C 
ATOM     13  C   UNL     1       2.328   7.859  18.837  0.00  0.00    +0.000 A 
ATOM     14  N   UNL     1       3.133   7.509  17.794  0.00  0.00    +0.000 NA
ATOM     15  C   UNL     1       3.858   6.384  17.989  0.00  0.00    +0.000 A 
ATOM     16  H   UNL     1       6.173   3.428  19.811  0.00  0.00    +0.000 HD
ENDROOT
BRANCH   4  17
ATOM     17  S   UNL     1       4.309   2.171  19.859  0.00  0.00    +0.000 S 
ATOM     18  C   UNL     1       3.036   2.539  21.059  0.00  0.00    +0.000 C 
ATOM     19  O   UNL     1       3.654   2.033  18.567  0.00  0.00    +0.000 OA
ATOM     20  O   UNL     1       5.152   1.114  20.374  0.00  0.00    +0.000 OA
ENDBRANCH   4  17
BRANCH   1  21
ATOM     21  C   UNL     1       5.213   6.260  15.846  0.00  0.00    +0.000 C 
BRANCH  21  23
ATOM     22  C   UNL     1       6.995   4.913  14.617  0.00  0.00    +0.000 C 
ATOM     23  C   UNL     1       5.508   5.114  14.871  0.00  0.00    +0.000 C 
ENDBRANCH  21  23
ENDBRANCH   1  21
TORSDOF 3
ENDMDL
