MODEL 1
REMARK VINA RESULT:      -4.4      0.000      0.000
REMARK  Name = 
REMARK  8 active torsions:
REMARK  status: ('A' for Active; 'I' for Inactive)
REMARK    1  A    between atoms: C_1  and  S_2
REMARK    2  A    between atoms: S_2  and  C_3
REMARK    3  A    between atoms: C_3  and  C_4
REMARK    4  A    between atoms: C_4  and  C_5
REMARK    5  A    between atoms: C_4  and  CA_6
REMARK    6  A    between atoms: CA_6  and  N_7
REMARK    7  A    between atoms: CA_6  and  C_8
REMARK    8  A    between atoms: C_8  and  OXT_10
REMARK                            x       y       z     vdW  Elec       q    Type
REMARK                         _______ _______ _______ _____ _____    ______ ____
ROOT
ATOM      1  CA  UNL     1       5.074   4.215  18.894  0.00  0.00    +0.000 C 
ENDROOT
BRANCH   1   2
ATOM      2  N   UNL     1       5.033   2.824  19.430  0.00  0.00    +0.000 NA
ATOM      3  H1  UNL     1       5.936   2.605  19.862  0.00  0.00    +0.000 HD
ATOM      4  H2  UNL     1       4.965   2.176  18.640  0.00  0.00    +0.000 HD
ENDBRANCH   1   2
BRANCH   1   5
ATOM      5  C   UNL     1       4.485   4.388  17.470  0.00  0.00    +0.000 C 
ATOM      6  C   UNL     1       4.235   5.872  17.166  0.00  0.00    +0.000 C 
BRANCH   5   7
ATOM      7  C   UNL     1       3.225   3.529  17.234  0.00  0.00    +0.000 C 
BRANCH   7   9
ATOM      8  C   UNL     1       1.067   2.570  18.713  0.00  0.00    +0.000 C 
ATOM      9  S   UNL     1       1.707   4.135  18.062  0.00  0.00    +0.000 S 
ENDBRANCH   7   9
ENDBRANCH   5   7
ENDBRANCH   1   5
BRANCH   1  10
ATOM     10  C   UNL     1       6.527   4.720  19.006  0.00  0.00    +0.000 C 
ATOM     11  O   UNL     1       6.965   5.449  19.882  0.00  0.00    +0.000 OA
BRANCH  10  12
ATOM     12  OXT UNL     1       7.288   4.224  17.992  0.00  0.00    +0.000 OA
ATOM     13  HXT UNL     1       6.661   4.033  17.247  0.00  0.00    +0.000 HD
ENDBRANCH  10  12
ENDBRANCH   1  10
TORSDOF 6
ENDMDL
MODEL 2
REMARK VINA RESULT:      -4.4      2.389      2.643
REMARK  Name = 
REMARK  8 active torsions:
REMARK  status: ('A' for Active; 'I' for Inactive)
REMARK    1  A    between atoms: C_1  and  S_2
REMARK    2  A    between atoms: S_2  and  C_3
REMARK    3  A    between atoms: C_3  and  C_4
REMARK    4  A    between atoms: C_4  and  C_5
REMARK    5  A    between atoms: C_4  and  CA_6
REMARK    6  A    between atoms: CA_6  and  N_7
REMARK    7  A    between atoms: CA_6  and  C_8
REMARK    8  A    between atoms: C_8  and  OXT_10
REMARK                            x       y       z     vdW  Elec       q    Type
REMARK                         _______ _______ _______ _____ _____    ______ ____
ROOT
ATOM      1  CA  UNL     1       7.056   5.907  16.810  0.00  0.00    +0.000 C 
ENDROOT
BRANCH   1   2
ATOM      2  N   UNL     1       7.472   7.312  17.090  0.00  0.00    +0.000 NA
ATOM      3  H1  UNL     1       7.091   7.925  16.363  0.00  0.00    +0.000 HD
ATOM      4  H2  UNL     1       8.487   7.377  16.972  0.00  0.00    +0.000 HD
ENDBRANCH   1   2
BRANCH   1   5
ATOM      5  C   UNL     1       5.571   5.733  16.394  0.00  0.00    +0.000 C 
ATOM      6  C   UNL     1       4.674   6.700  17.182  0.00  0.00    +0.000 C 
BRANCH   5   7
ATOM      7  C   UNL     1       5.085   4.273  16.506  0.00  0.00    +0.000 C 
BRANCH   7   9
ATOM      8  C   UNL     1       4.213   3.178  18.915  0.00  0.00    +0.000 C 
ATOM      9  S   UNL     1       3.544   4.039  17.469  0.00  0.00    +0.000 S 
ENDBRANCH   7   9
ENDBRANCH   5   7
ENDBRANCH   1   5
BRANCH   1  10
ATOM     10  C   UNL     1       7.439   5.049  18.031  0.00  0.00    +0.000 C 
ATOM     11  O   UNL     1       7.057   5.224  19.178  0.00  0.00    +0.000 OA
BRANCH  10  12
ATOM     12  OXT UNL     1       8.264   4.029  17.663  0.00  0.00    +0.000 OA
ATOM     13  HXT UNL     1       8.088   3.870  16.700  0.00  0.00    +0.000 HD
ENDBRANCH  10  12
ENDBRANCH   1  10
TORSDOF 6
ENDMDL
MODEL 3
REMARK VINA RESULT:      -4.4      1.544      1.837
REMARK  Name = 
REMARK  8 active torsions:
REMARK  status: ('A' for Active; 'I' for Inactive)
REMARK    1  A    between atoms: C_1  and  S_2
REMARK    2  A    between atoms: S_2  and  C_3
REMARK    3  A    between atoms: C_3  and  C_4
REMARK    4  A    between atoms: C_4  and  C_5
REMARK    5  A    between atoms: C_4  and  CA_6
REMARK    6  A    between atoms: CA_6  and  N_7
REMARK    7  A    between atoms: CA_6  and  C_8
REMARK    8  A    between atoms: C_8  and  OXT_10
REMARK                            x       y       z     vdW  Elec       q    Type
REMARK                         _______ _______ _______ _____ _____    ______ ____
ROOT
ATOM      1  CA  UNL     1       6.056   5.141  17.859  0.00  0.00    +0.000 C 
ENDROOT
BRANCH   1   2
ATOM      2  N   UNL     1       6.034   3.952  18.759  0.00  0.00    +0.000 NA
ATOM      3  H1  UNL     1       5.459   3.219  18.332  0.00  0.00    +0.000 HD
ATOM      4  H2  UNL     1       5.530   4.204  19.614  0.00  0.00    +0.000 HD
ENDBRANCH   1   2
BRANCH   1   5
ATOM      5  C   UNL     1       4.773   5.346  17.012  0.00  0.00    +0.000 C 
ATOM      6  C   UNL     1       4.042   6.627  17.442  0.00  0.00    +0.000 C 
BRANCH   5   7
ATOM      7  C   UNL     1       3.841   4.117  17.028  0.00  0.00    +0.000 C 
BRANCH   7   9
ATOM      8  C   UNL     1       2.482   3.754  19.434  0.00  0.00    +0.000 C 
ATOM      9  S   UNL     1       2.190   4.404  17.768  0.00  0.00    +0.000 S 
ENDBRANCH   7   9
ENDBRANCH   5   7
ENDBRANCH   1   5
BRANCH   1  10
ATOM     10  C   UNL     1       7.333   5.058  16.999  0.00  0.00    +0.000 C 
ATOM     11  O   UNL     1       7.592   5.759  16.033  0.00  0.00    +0.000 OA
BRANCH  10  12
ATOM     12  OXT UNL     1       8.171   4.095  17.473  0.00  0.00    +0.000 OA
ATOM     13  HXT UNL     1       7.829   3.236  17.115  0.00  0.00    +0.000 HD
ENDBRANCH  10  12
ENDBRANCH   1  10
TORSDOF 6
ENDMDL
MODEL 4
REMARK VINA RESULT:      -4.4      2.037      2.272
REMARK  Name = 
REMARK  8 active torsions:
REMARK  status: ('A' for Active; 'I' for Inactive)
REMARK    1  A    between atoms: C_1  and  S_2
REMARK    2  A    between atoms: S_2  and  C_3
REMARK    3  A    between atoms: C_3  and  C_4
REMARK    4  A    between atoms: C_4  and  C_5
REMARK    5  A    between atoms: C_4  and  CA_6
REMARK    6  A    between atoms: CA_6  and  N_7
REMARK    7  A    between atoms: CA_6  and  C_8
REMARK    8  A    between atoms: C_8  and  OXT_10
REMARK                            x       y       z     vdW  Elec       q    Type
REMARK                         _______ _______ _______ _____ _____    ______ ____
ROOT
ATOM      1  CA  UNL     1       6.166   5.238  18.299  0.00  0.00    +0.000 C 
ENDROOT
BRANCH   1   2
ATOM      2  N   UNL     1       6.805   5.219  19.646  0.00  0.00    +0.000 NA
ATOM      3  H1  UNL     1       6.278   4.588  20.258  0.00  0.00    +0.000 HD
ATOM      4  H2  UNL     1       6.687   6.143  20.072  0.00  0.00    +0.000 HD
ENDBRANCH   1   2
BRANCH   1   5
ATOM      5  C   UNL     1       5.123   4.117  18.051  0.00  0.00    +0.000 C 
ATOM      6  C   UNL     1       4.596   4.181  16.610  0.00  0.00    +0.000 C 
BRANCH   5   7
ATOM      7  C   UNL     1       3.978   4.125  19.085  0.00  0.00    +0.000 C 
BRANCH   7   9
ATOM      8  C   UNL     1       1.978   2.610  20.298  0.00  0.00    +0.000 C 
ATOM      9  S   UNL     1       3.768   2.565  20.022  0.00  0.00    +0.000 S 
ENDBRANCH   7   9
ENDBRANCH   5   7
ENDBRANCH   1   5
BRANCH   1  10
ATOM     10  C   UNL     1       7.291   5.253  17.244  0.00  0.00    +0.000 C 
ATOM     11  O   UNL     1       7.481   6.128  16.413  0.00  0.00    +0.000 OA
BRANCH  10  12
ATOM     12  OXT UNL     1       8.080   4.150  17.367  0.00  0.00    +0.000 OA
ATOM     13  HXT UNL     1       9.012   4.486  17.414  0.00  0.00    +0.000 HD
ENDBRANCH  10  12
ENDBRANCH   1  10
TORSDOF 6
ENDMDL
MODEL 5
REMARK VINA RESULT:      -4.3      2.548      2.925
REMARK  Name = 
REMARK  8 active torsions:
REMARK  status: ('A' for Active; 'I' for Inactive)
REMARK    1  A    between atoms: C_1  and  S_2
REMARK    2  A    between atoms: S_2  and  C_3
REMARK    3  A    between atoms: C_3  and  C_4
REMARK    4  A    between atoms: C_4  and  C_5
REMARK    5  A    between atoms: C_4  and  CA_6
REMARK    6  A    between atoms: CA_6  and  N_7
REMARK    7  A    between atoms: CA_6  and  C_8
REMARK    8  A    between atoms: C_8  and  OXT_10
REMARK                            x       y       z     vdW  Elec       q    Type
REMARK                         _______ _______ _______ _____ _____    ______ ____
ROOT
ATOM      1  CA  UNL     1       7.358   5.432  17.508  0.00  0.00    +0.000 C 
ENDROOT
BRANCH   1   2
ATOM      2  N   UNL     1       7.459   6.642  16.643  0.00  0.00    +0.000 NA
ATOM      3  H1  UNL     1       8.165   7.274  17.032  0.00  0.00    +0.000 HD
ATOM      4  H2  UNL     1       6.581   7.165  16.716  0.00  0.00    +0.000 HD
ENDBRANCH   1   2
BRANCH   1   5
ATOM      5  C   UNL     1       6.009   4.671  17.419  0.00  0.00    +0.000 C 
ATOM      6  C   UNL     1       5.857   4.003  16.045  0.00  0.00    +0.000 C 
BRANCH   5   7
ATOM      7  C   UNL     1       4.796   5.559  17.767  0.00  0.00    +0.000 C 
BRANCH   7   9
ATOM      8  C   UNL     1       4.319   3.342  19.385  0.00  0.00    +0.000 C 
ATOM      9  S   UNL     1       3.919   5.107  19.310  0.00  0.00    +0.000 S 
ENDBRANCH   7   9
ENDBRANCH   5   7
ENDBRANCH   1   5
BRANCH   1  10
ATOM     10  C   UNL     1       7.714   5.851  18.949  0.00  0.00    +0.000 C 
ATOM     11  O   UNL     1       7.454   5.221  19.962  0.00  0.00    +0.000 OA
BRANCH  10  12
ATOM     12  OXT UNL     1       8.391   7.033  18.952  0.00  0.00    +0.000 OA
ATOM     13  HXT UNL     1       7.736   7.722  19.235  0.00  0.00    +0.000 HD
ENDBRANCH  10  12
ENDBRANCH   1  10
TORSDOF 6
ENDMDL
MODEL 6
REMARK VINA RESULT:      -4.3      2.560      2.985
REMARK  Name = 
REMARK  8 active torsions:
REMARK  status: ('A' for Active; 'I' for Inactive)
REMARK    1  A    between atoms: C_1  and  S_2
REMARK    2  A    between atoms: S_2  and  C_3
REMARK    3  A    between atoms: C_3  and  C_4
REMARK    4  A    between atoms: C_4  and  C_5
REMARK    5  A    between atoms: C_4  and  CA_6
REMARK    6  A    between atoms: CA_6  and  N_7
REMARK    7  A    between atoms: CA_6  and  C_8
REMARK    8  A    between atoms: C_8  and  OXT_10
REMARK                            x       y       z     vdW  Elec       q    Type
REMARK                         _______ _______ _______ _____ _____    ______ ____
ROOT
ATOM      1  CA  UNL     1       6.704   5.013  17.136  0.00  0.00    +0.000 C 
ENDROOT
BRANCH   1   2
ATOM      2  N   UNL     1       7.685   4.286  17.992  0.00  0.00    +0.000 NA
ATOM      3  H1  UNL     1       8.612   4.336  17.557  0.00  0.00    +0.000 HD
ATOM      4  H2  UNL     1       7.451   3.290  17.977  0.00  0.00    +0.000 HD
ENDBRANCH   1   2
BRANCH   1   5
ATOM      5  C   UNL     1       5.225   4.894  17.587  0.00  0.00    +0.000 C 
ATOM      6  C   UNL     1       4.432   6.142  17.169  0.00  0.00    +0.000 C 
BRANCH   5   7
ATOM      7  C   UNL     1       5.080   4.596  19.094  0.00  0.00    +0.000 C 
BRANCH   7   9
ATOM      8  C   UNL     1       3.600   2.571  17.880  0.00  0.00    +0.000 C 
ATOM      9  S   UNL     1       4.305   2.986  19.496  0.00  0.00    +0.000 S 
ENDBRANCH   7   9
ENDBRANCH   5   7
ENDBRANCH   1   5
BRANCH   1  10
ATOM     10  C   UNL     1       6.923   4.558  15.679  0.00  0.00    +0.000 C 
ATOM     11  O   UNL     1       7.532   5.177  14.820  0.00  0.00    +0.000 OA
BRANCH  10  12
ATOM     12  OXT UNL     1       6.358   3.338  15.465  0.00  0.00    +0.000 OA
ATOM     13  HXT UNL     1       5.487   3.514  15.025  0.00  0.00    +0.000 HD
ENDBRANCH  10  12
ENDBRANCH   1  10
TORSDOF 6
ENDMDL
MODEL 7
REMARK VINA RESULT:      -4.3      1.997      2.438
REMARK  Name = 
REMARK  8 active torsions:
REMARK  status: ('A' for Active; 'I' for Inactive)
REMARK    1  A    between atoms: C_1  and  S_2
REMARK    2  A    between atoms: S_2  and  C_3
REMARK    3  A    between atoms: C_3  and  C_4
REMARK    4  A    between atoms: C_4  and  C_5
REMARK    5  A    between atoms: C_4  and  CA_6
REMARK    6  A    between atoms: CA_6  and  N_7
REMARK    7  A    between atoms: CA_6  and  C_8
REMARK    8  A    between atoms: C_8  and  OXT_10
REMARK                            x       y       z     vdW  Elec       q    Type
REMARK                         _______ _______ _______ _____ _____    ______ ____
ROOT
ATOM      1  CA  UNL     1       6.536   5.607  18.254  0.00  0.00    +0.000 C 
ENDROOT
BRANCH   1   2
ATOM      2  N   UNL     1       7.065   5.291  19.612  0.00  0.00    +0.000 NA
ATOM      3  H1  UNL     1       8.003   5.693  19.708  0.00  0.00    +0.000 HD
ATOM      4  H2  UNL     1       7.214   4.280  19.673  0.00  0.00    +0.000 HD
ENDBRANCH   1   2
BRANCH   1   5
ATOM      5  C   UNL     1       5.029   5.304  18.049  0.00  0.00    +0.000 C 
ATOM      6  C   UNL     1       4.307   6.528  17.465  0.00  0.00    +0.000 C 
BRANCH   5   7
ATOM      7  C   UNL     1       4.342   4.787  19.331  0.00  0.00    +0.000 C 
BRANCH   7   9
ATOM      8  C   UNL     1       3.317   2.651  17.864  0.00  0.00    +0.000 C 
ATOM      9  S   UNL     1       4.161   2.967  19.435  0.00  0.00    +0.000 S 
ENDBRANCH   7   9
ENDBRANCH   5   7
ENDBRANCH   1   5
BRANCH   1  10
ATOM     10  C   UNL     1       7.434   4.896  17.221  0.00  0.00    +0.000 C 
ATOM     11  O   UNL     1       7.417   5.076  16.013  0.00  0.00    +0.000 OA
BRANCH  10  12
ATOM     12  OXT UNL     1       8.287   4.033  17.839  0.00  0.00    +0.000 OA
ATOM     13  HXT UNL     1       8.442   4.404  18.745  0.00  0.00    +0.000 HD
ENDBRANCH  10  12
ENDBRANCH   1  10
TORSDOF 6
ENDMDL
MODEL 8
REMARK VINA RESULT:      -4.3      1.663      2.097
REMARK  Name = 
REMARK  8 active torsions:
REMARK  status: ('A' for Active; 'I' for Inactive)
REMARK    1  A    between atoms: C_1  and  S_2
REMARK    2  A    between atoms: S_2  and  C_3
REMARK    3  A    between atoms: C_3  and  C_4
REMARK    4  A    between atoms: C_4  and  C_5
REMARK    5  A    between atoms: C_4  and  CA_6
REMARK    6  A    between atoms: CA_6  and  N_7
REMARK    7  A    between atoms: CA_6  and  C_8
REMARK    8  A    between atoms: C_8  and  OXT_10
REMARK                            x       y       z     vdW  Elec       q    Type
REMARK                         _______ _______ _______ _____ _____    ______ ____
ROOT
ATOM      1  CA  UNL     1       4.484   3.946  18.711  0.00  0.00    +0.000 C 
ENDROOT
BRANCH   1   2
ATOM      2  N   UNL     1       5.007   2.825  19.543  0.00  0.00    +0.000 NA
ATOM      3  H1  UNL     1       5.989   2.657  19.300  0.00  0.00    +0.000 HD
ATOM      4  H2  UNL     1       4.526   1.964  19.265  0.00  0.00    +0.000 HD
ENDBRANCH   1   2
BRANCH   1   5
ATOM      5  C   UNL     1       3.089   3.698  18.078  0.00  0.00    +0.000 C 
ATOM      6  C   UNL     1       2.273   4.998  18.046  0.00  0.00    +0.000 C 
BRANCH   5   7
ATOM      7  C   UNL     1       2.318   2.548  18.760  0.00  0.00    +0.000 C 
BRANCH   7   9
ATOM      8  C   UNL     1       1.880   2.873  21.492  0.00  0.00    +0.000 C 
ATOM      9  S   UNL     1       1.003   3.076  19.920  0.00  0.00    +0.000 S 
ENDBRANCH   7   9
ENDBRANCH   5   7
ENDBRANCH   1   5
BRANCH   1  10
ATOM     10  C   UNL     1       5.560   4.299  17.665  0.00  0.00    +0.000 C 
ATOM     11  O   UNL     1       5.351   4.683  16.525  0.00  0.00    +0.000 OA
BRANCH  10  12
ATOM     12  OXT UNL     1       6.808   4.149  18.189  0.00  0.00    +0.000 OA
ATOM     13  HXT UNL     1       7.189   5.061  18.254  0.00  0.00    +0.000 HD
ENDBRANCH  10  12
ENDBRANCH   1  10
TORSDOF 6
ENDMDL
MODEL 9
REMARK VINA RESULT:      -4.2      2.567      2.962
REMARK  Name = 
REMARK  8 active torsions:
REMARK  status: ('A' for Active; 'I' for Inactive)
REMARK    1  A    between atoms: C_1  and  S_2
REMARK    2  A    between atoms: S_2  and  C_3
REMARK    3  A    between atoms: C_3  and  C_4
REMARK    4  A    between atoms: C_4  and  C_5
REMARK    5  A    between atoms: C_4  and  CA_6
REMARK    6  A    between atoms: CA_6  and  N_7
REMARK    7  A    between atoms: CA_6  and  C_8
REMARK    8  A    between atoms: C_8  and  OXT_10
REMARK                            x       y       z     vdW  Elec       q    Type
REMARK                         _______ _______ _______ _____ _____    ______ ____
ROOT
ATOM      1  CA  UNL     1       6.462   4.825  17.122  0.00  0.00    +0.000 C 
ENDROOT
BRANCH   1   2
ATOM      2  N   UNL     1       7.610   4.272  17.897  0.00  0.00    +0.000 NA
ATOM      3  H1  UNL     1       8.467   4.763  17.623  0.00  0.00    +0.000 HD
ATOM      4  H2  UNL     1       7.765   3.305  17.598  0.00  0.00    +0.000 HD
ENDBRANCH   1   2
BRANCH   1   5
ATOM      5  C   UNL     1       5.062   4.363  17.603  0.00  0.00    +0.000 C 
ATOM      6  C   UNL     1       4.008   5.442  17.310  0.00  0.00    +0.000 C 
BRANCH   5   7
ATOM      7  C   UNL     1       5.049   3.932  19.085  0.00  0.00    +0.000 C 
BRANCH   7   9
ATOM      8  C   UNL     1       3.501   1.837  18.094  0.00  0.00    +0.000 C 
ATOM      9  S   UNL     1       3.637   2.874  19.574  0.00  0.00    +0.000 S 
ENDBRANCH   7   9
ENDBRANCH   5   7
ENDBRANCH   1   5
BRANCH   1  10
ATOM     10  C   UNL     1       6.711   4.523  15.630  0.00  0.00    +0.000 C 
ATOM     11  O   UNL     1       6.190   3.626  14.985  0.00  0.00    +0.000 OA
BRANCH  10  12
ATOM     12  OXT UNL     1       7.592   5.415  15.099  0.00  0.00    +0.000 OA
ATOM     13  HXT UNL     1       7.201   6.312  15.259  0.00  0.00    +0.000 HD
ENDBRANCH  10  12
ENDBRANCH   1  10
TORSDOF 6
ENDMDL
