MODEL 1
REMARK VINA RESULT:      -7.3      0.000      0.000
REMARK  Name = 
REMARK  5 active torsions:
REMARK  status: ('A' for Active; 'I' for Inactive)
REMARK    1  A    between atoms: C_1  and  O_2
REMARK    2  A    between atoms: O_2  and  C_3
REMARK    3  A    between atoms: C_8  and  C_9
REMARK    4  A    between atoms: C_12  and  S_13
REMARK    5  A    between atoms: N_14  and  C_15
REMARK                            x       y       z     vdW  Elec       q    Type
REMARK                         _______ _______ _______ _____ _____    ______ ____
ROOT
ATOM      1  C   UNL     1       4.655   4.091  19.104  0.00  0.00    +0.000 A 
ATOM      2  N   UNL     1       4.811   2.818  19.435  0.00  0.00    +0.000 NA
ATOM      3  N   UNL     1       3.715   2.396  20.133  0.00  0.00    +0.000 NA
ATOM      4  C   UNL     1       2.879   3.400  20.211  0.00  0.00    +0.000 A 
ATOM      5  N   UNL     1       3.377   4.508  19.541  0.00  0.00    +0.000 N 
ENDROOT
BRANCH   1  11
ATOM      6  C   UNL     1       5.869   5.126  17.118  0.00  0.00    +0.000 A 
ATOM      7  C   UNL     1       6.852   6.001  16.627  0.00  0.00    +0.000 A 
ATOM      8  C   UNL     1       7.745   6.634  17.488  0.00  0.00    +0.000 A 
ATOM      9  C   UNL     1       7.683   6.376  18.847  0.00  0.00    +0.000 A 
ATOM     10  C   UNL     1       6.710   5.508  19.345  0.00  0.00    +0.000 A 
ATOM     11  C   UNL     1       5.732   4.923  18.512  0.00  0.00    +0.000 A 
BRANCH   6  13
ATOM     12  C   UNL     1       5.483   4.389  14.913  0.00  0.00    +0.000 C 
ATOM     13  O   UNL     1       5.001   4.502  16.254  0.00  0.00    +0.000 OA
ENDBRANCH   6  13
ENDBRANCH   1  11
BRANCH   5  14
ATOM     14  C   UNL     1       2.765   5.786  19.370  0.00  0.00    +0.000 A 
ATOM     15  C   UNL     1       2.265   6.495  20.480  0.00  0.00    +0.000 A 
ATOM     16  C   UNL     1       1.775   7.792  20.332  0.00  0.00    +0.000 A 
ATOM     17  C   UNL     1       1.785   8.406  19.081  0.00  0.00    +0.000 A 
ATOM     18  C   UNL     1       2.252   7.706  17.972  0.00  0.00    +0.000 A 
ATOM     19  C   UNL     1       2.724   6.397  18.109  0.00  0.00    +0.000 A 
ENDBRANCH   5  14
BRANCH   4  20
ATOM     20  S   UNL     1       1.311   3.244  20.928  0.00  0.00    +0.000 S 
ATOM     21  H   UNL     1       0.643   3.934  19.991  0.00  0.00    +0.000 HD
ENDBRANCH   4  20
TORSDOF 4
ENDMDL
MODEL 2
REMARK VINA RESULT:      -7.2      1.147      1.169
REMARK  Name = 
REMARK  5 active torsions:
REMARK  status: ('A' for Active; 'I' for Inactive)
REMARK    1  A    between atoms: C_1  and  O_2
REMARK    2  A    between atoms: O_2  and  C_3
REMARK    3  A    between atoms: C_8  and  C_9
REMARK    4  A    between atoms: C_12  and  S_13
REMARK    5  A    between atoms: N_14  and  C_15
REMARK                            x       y       z     vdW  Elec       q    Type
REMARK                         _______ _______ _______ _____ _____    ______ ____
ROOT
ATOM      1  C   UNL     1       4.388   4.054  18.039  0.00  0.00    +0.000 A 
ATOM      2  N   UNL     1       4.434   2.780  17.675  0.00  0.00    +0.000 NA
ATOM      3  N   UNL     1       3.231   2.191  17.940  0.00  0.00    +0.000 NA
ATOM      4  C   UNL     1       2.441   3.106  18.444  0.00  0.00    +0.000 A 
ATOM      5  N   UNL     1       3.082   4.334  18.498  0.00  0.00    +0.000 N 
ENDROOT
BRANCH   1  11
ATOM      6  C   UNL     1       5.964   5.753  16.981  0.00  0.00    +0.000 A 
ATOM      7  C   UNL     1       7.044   6.642  17.111  0.00  0.00    +0.000 A 
ATOM      8  C   UNL     1       7.790   6.698  18.286  0.00  0.00    +0.000 A 
ATOM      9  C   UNL     1       7.482   5.845  19.332  0.00  0.00    +0.000 A 
ATOM     10  C   UNL     1       6.411   4.958  19.213  0.00  0.00    +0.000 A 
ATOM     11  C   UNL     1       5.578   4.941  18.073  0.00  0.00    +0.000 A 
BRANCH   6  13
ATOM     12  C   UNL     1       5.848   4.926  14.777  0.00  0.00    +0.000 C 
ATOM     13  O   UNL     1       5.243   5.704  15.812  0.00  0.00    +0.000 OA
ENDBRANCH   6  13
ENDBRANCH   1  11
BRANCH   5  14
ATOM     14  C   UNL     1       2.562   5.583  18.955  0.00  0.00    +0.000 A 
ATOM     15  C   UNL     1       2.117   5.731  20.283  0.00  0.00    +0.000 A 
ATOM     16  C   UNL     1       1.719   6.978  20.764  0.00  0.00    +0.000 A 
ATOM     17  C   UNL     1       1.769   8.097  19.934  0.00  0.00    +0.000 A 
ATOM     18  C   UNL     1       2.182   7.958  18.613  0.00  0.00    +0.000 A 
ATOM     19  C   UNL     1       2.560   6.707  18.117  0.00  0.00    +0.000 A 
ENDBRANCH   5  14
BRANCH   4  20
ATOM     20  S   UNL     1       0.779   2.788  18.816  0.00  0.00    +0.000 S 
ATOM     21  H   UNL     1       0.509   3.989  19.350  0.00  0.00    +0.000 HD
ENDBRANCH   4  20
TORSDOF 4
ENDMDL
MODEL 3
REMARK VINA RESULT:      -7.2      1.246      2.505
REMARK  Name = 
REMARK  5 active torsions:
REMARK  status: ('A' for Active; 'I' for Inactive)
REMARK    1  A    between atoms: C_1  and  O_2
REMARK    2  A    between atoms: O_2  and  C_3
REMARK    3  A    between atoms: C_8  and  C_9
REMARK    4  A    between atoms: C_12  and  S_13
REMARK    5  A    between atoms: N_14  and  C_15
REMARK                            x       y       z     vdW  Elec       q    Type
REMARK                         _______ _______ _______ _____ _____    ______ ____
ROOT
ATOM      1  C   UNL     1       3.887   3.349  17.843  0.00  0.00    +0.000 A 
ATOM      2  N   UNL     1       3.731   2.039  17.966  0.00  0.00    +0.000 NA
ATOM      3  N   UNL     1       2.793   1.784  18.925  0.00  0.00    +0.000 NA
ATOM      4  C   UNL     1       2.358   2.934  19.374  0.00  0.00    +0.000 A 
ATOM      5  N   UNL     1       2.967   3.986  18.705  0.00  0.00    +0.000 N 
ENDROOT
BRANCH   1  11
ATOM      6  C   UNL     1       6.149   4.496  17.601  0.00  0.00    +0.000 A 
ATOM      7  C   UNL     1       7.169   4.989  16.770  0.00  0.00    +0.000 A 
ATOM      8  C   UNL     1       7.010   5.034  15.387  0.00  0.00    +0.000 A 
ATOM      9  C   UNL     1       5.819   4.613  14.823  0.00  0.00    +0.000 A 
ATOM     10  C   UNL     1       4.798   4.121  15.638  0.00  0.00    +0.000 A 
ATOM     11  C   UNL     1       4.962   3.975  17.033  0.00  0.00    +0.000 A 
BRANCH   6  13
ATOM     12  C   UNL     1       7.093   5.546  19.487  0.00  0.00    +0.000 C 
ATOM     13  O   UNL     1       6.317   4.466  18.964  0.00  0.00    +0.000 OA
ENDBRANCH   6  13
ENDBRANCH   1  11
BRANCH   5  14
ATOM     14  C   UNL     1       2.751   5.386  18.879  0.00  0.00    +0.000 A 
ATOM     15  C   UNL     1       2.828   6.264  17.779  0.00  0.00    +0.000 A 
ATOM     16  C   UNL     1       2.502   7.613  17.924  0.00  0.00    +0.000 A 
ATOM     17  C   UNL     1       2.086   8.104  19.159  0.00  0.00    +0.000 A 
ATOM     18  C   UNL     1       2.032   7.252  20.258  0.00  0.00    +0.000 A 
ATOM     19  C   UNL     1       2.379   5.905  20.127  0.00  0.00    +0.000 A 
ENDBRANCH   5  14
BRANCH   4  20
ATOM     20  S   UNL     1       1.074   3.049  20.531  0.00  0.00    +0.000 S 
ATOM     21  H   UNL     1       1.852   3.088  21.623  0.00  0.00    +0.000 HD
ENDBRANCH   4  20
TORSDOF 4
ENDMDL
MODEL 4
REMARK VINA RESULT:      -7.1      0.654      1.256
REMARK  Name = 
REMARK  5 active torsions:
REMARK  status: ('A' for Active; 'I' for Inactive)
REMARK    1  A    between atoms: C_1  and  O_2
REMARK    2  A    between atoms: O_2  and  C_3
REMARK    3  A    between atoms: C_8  and  C_9
REMARK    4  A    between atoms: C_12  and  S_13
REMARK    5  A    between atoms: N_14  and  C_15
REMARK                            x       y       z     vdW  Elec       q    Type
REMARK                         _______ _______ _______ _____ _____    ______ ____
ROOT
ATOM      1  C   UNL     1       4.379   4.371  18.657  0.00  0.00    +0.000 A 
ATOM      2  N   UNL     1       4.367   3.046  18.691  0.00  0.00    +0.000 NA
ATOM      3  N   UNL     1       3.170   2.619  19.189  0.00  0.00    +0.000 NA
ATOM      4  C   UNL     1       2.440   3.677  19.441  0.00  0.00    +0.000 A 
ATOM      5  N   UNL     1       3.116   4.835  19.087  0.00  0.00    +0.000 N 
ENDROOT
BRANCH   1  11
ATOM      6  C   UNL     1       5.856   5.715  17.075  0.00  0.00    +0.000 A 
ATOM      7  C   UNL     1       6.972   6.545  16.878  0.00  0.00    +0.000 A 
ATOM      8  C   UNL     1       7.868   6.799  17.913  0.00  0.00    +0.000 A 
ATOM      9  C   UNL     1       7.674   6.203  19.147  0.00  0.00    +0.000 A 
ATOM     10  C   UNL     1       6.568   5.376  19.353  0.00  0.00    +0.000 A 
ATOM     11  C   UNL     1       5.591   5.173  18.355  0.00  0.00    +0.000 A 
BRANCH   6  13
ATOM     12  C   UNL     1       5.566   4.778  14.932  0.00  0.00    +0.000 C 
ATOM     13  O   UNL     1       4.984   5.467  16.041  0.00  0.00    +0.000 OA
ENDBRANCH   6  13
ENDBRANCH   1  11
BRANCH   5  14
ATOM     14  C   UNL     1       2.662   6.186  19.177  0.00  0.00    +0.000 A 
ATOM     15  C   UNL     1       2.590   6.995  18.026  0.00  0.00    +0.000 A 
ATOM     16  C   UNL     1       2.037   8.274  18.091  0.00  0.00    +0.000 A 
ATOM     17  C   UNL     1       1.538   8.760  19.298  0.00  0.00    +0.000 A 
ATOM     18  C   UNL     1       1.626   7.980  20.446  0.00  0.00    +0.000 A 
ATOM     19  C   UNL     1       2.201   6.706  20.394  0.00  0.00    +0.000 A 
ENDBRANCH   5  14
BRANCH   4  20
ATOM     20  S   UNL     1       0.801   3.561  19.987  0.00  0.00    +0.000 S 
ATOM     21  H   UNL     1       0.331   2.893  18.923  0.00  0.00    +0.000 HD
ENDBRANCH   4  20
TORSDOF 4
ENDMDL
MODEL 5
REMARK VINA RESULT:      -7.0      1.170      2.208
REMARK  Name = 
REMARK  5 active torsions:
REMARK  status: ('A' for Active; 'I' for Inactive)
REMARK    1  A    between atoms: C_1  and  O_2
REMARK    2  A    between atoms: O_2  and  C_3
REMARK    3  A    between atoms: C_8  and  C_9
REMARK    4  A    between atoms: C_12  and  S_13
REMARK    5  A    between atoms: N_14  and  C_15
REMARK                            x       y       z     vdW  Elec       q    Type
REMARK                         _______ _______ _______ _____ _____    ______ ____
ROOT
ATOM      1  C   UNL     1       3.928   3.380  18.020  0.00  0.00    +0.000 A 
ATOM      2  N   UNL     1       3.899   2.071  18.220  0.00  0.00    +0.000 NA
ATOM      3  N   UNL     1       2.974   1.781  19.182  0.00  0.00    +0.000 NA
ATOM      4  C   UNL     1       2.421   2.907  19.557  0.00  0.00    +0.000 A 
ATOM      5  N   UNL     1       2.936   3.972  18.833  0.00  0.00    +0.000 N 
ENDROOT
BRANCH   1  11
ATOM      6  C   UNL     1       6.100   4.679  17.731  0.00  0.00    +0.000 A 
ATOM      7  C   UNL     1       7.077   5.223  16.880  0.00  0.00    +0.000 A 
ATOM      8  C   UNL     1       6.906   5.221  15.498  0.00  0.00    +0.000 A 
ATOM      9  C   UNL     1       5.744   4.702  14.954  0.00  0.00    +0.000 A 
ATOM     10  C   UNL     1       4.767   4.159  15.790  0.00  0.00    +0.000 A 
ATOM     11  C   UNL     1       4.950   4.061  17.186  0.00  0.00    +0.000 A 
BRANCH   6  13
ATOM     12  C   UNL     1       7.323   5.563  19.540  0.00  0.00    +0.000 C 
ATOM     13  O   UNL     1       6.279   4.696  19.093  0.00  0.00    +0.000 OA
ENDBRANCH   6  13
ENDBRANCH   1  11
BRANCH   5  14
ATOM     14  C   UNL     1       2.581   5.353  18.920  0.00  0.00    +0.000 A 
ATOM     15  C   UNL     1       2.274   5.936  20.165  0.00  0.00    +0.000 A 
ATOM     16  C   UNL     1       2.043   7.308  20.268  0.00  0.00    +0.000 A 
ATOM     17  C   UNL     1       2.126   8.119  19.138  0.00  0.00    +0.000 A 
ATOM     18  C   UNL     1       2.403   7.550  17.899  0.00  0.00    +0.000 A 
ATOM     19  C   UNL     1       2.613   6.173  17.784  0.00  0.00    +0.000 A 
ENDBRANCH   5  14
BRANCH   4  20
ATOM     20  S   UNL     1       1.113   2.962  20.691  0.00  0.00    +0.000 S 
ATOM     21  H   UNL     1       0.416   3.928  20.075  0.00  0.00    +0.000 HD
ENDBRANCH   4  20
TORSDOF 4
ENDMDL
MODEL 6
REMARK VINA RESULT:      -6.7      2.490      5.110
REMARK  Name = 
REMARK  5 active torsions:
REMARK  status: ('A' for Active; 'I' for Inactive)
REMARK    1  A    between atoms: C_1  and  O_2
REMARK    2  A    between atoms: O_2  and  C_3
REMARK    3  A    between atoms: C_8  and  C_9
REMARK    4  A    between atoms: C_12  and  S_13
REMARK    5  A    between atoms: N_14  and  C_15
REMARK                            x       y       z     vdW  Elec       q    Type
REMARK                         _______ _______ _______ _____ _____    ______ ____
ROOT
ATOM      1  C   UNL     1       3.474   5.007  17.749  0.00  0.00    +0.000 A 
ATOM      2  N   UNL     1       2.827   4.051  17.099  0.00  0.00    +0.000 NA
ATOM      3  N   UNL     1       3.667   3.475  16.190  0.00  0.00    +0.000 NA
ATOM      4  C   UNL     1       4.833   4.060  16.296  0.00  0.00    +0.000 A 
ATOM      5  N   UNL     1       4.814   5.017  17.300  0.00  0.00    +0.000 N 
ENDROOT
BRANCH   1  11
ATOM      6  C   UNL     1       2.385   5.613  19.971  0.00  0.00    +0.000 A 
ATOM      7  C   UNL     1       1.853   6.592  20.827  0.00  0.00    +0.000 A 
ATOM      8  C   UNL     1       1.681   7.905  20.396  0.00  0.00    +0.000 A 
ATOM      9  C   UNL     1       2.010   8.247  19.096  0.00  0.00    +0.000 A 
ATOM     10  C   UNL     1       2.539   7.282  18.237  0.00  0.00    +0.000 A 
ATOM     11  C   UNL     1       2.814   5.966  18.669  0.00  0.00    +0.000 A 
BRANCH   6  13
ATOM     12  C   UNL     1       1.318   3.597  20.561  0.00  0.00    +0.000 C 
ATOM     13  O   UNL     1       2.541   4.320  20.408  0.00  0.00    +0.000 OA
ENDBRANCH   6  13
ENDBRANCH   1  11
BRANCH   5  14
ATOM     14  C   UNL     1       5.882   5.852  17.746  0.00  0.00    +0.000 A 
ATOM     15  C   UNL     1       6.763   5.411  18.753  0.00  0.00    +0.000 A 
ATOM     16  C   UNL     1       7.876   6.174  19.107  0.00  0.00    +0.000 A 
ATOM     17  C   UNL     1       8.134   7.379  18.457  0.00  0.00    +0.000 A 
ATOM     18  C   UNL     1       7.257   7.837  17.478  0.00  0.00    +0.000 A 
ATOM     19  C   UNL     1       6.127   7.089  17.135  0.00  0.00    +0.000 A 
ENDBRANCH   5  14
BRANCH   4  20
ATOM     20  S   UNL     1       6.213   3.542  15.387  0.00  0.00    +0.000 S 
ATOM     21  H   UNL     1       6.302   2.316  15.925  0.00  0.00    +0.000 HD
ENDBRANCH   4  20
TORSDOF 4
ENDMDL
MODEL 7
REMARK VINA RESULT:      -6.4      2.668      5.112
REMARK  Name = 
REMARK  5 active torsions:
REMARK  status: ('A' for Active; 'I' for Inactive)
REMARK    1  A    between atoms: C_1  and  O_2
REMARK    2  A    between atoms: O_2  and  C_3
REMARK    3  A    between atoms: C_8  and  C_9
REMARK    4  A    between atoms: C_12  and  S_13
REMARK    5  A    between atoms: N_14  and  C_15
REMARK                            x       y       z     vdW  Elec       q    Type
REMARK                         _______ _______ _______ _____ _____    ______ ____
ROOT
ATOM      1  C   UNL     1       4.102   4.671  17.403  0.00  0.00    +0.000 A 
ATOM      2  N   UNL     1       3.575   3.843  16.513  0.00  0.00    +0.000 NA
ATOM      3  N   UNL     1       4.421   3.728  15.447  0.00  0.00    +0.000 NA
ATOM      4  C   UNL     1       5.474   4.467  15.691  0.00  0.00    +0.000 A 
ATOM      5  N   UNL     1       5.377   5.066  16.938  0.00  0.00    +0.000 N 
ENDROOT
BRANCH   1  11
ATOM      6  C   UNL     1       2.869   6.496  18.683  0.00  0.00    +0.000 A 
ATOM      7  C   UNL     1       2.100   6.882  19.793  0.00  0.00    +0.000 A 
ATOM      8  C   UNL     1       1.867   6.001  20.847  0.00  0.00    +0.000 A 
ATOM      9  C   UNL     1       2.426   4.735  20.814  0.00  0.00    +0.000 A 
ATOM     10  C   UNL     1       3.191   4.341  19.715  0.00  0.00    +0.000 A 
ATOM     11  C   UNL     1       3.368   5.176  18.591  0.00  0.00    +0.000 A 
BRANCH   6  13
ATOM     12  C   UNL     1       2.386   8.615  17.771  0.00  0.00    +0.000 C 
ATOM     13  O   UNL     1       3.096   7.380  17.655  0.00  0.00    +0.000 OA
ENDBRANCH   6  13
ENDBRANCH   1  11
BRANCH   5  14
ATOM     14  C   UNL     1       6.320   5.921  17.584  0.00  0.00    +0.000 A 
ATOM     15  C   UNL     1       7.112   5.440  18.645  0.00  0.00    +0.000 A 
ATOM     16  C   UNL     1       8.116   6.236  19.198  0.00  0.00    +0.000 A 
ATOM     17  C   UNL     1       8.352   7.514  18.698  0.00  0.00    +0.000 A 
ATOM     18  C   UNL     1       7.559   8.010  17.667  0.00  0.00    +0.000 A 
ATOM     19  C   UNL     1       6.536   7.227  17.123  0.00  0.00    +0.000 A 
ENDBRANCH   5  14
BRANCH   4  20
ATOM     20  S   UNL     1       6.840   4.510  14.626  0.00  0.00    +0.000 S 
ATOM     21  H   UNL     1       6.613   5.737  14.133  0.00  0.00    +0.000 HD
ENDBRANCH   4  20
TORSDOF 4
ENDMDL
MODEL 8
REMARK VINA RESULT:      -6.4      2.092      4.275
REMARK  Name = 
REMARK  5 active torsions:
REMARK  status: ('A' for Active; 'I' for Inactive)
REMARK    1  A    between atoms: C_1  and  O_2
REMARK    2  A    between atoms: O_2  and  C_3
REMARK    3  A    between atoms: C_8  and  C_9
REMARK    4  A    between atoms: C_12  and  S_13
REMARK    5  A    between atoms: N_14  and  C_15
REMARK                            x       y       z     vdW  Elec       q    Type
REMARK                         _______ _______ _______ _____ _____    ______ ____
ROOT
ATOM      1  C   UNL     1       4.409   6.178  17.341  0.00  0.00    +0.000 A 
ATOM      2  N   UNL     1       4.160   7.476  17.436  0.00  0.00    +0.000 NA
ATOM      3  N   UNL     1       3.161   7.680  18.344  0.00  0.00    +0.000 NA
ATOM      4  C   UNL     1       2.811   6.512  18.821  0.00  0.00    +0.000 A 
ATOM      5  N   UNL     1       3.589   5.503  18.272  0.00  0.00    +0.000 N 
ENDROOT
BRANCH   1  11
ATOM      6  C   UNL     1       6.709   5.638  16.389  0.00  0.00    +0.000 A 
ATOM      7  C   UNL     1       7.493   4.975  15.431  0.00  0.00    +0.000 A 
ATOM      8  C   UNL     1       6.905   4.311  14.357  0.00  0.00    +0.000 A 
ATOM      9  C   UNL     1       5.529   4.328  14.215  0.00  0.00    +0.000 A 
ATOM     10  C   UNL     1       4.740   4.984  15.162  0.00  0.00    +0.000 A 
ATOM     11  C   UNL     1       5.298   5.586  16.310  0.00  0.00    +0.000 A 
BRANCH   6  13
ATOM     12  C   UNL     1       7.667   5.453  18.534  0.00  0.00    +0.000 C 
ATOM     13  O   UNL     1       7.305   6.296  17.439  0.00  0.00    +0.000 OA
ENDBRANCH   6  13
ENDBRANCH   1  11
BRANCH   5  14
ATOM     14  C   UNL     1       3.542   4.103  18.547  0.00  0.00    +0.000 A 
ATOM     15  C   UNL     1       2.731   3.248  17.775  0.00  0.00    +0.000 A 
ATOM     16  C   UNL     1       2.774   1.867  17.964  0.00  0.00    +0.000 A 
ATOM     17  C   UNL     1       3.631   1.316  18.914  0.00  0.00    +0.000 A 
ATOM     18  C   UNL     1       4.418   2.152  19.701  0.00  0.00    +0.000 A 
ATOM     19  C   UNL     1       4.363   3.539  19.533  0.00  0.00    +0.000 A 
ENDBRANCH   5  14
BRANCH   4  20
ATOM     20  S   UNL     1       1.641   6.343  20.088  0.00  0.00    +0.000 S 
ATOM     21  H   UNL     1       2.100   5.177  20.567  0.00  0.00    +0.000 HD
ENDBRANCH   4  20
TORSDOF 4
ENDMDL
MODEL 9
REMARK VINA RESULT:      -6.4      2.160      5.149
REMARK  Name = 
REMARK  5 active torsions:
REMARK  status: ('A' for Active; 'I' for Inactive)
REMARK    1  A    between atoms: C_1  and  O_2
REMARK    2  A    between atoms: O_2  and  C_3
REMARK    3  A    between atoms: C_8  and  C_9
REMARK    4  A    between atoms: C_12  and  S_13
REMARK    5  A    between atoms: N_14  and  C_15
REMARK                            x       y       z     vdW  Elec       q    Type
REMARK                         _______ _______ _______ _____ _____    ______ ____
ROOT
ATOM      1  C   UNL     1       2.531   5.840  19.905  0.00  0.00    +0.000 A 
ATOM      2  N   UNL     1       1.836   5.213  20.842  0.00  0.00    +0.000 NA
ATOM      3  N   UNL     1       2.285   3.929  20.954  0.00  0.00    +0.000 NA
ATOM      4  C   UNL     1       3.269   3.773  20.103  0.00  0.00    +0.000 A 
ATOM      5  N   UNL     1       3.525   4.956  19.426  0.00  0.00    +0.000 N 
ENDROOT
BRANCH   1  11
ATOM      6  C   UNL     1       1.597   8.193  20.191  0.00  0.00    +0.000 A 
ATOM      7  C   UNL     1       1.379   9.477  19.664  0.00  0.00    +0.000 A 
ATOM      8  C   UNL     1       1.675   9.768  18.335  0.00  0.00    +0.000 A 
ATOM      9  C   UNL     1       2.163   8.770  17.510  0.00  0.00    +0.000 A 
ATOM     10  C   UNL     1       2.383   7.490  18.022  0.00  0.00    +0.000 A 
ATOM     11  C   UNL     1       2.183   7.187  19.386  0.00  0.00    +0.000 A 
BRANCH   6  13
ATOM     12  C   UNL     1       1.051   9.077  22.306  0.00  0.00    +0.000 C 
ATOM     13  O   UNL     1       1.292   7.919  21.503  0.00  0.00    +0.000 OA
ENDBRANCH   6  13
ENDBRANCH   1  11
BRANCH   5  14
ATOM     14  C   UNL     1       4.526   5.212  18.441  0.00  0.00    +0.000 A 
ATOM     15  C   UNL     1       4.298   4.892  17.089  0.00  0.00    +0.000 A 
ATOM     16  C   UNL     1       5.225   5.248  16.109  0.00  0.00    +0.000 A 
ATOM     17  C   UNL     1       6.385   5.936  16.460  0.00  0.00    +0.000 A 
ATOM     18  C   UNL     1       6.633   6.235  17.796  0.00  0.00    +0.000 A 
ATOM     19  C   UNL     1       5.720   5.861  18.786  0.00  0.00    +0.000 A 
ENDBRANCH   5  14
BRANCH   4  20
ATOM     20  S   UNL     1       4.188   2.308  20.010  0.00  0.00    +0.000 S 
ATOM     21  H   UNL     1       5.159   2.785  19.217  0.00  0.00    +0.000 HD
ENDBRANCH   4  20
TORSDOF 4
ENDMDL
