MODEL 1
REMARK VINA RESULT:      -7.7      0.000      0.000
REMARK  Name = 
REMARK  6 active torsions:
REMARK  status: ('A' for Active; 'I' for Inactive)
REMARK    1  A    between atoms: C_1  and  C_2
REMARK    2  A    between atoms: C_4  and  C_5
REMARK    3  A    between atoms: N_9  and  C_10
REMARK    4  A    between atoms: C_10  and  C_11
REMARK    5  A    between atoms: C_11  and  C_12
REMARK    6  A    between atoms: C_12  and  N_13
REMARK                            x       y       z     vdW  Elec       q    Type
REMARK                         _______ _______ _______ _____ _____    ______ ____
ROOT
ATOM      1  C   UNL     1       4.755   6.586  16.937  0.00  0.00    +0.000 C 
ENDROOT
BRANCH   1   6
ATOM      2  C   UNL     1       6.452   4.768  17.231  0.00  0.00    +0.000 C 
ATOM      3  C   UNL     1       5.635   3.621  17.810  0.00  0.00    +0.000 C 
ATOM      4  C   UNL     1       5.347   4.092  19.217  0.00  0.00    +0.000 C 
ATOM      5  C   UNL     1       5.304   5.611  19.116  0.00  0.00    +0.000 C 
ATOM      6  N   UNL     1       5.808   6.003  17.784  0.00  0.00    +0.000 NA
BRANCH   2  10
ATOM      7  C   UNL     1       6.054   3.449  12.465  0.00  0.00    +0.000 C 
ATOM      8  C   UNL     1       6.398   4.059  13.761  0.00  0.00    +0.000 A 
ATOM      9  N   UNL     1       5.972   3.759  14.965  0.00  0.00    +0.000 NA
ATOM     10  C   UNL     1       6.612   4.700  15.743  0.00  0.00    +0.000 A 
ATOM     11  N   UNL     1       7.415   5.531  15.061  0.00  0.00    +0.000 NA
ATOM     12  O   UNL     1       7.270   5.108  13.738  0.00  0.00    +0.000 OA
ENDBRANCH   2  10
ENDBRANCH   1   6
BRANCH   1  13
ATOM     13  C   UNL     1       3.884   7.633  17.658  0.00  0.00    +0.000 C 
BRANCH  13  14
ATOM     14  C   UNL     1       2.403   7.253  17.713  0.00  0.00    +0.000 C 
BRANCH  14  15
ATOM     15  N   UNL     1       2.112   6.402  18.847  0.00  0.00    +0.000 N 
ATOM     16  C   UNL     1       1.912   6.820  20.147  0.00  0.00    +0.000 A 
ATOM     17  O   UNL     1       1.996   7.971  20.557  0.00  0.00    +0.000 OA
ATOM     18  O   UNL     1       1.577   5.739  20.977  0.00  0.00    +0.000 OA
ATOM     19  C   UNL     1       1.564   4.673  20.091  0.00  0.00    +0.000 A 
ATOM     20  C   UNL     1       1.267   3.365  20.418  0.00  0.00    +0.000 A 
ATOM     21  C   UNL     1       1.297   2.423  19.386  0.00  0.00    +0.000 A 
ATOM     22  C   UNL     1       1.617   2.808  18.069  0.00  0.00    +0.000 A 
ATOM     23  C   UNL     1       1.915   4.140  17.763  0.00  0.00    +0.000 A 
ATOM     24  C   UNL     1       1.878   5.047  18.801  0.00  0.00    +0.000 A 
ENDBRANCH  14  15
ENDBRANCH  13  14
ENDBRANCH   1  13
TORSDOF 5
ENDMDL
MODEL 2
REMARK VINA RESULT:      -7.5      2.142      3.272
REMARK  Name = 
REMARK  6 active torsions:
REMARK  status: ('A' for Active; 'I' for Inactive)
REMARK    1  A    between atoms: C_1  and  C_2
REMARK    2  A    between atoms: C_4  and  C_5
REMARK    3  A    between atoms: N_9  and  C_10
REMARK    4  A    between atoms: C_10  and  C_11
REMARK    5  A    between atoms: C_11  and  C_12
REMARK    6  A    between atoms: C_12  and  N_13
REMARK                            x       y       z     vdW  Elec       q    Type
REMARK                         _______ _______ _______ _____ _____    ______ ____
ROOT
ATOM      1  C   UNL     1       4.680   6.544  16.445  0.00  0.00    +0.000 C 
ENDROOT
BRANCH   1   6
ATOM      2  C   UNL     1       6.767   5.180  16.687  0.00  0.00    +0.000 C 
ATOM      3  C   UNL     1       7.263   5.048  15.254  0.00  0.00    +0.000 C 
ATOM      4  C   UNL     1       6.264   4.094  14.640  0.00  0.00    +0.000 C 
ATOM      5  C   UNL     1       4.969   4.347  15.400  0.00  0.00    +0.000 C 
ATOM      6  N   UNL     1       5.274   5.202  16.566  0.00  0.00    +0.000 NA
BRANCH   2  10
ATOM      7  C   UNL     1       8.494   9.646  17.984  0.00  0.00    +0.000 C 
ATOM      8  C   UNL     1       8.115   8.225  17.893  0.00  0.00    +0.000 A 
ATOM      9  N   UNL     1       7.506   7.584  16.923  0.00  0.00    +0.000 NA
ATOM     10  C   UNL     1       7.399   6.311  17.440  0.00  0.00    +0.000 A 
ATOM     11  N   UNL     1       7.933   6.160  18.661  0.00  0.00    +0.000 NA
ATOM     12  O   UNL     1       8.408   7.437  18.966  0.00  0.00    +0.000 OA
ENDBRANCH   2  10
ENDBRANCH   1   6
BRANCH   1  13
ATOM     13  C   UNL     1       3.749   6.921  17.613  0.00  0.00    +0.000 C 
BRANCH  13  14
ATOM     14  C   UNL     1       4.097   6.202  18.919  0.00  0.00    +0.000 C 
BRANCH  14  15
ATOM     15  N   UNL     1       2.957   5.492  19.457  0.00  0.00    +0.000 N 
ATOM     16  C   UNL     1       1.969   6.029  20.258  0.00  0.00    +0.000 A 
ATOM     17  O   UNL     1       1.927   7.177  20.681  0.00  0.00    +0.000 OA
ATOM     18  O   UNL     1       0.975   5.078  20.538  0.00  0.00    +0.000 OA
ATOM     19  C   UNL     1       1.418   3.967  19.835  0.00  0.00    +0.000 A 
ATOM     20  C   UNL     1       0.769   2.751  19.772  0.00  0.00    +0.000 A 
ATOM     21  C   UNL     1       1.364   1.745  19.005  0.00  0.00    +0.000 A 
ATOM     22  C   UNL     1       2.577   1.978  18.329  0.00  0.00    +0.000 A 
ATOM     23  C   UNL     1       3.216   3.220  18.409  0.00  0.00    +0.000 A 
ATOM     24  C   UNL     1       2.606   4.192  19.173  0.00  0.00    +0.000 A 
ENDBRANCH  14  15
ENDBRANCH  13  14
ENDBRANCH   1  13
TORSDOF 5
ENDMDL
MODEL 3
REMARK VINA RESULT:      -7.3      1.127      1.219
REMARK  Name = 
REMARK  6 active torsions:
REMARK  status: ('A' for Active; 'I' for Inactive)
REMARK    1  A    between atoms: C_1  and  C_2
REMARK    2  A    between atoms: C_4  and  C_5
REMARK    3  A    between atoms: N_9  and  C_10
REMARK    4  A    between atoms: C_10  and  C_11
REMARK    5  A    between atoms: C_11  and  C_12
REMARK    6  A    between atoms: C_12  and  N_13
REMARK                            x       y       z     vdW  Elec       q    Type
REMARK                         _______ _______ _______ _____ _____    ______ ____
ROOT
ATOM      1  C   UNL     1       5.230   6.561  16.051  0.00  0.00    +0.000 C 
ENDROOT
BRANCH   1   6
ATOM      2  C   UNL     1       7.486   5.474  16.002  0.00  0.00    +0.000 C 
ATOM      3  C   UNL     1       7.376   4.396  17.071  0.00  0.00    +0.000 C 
ATOM      4  C   UNL     1       7.376   5.196  18.354  0.00  0.00    +0.000 C 
ATOM      5  C   UNL     1       6.741   6.528  17.980  0.00  0.00    +0.000 C 
ATOM      6  N   UNL     1       6.630   6.594  16.508  0.00  0.00    +0.000 NA
BRANCH   2  10
ATOM      7  C   UNL     1       5.628   2.973  12.141  0.00  0.00    +0.000 C 
ATOM      8  C   UNL     1       6.374   3.858  13.052  0.00  0.00    +0.000 A 
ATOM      9  N   UNL     1       6.302   3.965  14.358  0.00  0.00    +0.000 NA
ATOM     10  C   UNL     1       7.199   4.979  14.617  0.00  0.00    +0.000 A 
ATOM     11  N   UNL     1       7.815   5.466  13.529  0.00  0.00    +0.000 NA
ATOM     12  O   UNL     1       7.263   4.722  12.484  0.00  0.00    +0.000 OA
ENDBRANCH   2  10
ENDBRANCH   1   6
BRANCH   1  13
ATOM     13  C   UNL     1       4.284   5.794  16.995  0.00  0.00    +0.000 C 
BRANCH  13  14
ATOM     14  C   UNL     1       3.243   6.692  17.667  0.00  0.00    +0.000 C 
BRANCH  14  15
ATOM     15  N   UNL     1       2.572   6.011  18.753  0.00  0.00    +0.000 N 
ATOM     16  C   UNL     1       2.094   6.597  19.908  0.00  0.00    +0.000 A 
ATOM     17  O   UNL     1       2.206   7.776  20.220  0.00  0.00    +0.000 OA
ATOM     18  O   UNL     1       1.432   5.657  20.713  0.00  0.00    +0.000 OA
ATOM     19  C   UNL     1       1.522   4.499  19.956  0.00  0.00    +0.000 A 
ATOM     20  C   UNL     1       0.999   3.271  20.308  0.00  0.00    +0.000 A 
ATOM     21  C   UNL     1       1.182   2.214  19.412  0.00  0.00    +0.000 A 
ATOM     22  C   UNL     1       1.874   2.410  18.201  0.00  0.00    +0.000 A 
ATOM     23  C   UNL     1       2.395   3.664  17.867  0.00  0.00    +0.000 A 
ATOM     24  C   UNL     1       2.200   4.687  18.770  0.00  0.00    +0.000 A 
ENDBRANCH  14  15
ENDBRANCH  13  14
ENDBRANCH   1  13
TORSDOF 5
ENDMDL
MODEL 4
REMARK VINA RESULT:      -7.3      1.238      1.500
REMARK  Name = 
REMARK  6 active torsions:
REMARK  status: ('A' for Active; 'I' for Inactive)
REMARK    1  A    between atoms: C_1  and  C_2
REMARK    2  A    between atoms: C_4  and  C_5
REMARK    3  A    between atoms: N_9  and  C_10
REMARK    4  A    between atoms: C_10  and  C_11
REMARK    5  A    between atoms: C_11  and  C_12
REMARK    6  A    between atoms: C_12  and  N_13
REMARK                            x       y       z     vdW  Elec       q    Type
REMARK                         _______ _______ _______ _____ _____    ______ ____
ROOT
ATOM      1  C   UNL     1       5.533   7.013  16.630  0.00  0.00    +0.000 C 
ENDROOT
BRANCH   1   6
ATOM      2  C   UNL     1       7.583   5.578  16.524  0.00  0.00    +0.000 C 
ATOM      3  C   UNL     1       7.637   4.946  17.909  0.00  0.00    +0.000 C 
ATOM      4  C   UNL     1       8.040   6.106  18.790  0.00  0.00    +0.000 C 
ATOM      5  C   UNL     1       7.469   7.337  18.098  0.00  0.00    +0.000 C 
ATOM      6  N   UNL     1       6.999   6.938  16.755  0.00  0.00    +0.000 NA
BRANCH   2  10
ATOM      7  C   UNL     1       6.087   3.595  12.230  0.00  0.00    +0.000 C 
ATOM      8  C   UNL     1       6.317   3.962  13.638  0.00  0.00    +0.000 A 
ATOM      9  N   UNL     1       7.079   4.903  14.143  0.00  0.00    +0.000 NA
ATOM     10  C   UNL     1       6.908   4.720  15.498  0.00  0.00    +0.000 A 
ATOM     11  N   UNL     1       6.065   3.728  15.823  0.00  0.00    +0.000 NA
ATOM     12  O   UNL     1       5.672   3.219  14.583  0.00  0.00    +0.000 OA
ENDBRANCH   2  10
ENDBRANCH   1   6
BRANCH   1  13
ATOM     13  C   UNL     1       4.775   6.452  17.848  0.00  0.00    +0.000 C 
BRANCH  13  14
ATOM     14  C   UNL     1       3.279   6.774  17.829  0.00  0.00    +0.000 C 
BRANCH  14  15
ATOM     15  N   UNL     1       2.558   6.025  18.835  0.00  0.00    +0.000 N 
ATOM     16  C   UNL     1       2.004   6.539  19.991  0.00  0.00    +0.000 A 
ATOM     17  O   UNL     1       2.077   7.700  20.372  0.00  0.00    +0.000 OA
ATOM     18  O   UNL     1       1.313   5.546  20.703  0.00  0.00    +0.000 OA
ATOM     19  C   UNL     1       1.466   4.433  19.890  0.00  0.00    +0.000 A 
ATOM     20  C   UNL     1       0.946   3.180  20.143  0.00  0.00    +0.000 A 
ATOM     21  C   UNL     1       1.199   2.178  19.203  0.00  0.00    +0.000 A 
ATOM     22  C   UNL     1       1.956   2.450  18.047  0.00  0.00    +0.000 A 
ATOM     23  C   UNL     1       2.474   3.728  17.813  0.00  0.00    +0.000 A 
ATOM     24  C   UNL     1       2.208   4.696  18.758  0.00  0.00    +0.000 A 
ENDBRANCH  14  15
ENDBRANCH  13  14
ENDBRANCH   1  13
TORSDOF 5
ENDMDL
MODEL 5
REMARK VINA RESULT:      -7.2      1.522      1.695
REMARK  Name = 
REMARK  6 active torsions:
REMARK  status: ('A' for Active; 'I' for Inactive)
REMARK    1  A    between atoms: C_1  and  C_2
REMARK    2  A    between atoms: C_4  and  C_5
REMARK    3  A    between atoms: N_9  and  C_10
REMARK    4  A    between atoms: C_10  and  C_11
REMARK    5  A    between atoms: C_11  and  C_12
REMARK    6  A    between atoms: C_12  and  N_13
REMARK                            x       y       z     vdW  Elec       q    Type
REMARK                         _______ _______ _______ _____ _____    ______ ____
ROOT
ATOM      1  C   UNL     1       5.413   6.720  15.937  0.00  0.00    +0.000 C 
ENDROOT
BRANCH   1   6
ATOM      2  C   UNL     1       7.490   5.320  15.949  0.00  0.00    +0.000 C 
ATOM      3  C   UNL     1       7.201   4.279  17.022  0.00  0.00    +0.000 C 
ATOM      4  C   UNL     1       7.287   5.083  18.300  0.00  0.00    +0.000 C 
ATOM      5  C   UNL     1       6.858   6.489  17.902  0.00  0.00    +0.000 C 
ATOM      6  N   UNL     1       6.792   6.556  16.428  0.00  0.00    +0.000 NA
BRANCH   2  10
ATOM      7  C   UNL     1       5.481   2.959  12.076  0.00  0.00    +0.000 C 
ATOM      8  C   UNL     1       6.275   3.797  12.990  0.00  0.00    +0.000 A 
ATOM      9  N   UNL     1       6.222   3.888  14.298  0.00  0.00    +0.000 NA
ATOM     10  C   UNL     1       7.166   4.858  14.561  0.00  0.00    +0.000 A 
ATOM     11  N   UNL     1       7.792   5.333  13.473  0.00  0.00    +0.000 NA
ATOM     12  O   UNL     1       7.196   4.629  12.424  0.00  0.00    +0.000 OA
ENDBRANCH   2  10
ENDBRANCH   1   6
BRANCH   1  13
ATOM     13  C   UNL     1       4.364   6.848  17.058  0.00  0.00    +0.000 C 
BRANCH  13  14
ATOM     14  C   UNL     1       3.587   5.553  17.309  0.00  0.00    +0.000 C 
BRANCH  14  15
ATOM     15  N   UNL     1       3.075   5.491  18.661  0.00  0.00    +0.000 N 
ATOM     16  C   UNL     1       2.412   6.502  19.326  0.00  0.00    +0.000 A 
ATOM     17  O   UNL     1       2.193   7.627  18.897  0.00  0.00    +0.000 OA
ATOM     18  O   UNL     1       1.989   6.077  20.596  0.00  0.00    +0.000 OA
ATOM     19  C   UNL     1       2.414   4.757  20.626  0.00  0.00    +0.000 A 
ATOM     20  C   UNL     1       2.221   3.879  21.674  0.00  0.00    +0.000 A 
ATOM     21  C   UNL     1       2.716   2.581  21.522  0.00  0.00    +0.000 A 
ATOM     22  C   UNL     1       3.381   2.197  20.341  0.00  0.00    +0.000 A 
ATOM     23  C   UNL     1       3.565   3.106  19.294  0.00  0.00    +0.000 A 
ATOM     24  C   UNL     1       3.067   4.379  19.472  0.00  0.00    +0.000 A 
ENDBRANCH  14  15
ENDBRANCH  13  14
ENDBRANCH   1  13
TORSDOF 5
ENDMDL
MODEL 6
REMARK VINA RESULT:      -7.1      1.931      4.129
REMARK  Name = 
REMARK  6 active torsions:
REMARK  status: ('A' for Active; 'I' for Inactive)
REMARK    1  A    between atoms: C_1  and  C_2
REMARK    2  A    between atoms: C_4  and  C_5
REMARK    3  A    between atoms: N_9  and  C_10
REMARK    4  A    between atoms: C_10  and  C_11
REMARK    5  A    between atoms: C_11  and  C_12
REMARK    6  A    between atoms: C_12  and  N_13
REMARK                            x       y       z     vdW  Elec       q    Type
REMARK                         _______ _______ _______ _____ _____    ______ ____
ROOT
ATOM      1  C   UNL     1       4.761   4.221  16.159  0.00  0.00    +0.000 C 
ENDROOT
BRANCH   1   6
ATOM      2  C   UNL     1       7.175   4.405  15.518  0.00  0.00    +0.000 C 
ATOM      3  C   UNL     1       7.138   5.275  14.270  0.00  0.00    +0.000 C 
ATOM      4  C   UNL     1       6.547   4.347  13.233  0.00  0.00    +0.000 C 
ATOM      5  C   UNL     1       5.642   3.410  14.021  0.00  0.00    +0.000 C 
ATOM      6  N   UNL     1       5.905   3.612  15.461  0.00  0.00    +0.000 NA
BRANCH   2  10
ATOM      7  C   UNL     1       8.136   5.613  20.233  0.00  0.00    +0.000 C 
ATOM      8  C   UNL     1       7.823   5.587  18.794  0.00  0.00    +0.000 A 
ATOM      9  N   UNL     1       7.659   4.561  17.993  0.00  0.00    +0.000 NA
ATOM     10  C   UNL     1       7.434   5.173  16.779  0.00  0.00    +0.000 A 
ATOM     11  N   UNL     1       7.436   6.514  16.824  0.00  0.00    +0.000 NA
ATOM     12  O   UNL     1       7.699   6.792  18.167  0.00  0.00    +0.000 OA
ENDBRANCH   2  10
ENDBRANCH   1   6
BRANCH   1  13
ATOM     13  C   UNL     1       4.128   3.311  17.229  0.00  0.00    +0.000 C 
BRANCH  13  14
ATOM     14  C   UNL     1       2.605   3.437  17.306  0.00  0.00    +0.000 C 
BRANCH  14  15
ATOM     15  N   UNL     1       2.180   4.019  18.561  0.00  0.00    +0.000 N 
ATOM     16  C   UNL     1       1.825   3.325  19.700  0.00  0.00    +0.000 A 
ATOM     17  O   UNL     1       1.765   2.108  19.815  0.00  0.00    +0.000 OA
ATOM     18  O   UNL     1       1.537   4.204  20.756  0.00  0.00    +0.000 OA
ATOM     19  C   UNL     1       1.771   5.445  20.185  0.00  0.00    +0.000 A 
ATOM     20  C   UNL     1       1.645   6.659  20.830  0.00  0.00    +0.000 A 
ATOM     21  C   UNL     1       1.930   7.811  20.092  0.00  0.00    +0.000 A 
ATOM     22  C   UNL     1       2.332   7.722  18.745  0.00  0.00    +0.000 A 
ATOM     23  C   UNL     1       2.452   6.480  18.113  0.00  0.00    +0.000 A 
ATOM     24  C   UNL     1       2.163   5.361  18.865  0.00  0.00    +0.000 A 
ENDBRANCH  14  15
ENDBRANCH  13  14
ENDBRANCH   1  13
TORSDOF 5
ENDMDL
MODEL 7
REMARK VINA RESULT:      -7.0      2.090      4.093
REMARK  Name = 
REMARK  6 active torsions:
REMARK  status: ('A' for Active; 'I' for Inactive)
REMARK    1  A    between atoms: C_1  and  C_2
REMARK    2  A    between atoms: C_4  and  C_5
REMARK    3  A    between atoms: N_9  and  C_10
REMARK    4  A    between atoms: C_10  and  C_11
REMARK    5  A    between atoms: C_11  and  C_12
REMARK    6  A    between atoms: C_12  and  N_13
REMARK                            x       y       z     vdW  Elec       q    Type
REMARK                         _______ _______ _______ _____ _____    ______ ____
ROOT
ATOM      1  C   UNL     1       4.973   4.193  17.102  0.00  0.00    +0.000 C 
ENDROOT
BRANCH   1   6
ATOM      2  C   UNL     1       7.126   4.651  15.908  0.00  0.00    +0.000 C 
ATOM      3  C   UNL     1       6.668   5.235  14.578  0.00  0.00    +0.000 C 
ATOM      4  C   UNL     1       6.096   4.032  13.864  0.00  0.00    +0.000 C 
ATOM      5  C   UNL     1       5.575   3.132  14.977  0.00  0.00    +0.000 C 
ATOM      6  N   UNL     1       6.063   3.659  16.268  0.00  0.00    +0.000 NA
BRANCH   2  10
ATOM      7  C   UNL     1       8.116   8.955  18.169  0.00  0.00    +0.000 C 
ATOM      8  C   UNL     1       7.884   7.548  17.801  0.00  0.00    +0.000 A 
ATOM      9  N   UNL     1       7.592   7.026  16.633  0.00  0.00    +0.000 NA
ATOM     10  C   UNL     1       7.457   5.688  16.938  0.00  0.00    +0.000 A 
ATOM     11  N   UNL     1       7.675   5.387  18.227  0.00  0.00    +0.000 NA
ATOM     12  O   UNL     1       7.956   6.627  18.805  0.00  0.00    +0.000 OA
ENDBRANCH   2  10
ENDBRANCH   1   6
BRANCH   1  13
ATOM     13  C   UNL     1       3.985   3.119  17.597  0.00  0.00    +0.000 C 
BRANCH  13  14
ATOM     14  C   UNL     1       2.522   3.558  17.510  0.00  0.00    +0.000 C 
BRANCH  14  15
ATOM     15  N   UNL     1       2.081   4.191  18.734  0.00  0.00    +0.000 N 
ATOM     16  C   UNL     1       1.693   3.544  19.890  0.00  0.00    +0.000 A 
ATOM     17  O   UNL     1       1.613   2.332  20.047  0.00  0.00    +0.000 OA
ATOM     18  O   UNL     1       1.398   4.464  20.908  0.00  0.00    +0.000 OA
ATOM     19  C   UNL     1       1.661   5.681  20.297  0.00  0.00    +0.000 A 
ATOM     20  C   UNL     1       1.540   6.919  20.895  0.00  0.00    +0.000 A 
ATOM     21  C   UNL     1       1.857   8.039  20.123  0.00  0.00    +0.000 A 
ATOM     22  C   UNL     1       2.284   7.895  18.788  0.00  0.00    +0.000 A 
ATOM     23  C   UNL     1       2.398   6.630  18.204  0.00  0.00    +0.000 A 
ATOM     24  C   UNL     1       2.078   5.543  18.990  0.00  0.00    +0.000 A 
ENDBRANCH  14  15
ENDBRANCH  13  14
ENDBRANCH   1  13
TORSDOF 5
ENDMDL
MODEL 8
REMARK VINA RESULT:      -7.0      1.455      6.563
REMARK  Name = 
REMARK  6 active torsions:
REMARK  status: ('A' for Active; 'I' for Inactive)
REMARK    1  A    between atoms: C_1  and  C_2
REMARK    2  A    between atoms: C_4  and  C_5
REMARK    3  A    between atoms: N_9  and  C_10
REMARK    4  A    between atoms: C_10  and  C_11
REMARK    5  A    between atoms: C_11  and  C_12
REMARK    6  A    between atoms: C_12  and  N_13
REMARK                            x       y       z     vdW  Elec       q    Type
REMARK                         _______ _______ _______ _____ _____    ______ ____
ROOT
ATOM      1  C   UNL     1       4.365   4.143  19.037  0.00  0.00    +0.000 C 
ENDROOT
BRANCH   1   6
ATOM      2  C   UNL     1       1.873   4.333  19.197  0.00  0.00    +0.000 C 
ATOM      3  C   UNL     1       1.566   3.740  20.565  0.00  0.00    +0.000 C 
ATOM      4  C   UNL     1       1.814   2.264  20.353  0.00  0.00    +0.000 C 
ATOM      5  C   UNL     1       2.890   2.202  19.277  0.00  0.00    +0.000 C 
ATOM      6  N   UNL     1       3.056   3.555  18.708  0.00  0.00    +0.000 NA
BRANCH   2  10
ATOM      7  C   UNL     1       2.409   9.062  17.796  0.00  0.00    +0.000 C 
ATOM      8  C   UNL     1       2.256   7.789  18.522  0.00  0.00    +0.000 A 
ATOM      9  N   UNL     1       2.186   6.565  18.055  0.00  0.00    +0.000 NA
ATOM     10  C   UNL     1       2.004   5.826  19.204  0.00  0.00    +0.000 A 
ATOM     11  N   UNL     1       1.984   6.550  20.333  0.00  0.00    +0.000 NA
ATOM     12  O   UNL     1       2.148   7.861  19.879  0.00  0.00    +0.000 OA
ENDBRANCH   2  10
ENDBRANCH   1   6
BRANCH   1  13
ATOM     13  C   UNL     1       5.381   4.092  17.880  0.00  0.00    +0.000 C 
BRANCH  13  14
ATOM     14  C   UNL     1       4.824   4.638  16.563  0.00  0.00    +0.000 C 
BRANCH  14  15
ATOM     15  N   UNL     1       5.879   4.924  15.615  0.00  0.00    +0.000 N 
ATOM     16  C   UNL     1       7.026   5.649  15.869  0.00  0.00    +0.000 A 
ATOM     17  O   UNL     1       7.309   6.208  16.921  0.00  0.00    +0.000 OA
ATOM     18  O   UNL     1       7.869   5.668  14.746  0.00  0.00    +0.000 OA
ATOM     19  C   UNL     1       7.170   4.892  13.834  0.00  0.00    +0.000 A 
ATOM     20  C   UNL     1       7.592   4.586  12.556  0.00  0.00    +0.000 A 
ATOM     21  C   UNL     1       6.755   3.781  11.779  0.00  0.00    +0.000 A 
ATOM     22  C   UNL     1       5.532   3.308  12.293  0.00  0.00    +0.000 A 
ATOM     23  C   UNL     1       5.125   3.633  13.591  0.00  0.00    +0.000 A 
ATOM     24  C   UNL     1       5.971   4.429  14.334  0.00  0.00    +0.000 A 
ENDBRANCH  14  15
ENDBRANCH  13  14
ENDBRANCH   1  13
TORSDOF 5
ENDMDL
MODEL 9
REMARK VINA RESULT:      -7.0      2.266      4.132
REMARK  Name = 
REMARK  6 active torsions:
REMARK  status: ('A' for Active; 'I' for Inactive)
REMARK    1  A    between atoms: C_1  and  C_2
REMARK    2  A    between atoms: C_4  and  C_5
REMARK    3  A    between atoms: N_9  and  C_10
REMARK    4  A    between atoms: C_10  and  C_11
REMARK    5  A    between atoms: C_11  and  C_12
REMARK    6  A    between atoms: C_12  and  N_13
REMARK                            x       y       z     vdW  Elec       q    Type
REMARK                         _______ _______ _______ _____ _____    ______ ____
ROOT
ATOM      1  C   UNL     1       5.467   4.685  18.532  0.00  0.00    +0.000 C 
ENDROOT
BRANCH   1   6
ATOM      2  C   UNL     1       6.869   5.326  16.559  0.00  0.00    +0.000 C 
ATOM      3  C   UNL     1       5.841   5.800  15.541  0.00  0.00    +0.000 C 
ATOM      4  C   UNL     1       5.169   4.513  15.119  0.00  0.00    +0.000 C 
ATOM      5  C   UNL     1       5.261   3.609  16.341  0.00  0.00    +0.000 C 
ATOM      6  N   UNL     1       6.171   4.239  17.319  0.00  0.00    +0.000 NA
BRANCH   2  10
ATOM      7  C   UNL     1       8.426   9.777  18.099  0.00  0.00    +0.000 C 
ATOM      8  C   UNL     1       8.111   8.349  17.925  0.00  0.00    +0.000 A 
ATOM      9  N   UNL     1       7.503   7.742  16.932  0.00  0.00    +0.000 NA
ATOM     10  C   UNL     1       7.470   6.435  17.367  0.00  0.00    +0.000 A 
ATOM     11  N   UNL     1       8.048   6.231  18.561  0.00  0.00    +0.000 NA
ATOM     12  O   UNL     1       8.472   7.508  18.936  0.00  0.00    +0.000 OA
ENDBRANCH   2  10
ENDBRANCH   1   6
BRANCH   1  13
ATOM     13  C   UNL     1       4.560   3.607  19.157  0.00  0.00    +0.000 C 
BRANCH  13  14
ATOM     14  C   UNL     1       3.079   3.790  18.814  0.00  0.00    +0.000 C 
BRANCH  14  15
ATOM     15  N   UNL     1       2.495   4.894  19.544  0.00  0.00    +0.000 N 
ATOM     16  C   UNL     1       2.054   4.861  20.852  0.00  0.00    +0.000 A 
ATOM     17  O   UNL     1       2.042   3.881  21.586  0.00  0.00    +0.000 OA
ATOM     18  O   UNL     1       1.612   6.128  21.267  0.00  0.00    +0.000 OA
ATOM     19  C   UNL     1       1.845   6.908  20.144  0.00  0.00    +0.000 A 
ATOM     20  C   UNL     1       1.591   8.261  20.044  0.00  0.00    +0.000 A 
ATOM     21  C   UNL     1       1.897   8.884  18.832  0.00  0.00    +0.000 A 
ATOM     22  C   UNL     1       2.445   8.148  17.763  0.00  0.00    +0.000 A 
ATOM     23  C   UNL     1       2.692   6.777  17.888  0.00  0.00    +0.000 A 
ATOM     24  C   UNL     1       2.380   6.190  19.095  0.00  0.00    +0.000 A 
ENDBRANCH  14  15
ENDBRANCH  13  14
ENDBRANCH   1  13
TORSDOF 5
ENDMDL
