MODEL 1
REMARK VINA RESULT:      -7.1      0.000      0.000
REMARK  Name = 
REMARK  16 active torsions:
REMARK  status: ('A' for Active; 'I' for Inactive)
REMARK    1  A    between atoms: C_2  and  C_3
REMARK    2  A    between atoms: C_3  and  C_4
REMARK    3  A    between atoms: C_4  and  C_5
REMARK    4  A    between atoms: C_5  and  C_7
REMARK    5  A    between atoms: C_8  and  C_9
REMARK    6  A    between atoms: C_12  and  O_13
REMARK    7  A    between atoms: O_13  and  C_14
REMARK    8  A    between atoms: C_15  and  O_16
REMARK    9  A    between atoms: O_16  and  C_17
REMARK   10  A    between atoms: C_19  and  O_20
REMARK   11  A    between atoms: C_19  and  C_21
REMARK   12  A    between atoms: C_22  and  C_23
REMARK   13  A    between atoms: C_26  and  O_27
REMARK   14  A    between atoms: O_27  and  C_28
REMARK   15  A    between atoms: C_29  and  O_30
REMARK   16  A    between atoms: O_30  and  C_31
REMARK                            x       y       z     vdW  Elec       q    Type
REMARK                         _______ _______ _______ _____ _____    ______ ____
ROOT
ATOM      1  C   UNL     1       0.237  10.092  19.593  0.00  0.00    +0.000 C 
ATOM      2  C   UNL     1      -0.470  11.175  19.175  0.00  0.00    +0.000 C 
ENDROOT
BRANCH   1   3
ATOM      3  C   UNL     1       1.477   9.724  18.819  0.00  0.00    +0.000 C 
ATOM      4  O   UNL     1       2.117  10.592  18.221  0.00  0.00    +0.000 OA
BRANCH   3   5
ATOM      5  C   UNL     1       1.926   8.302  18.783  0.00  0.00    +0.000 C 
ATOM      6  C   UNL     1       2.885   7.931  17.918  0.00  0.00    +0.000 C 
BRANCH   6   7
ATOM      7  C   UNL     1       3.279   6.530  17.757  0.00  0.00    +0.000 A 
ATOM      8  C   UNL     1       2.332   5.536  17.995  0.00  0.00    +0.000 A 
ATOM      9  C   UNL     1       2.690   4.194  17.886  0.00  0.00    +0.000 A 
ATOM     10  C   UNL     1       3.994   3.816  17.540  0.00  0.00    +0.000 A 
ATOM     11  C   UNL     1       4.957   4.810  17.284  0.00  0.00    +0.000 A 
ATOM     12  C   UNL     1       4.583   6.164  17.391  0.00  0.00    +0.000 A 
BRANCH  10  13
ATOM     13  O   UNL     1       4.133   2.451  17.506  0.00  0.00    +0.000 OA
ATOM     14  C   UNL     1       3.346   1.648  18.371  0.00  0.00    +0.000 C 
ENDBRANCH  10  13
BRANCH  11  15
ATOM     15  O   UNL     1       6.222   4.406  16.952  0.00  0.00    +0.000 OA
ATOM     16  C   UNL     1       7.322   4.935  17.677  0.00  0.00    +0.000 C 
ENDBRANCH  11  15
ENDBRANCH   6   7
ENDBRANCH   3   5
ENDBRANCH   1   3
BRANCH   2  17
ATOM     17  O   UNL     1      -0.120  11.958  18.089  0.00  0.00    +0.000 OA
ATOM     18  H   UNL     1       0.502  12.653  18.398  0.00  0.00    +0.000 HD
ENDBRANCH   2  17
BRANCH   2  19
ATOM     19  C   UNL     1      -1.632  11.698  19.880  0.00  0.00    +0.000 C 
ATOM     20  C   UNL     1      -1.614  12.308  21.078  0.00  0.00    +0.000 C 
BRANCH  20  21
ATOM     21  C   UNL     1      -2.838  12.712  21.793  0.00  0.00    +0.000 A 
ATOM     22  C   UNL     1      -3.003  12.400  23.140  0.00  0.00    +0.000 A 
ATOM     23  C   UNL     1      -4.181  12.756  23.799  0.00  0.00    +0.000 A 
ATOM     24  C   UNL     1      -5.226  13.417  23.130  0.00  0.00    +0.000 A 
ATOM     25  C   UNL     1      -5.080  13.716  21.765  0.00  0.00    +0.000 A 
ATOM     26  C   UNL     1      -3.888  13.354  21.118  0.00  0.00    +0.000 A 
BRANCH  24  27
ATOM     27  O   UNL     1      -6.287  13.678  23.956  0.00  0.00    +0.000 OA
ATOM     28  C   UNL     1      -7.430  12.837  23.891  0.00  0.00    +0.000 C 
ENDBRANCH  24  27
BRANCH  25  29
ATOM     29  O   UNL     1      -6.112  14.335  21.112  0.00  0.00    +0.000 OA
ATOM     30  C   UNL     1      -6.544  13.800  19.868  0.00  0.00    +0.000 C 
ENDBRANCH  25  29
ENDBRANCH  20  21
ENDBRANCH   2  19
BRANCH   1  31
ATOM     31  C   UNL     1      -0.253   9.182  20.698  0.00  0.00    +0.000 C 
BRANCH  31  33
ATOM     32  C   UNL     1      -0.162   9.720  23.209  0.00  0.00    +0.000 C 
ATOM     33  C   UNL     1       0.399   9.346  22.050  0.00  0.00    +0.000 C 
ENDBRANCH  31  33
ENDBRANCH   1  31
TORSDOF 12
ENDMDL
MODEL 2
REMARK VINA RESULT:      -7.1      1.183      1.794
REMARK  Name = 
REMARK  16 active torsions:
REMARK  status: ('A' for Active; 'I' for Inactive)
REMARK    1  A    between atoms: C_2  and  C_3
REMARK    2  A    between atoms: C_3  and  C_4
REMARK    3  A    between atoms: C_4  and  C_5
REMARK    4  A    between atoms: C_5  and  C_7
REMARK    5  A    between atoms: C_8  and  C_9
REMARK    6  A    between atoms: C_12  and  O_13
REMARK    7  A    between atoms: O_13  and  C_14
REMARK    8  A    between atoms: C_15  and  O_16
REMARK    9  A    between atoms: O_16  and  C_17
REMARK   10  A    between atoms: C_19  and  O_20
REMARK   11  A    between atoms: C_19  and  C_21
REMARK   12  A    between atoms: C_22  and  C_23
REMARK   13  A    between atoms: C_26  and  O_27
REMARK   14  A    between atoms: O_27  and  C_28
REMARK   15  A    between atoms: C_29  and  O_30
REMARK   16  A    between atoms: O_30  and  C_31
REMARK                            x       y       z     vdW  Elec       q    Type
REMARK                         _______ _______ _______ _____ _____    ______ ____
ROOT
ATOM      1  C   UNL     1       0.259  10.467  18.685  0.00  0.00    +0.000 C 
ATOM      2  C   UNL     1       0.352  11.601  19.428  0.00  0.00    +0.000 C 
ENDROOT
BRANCH   1   3
ATOM      3  C   UNL     1       1.522   9.930  18.064  0.00  0.00    +0.000 C 
ATOM      4  O   UNL     1       2.385  10.704  17.642  0.00  0.00    +0.000 OA
BRANCH   3   5
ATOM      5  C   UNL     1       1.723   8.456  17.962  0.00  0.00    +0.000 C 
ATOM      6  C   UNL     1       2.965   7.949  18.035  0.00  0.00    +0.000 C 
BRANCH   6   7
ATOM      7  C   UNL     1       3.231   6.524  17.822  0.00  0.00    +0.000 A 
ATOM      8  C   UNL     1       2.229   5.604  18.121  0.00  0.00    +0.000 A 
ATOM      9  C   UNL     1       2.468   4.240  17.964  0.00  0.00    +0.000 A 
ATOM     10  C   UNL     1       3.706   3.767  17.509  0.00  0.00    +0.000 A 
ATOM     11  C   UNL     1       4.723   4.687  17.191  0.00  0.00    +0.000 A 
ATOM     12  C   UNL     1       4.468   6.064  17.347  0.00  0.00    +0.000 A 
BRANCH  10  13
ATOM     13  O   UNL     1       3.732   2.397  17.443  0.00  0.00    +0.000 OA
ATOM     14  C   UNL     1       3.526   1.638  18.624  0.00  0.00    +0.000 C 
ENDBRANCH  10  13
BRANCH  11  15
ATOM     15  O   UNL     1       5.921   4.193  16.751  0.00  0.00    +0.000 OA
ATOM     16  C   UNL     1       6.152   4.100  15.354  0.00  0.00    +0.000 C 
ENDBRANCH  11  15
ENDBRANCH   6   7
ENDBRANCH   3   5
ENDBRANCH   1   3
BRANCH   2  17
ATOM     17  O   UNL     1       1.532  12.288  19.649  0.00  0.00    +0.000 OA
ATOM     18  H   UNL     1       1.314  13.234  19.804  0.00  0.00    +0.000 HD
ENDBRANCH   2  17
BRANCH   2  19
ATOM     19  C   UNL     1      -0.767  12.178  20.159  0.00  0.00    +0.000 C 
ATOM     20  C   UNL     1      -1.237  11.747  21.343  0.00  0.00    +0.000 C 
BRANCH  20  21
ATOM     21  C   UNL     1      -2.446  12.301  21.977  0.00  0.00    +0.000 A 
ATOM     22  C   UNL     1      -2.668  12.128  23.342  0.00  0.00    +0.000 A 
ATOM     23  C   UNL     1      -3.835  12.625  23.927  0.00  0.00    +0.000 A 
ATOM     24  C   UNL     1      -4.810  13.293  23.166  0.00  0.00    +0.000 A 
ATOM     25  C   UNL     1      -4.608  13.452  21.786  0.00  0.00    +0.000 A 
ATOM     26  C   UNL     1      -3.429  12.949  21.213  0.00  0.00    +0.000 A 
BRANCH  24  27
ATOM     27  O   UNL     1      -5.871  13.704  23.930  0.00  0.00    +0.000 OA
ATOM     28  C   UNL     1      -7.025  12.878  24.003  0.00  0.00    +0.000 C 
ENDBRANCH  24  27
BRANCH  25  29
ATOM     29  O   UNL     1      -5.574  14.079  21.046  0.00  0.00    +0.000 OA
ATOM     30  C   UNL     1      -6.510  13.278  20.335  0.00  0.00    +0.000 C 
ENDBRANCH  25  29
ENDBRANCH  20  21
ENDBRANCH   2  19
BRANCH   1  31
ATOM     31  C   UNL     1      -1.070   9.823  18.352  0.00  0.00    +0.000 C 
BRANCH  31  33
ATOM     32  C   UNL     1      -2.998  11.136  17.276  0.00  0.00    +0.000 C 
ATOM     33  C   UNL     1      -1.856  10.436  17.219  0.00  0.00    +0.000 C 
ENDBRANCH  31  33
ENDBRANCH   1  31
TORSDOF 12
ENDMDL
MODEL 3
REMARK VINA RESULT:      -7.1      1.653      2.421
REMARK  Name = 
REMARK  16 active torsions:
REMARK  status: ('A' for Active; 'I' for Inactive)
REMARK    1  A    between atoms: C_2  and  C_3
REMARK    2  A    between atoms: C_3  and  C_4
REMARK    3  A    between atoms: C_4  and  C_5
REMARK    4  A    between atoms: C_5  and  C_7
REMARK    5  A    between atoms: C_8  and  C_9
REMARK    6  A    between atoms: C_12  and  O_13
REMARK    7  A    between atoms: O_13  and  C_14
REMARK    8  A    between atoms: C_15  and  O_16
REMARK    9  A    between atoms: O_16  and  C_17
REMARK   10  A    between atoms: C_19  and  O_20
REMARK   11  A    between atoms: C_19  and  C_21
REMARK   12  A    between atoms: C_22  and  C_23
REMARK   13  A    between atoms: C_26  and  O_27
REMARK   14  A    between atoms: O_27  and  C_28
REMARK   15  A    between atoms: C_29  and  O_30
REMARK   16  A    between atoms: O_30  and  C_31
REMARK                            x       y       z     vdW  Elec       q    Type
REMARK                         _______ _______ _______ _____ _____    ______ ____
ROOT
ATOM      1  C   UNL     1       0.551  10.396  19.062  0.00  0.00    +0.000 C 
ATOM      2  C   UNL     1       0.827  11.637  19.542  0.00  0.00    +0.000 C 
ENDROOT
BRANCH   1   3
ATOM      3  C   UNL     1       1.617   9.706  18.250  0.00  0.00    +0.000 C 
ATOM      4  O   UNL     1       2.092  10.256  17.253  0.00  0.00    +0.000 OA
BRANCH   3   5
ATOM      5  C   UNL     1       2.093   8.353  18.659  0.00  0.00    +0.000 C 
ATOM      6  C   UNL     1       2.987   7.705  17.893  0.00  0.00    +0.000 C 
BRANCH   6   7
ATOM      7  C   UNL     1       3.397   6.329  18.183  0.00  0.00    +0.000 A 
ATOM      8  C   UNL     1       2.413   5.367  18.396  0.00  0.00    +0.000 A 
ATOM      9  C   UNL     1       2.776   4.059  18.712  0.00  0.00    +0.000 A 
ATOM     10  C   UNL     1       4.122   3.685  18.822  0.00  0.00    +0.000 A 
ATOM     11  C   UNL     1       5.127   4.644  18.596  0.00  0.00    +0.000 A 
ATOM     12  C   UNL     1       4.748   5.962  18.271  0.00  0.00    +0.000 A 
BRANCH  10  13
ATOM     13  O   UNL     1       4.253   2.360  19.155  0.00  0.00    +0.000 OA
ATOM     14  C   UNL     1       3.577   1.378  18.387  0.00  0.00    +0.000 C 
ENDBRANCH  10  13
BRANCH  11  15
ATOM     15  O   UNL     1       6.431   4.247  18.714  0.00  0.00    +0.000 OA
ATOM     16  C   UNL     1       7.352   4.612  17.697  0.00  0.00    +0.000 C 
ENDBRANCH  11  15
ENDBRANCH   6   7
ENDBRANCH   3   5
ENDBRANCH   1   3
BRANCH   2  17
ATOM     17  O   UNL     1       2.023  12.301  19.334  0.00  0.00    +0.000 OA
ATOM     18  H   UNL     1       2.635  11.693  18.862  0.00  0.00    +0.000 HD
ENDBRANCH   2  17
BRANCH   2  19
ATOM     19  C   UNL     1      -0.070  12.380  20.416  0.00  0.00    +0.000 C 
ATOM     20  C   UNL     1      -0.220  12.183  21.738  0.00  0.00    +0.000 C 
BRANCH  20  21
ATOM     21  C   UNL     1      -1.230  12.889  22.546  0.00  0.00    +0.000 A 
ATOM     22  C   UNL     1      -0.895  14.056  23.230  0.00  0.00    +0.000 A 
ATOM     23  C   UNL     1      -1.849  14.698  24.022  0.00  0.00    +0.000 A 
ATOM     24  C   UNL     1      -3.152  14.187  24.161  0.00  0.00    +0.000 A 
ATOM     25  C   UNL     1      -3.494  12.999  23.495  0.00  0.00    +0.000 A 
ATOM     26  C   UNL     1      -2.524  12.367  22.700  0.00  0.00    +0.000 A 
BRANCH  24  27
ATOM     27  O   UNL     1      -3.930  14.967  24.975  0.00  0.00    +0.000 OA
ATOM     28  C   UNL     1      -3.755  16.377  24.947  0.00  0.00    +0.000 C 
ENDBRANCH  24  27
BRANCH  25  29
ATOM     29  O   UNL     1      -4.755  12.492  23.655  0.00  0.00    +0.000 OA
ATOM     30  C   UNL     1      -5.773  12.909  22.754  0.00  0.00    +0.000 C 
ENDBRANCH  25  29
ENDBRANCH  20  21
ENDBRANCH   2  19
BRANCH   1  31
ATOM     31  C   UNL     1      -0.817   9.762  19.194  0.00  0.00    +0.000 C 
BRANCH  31  33
ATOM     32  C   UNL     1      -2.010   9.999  16.931  0.00  0.00    +0.000 C 
ATOM     33  C   UNL     1      -1.883  10.247  18.243  0.00  0.00    +0.000 C 
ENDBRANCH  31  33
ENDBRANCH   1  31
TORSDOF 12
ENDMDL
MODEL 4
REMARK VINA RESULT:      -7.0      2.795     10.781
REMARK  Name = 
REMARK  16 active torsions:
REMARK  status: ('A' for Active; 'I' for Inactive)
REMARK    1  A    between atoms: C_2  and  C_3
REMARK    2  A    between atoms: C_3  and  C_4
REMARK    3  A    between atoms: C_4  and  C_5
REMARK    4  A    between atoms: C_5  and  C_7
REMARK    5  A    between atoms: C_8  and  C_9
REMARK    6  A    between atoms: C_12  and  O_13
REMARK    7  A    between atoms: O_13  and  C_14
REMARK    8  A    between atoms: C_15  and  O_16
REMARK    9  A    between atoms: O_16  and  C_17
REMARK   10  A    between atoms: C_19  and  O_20
REMARK   11  A    between atoms: C_19  and  C_21
REMARK   12  A    between atoms: C_22  and  C_23
REMARK   13  A    between atoms: C_26  and  O_27
REMARK   14  A    between atoms: O_27  and  C_28
REMARK   15  A    between atoms: C_29  and  O_30
REMARK   16  A    between atoms: O_30  and  C_31
REMARK                            x       y       z     vdW  Elec       q    Type
REMARK                         _______ _______ _______ _____ _____    ______ ____
ROOT
ATOM      1  C   UNL     1       1.398   9.631  19.523  0.00  0.00    +0.000 C 
ATOM      2  C   UNL     1       2.015   9.597  18.312  0.00  0.00    +0.000 C 
ENDROOT
BRANCH   1   3
ATOM      3  C   UNL     1       0.833  10.949  19.986  0.00  0.00    +0.000 C 
ATOM      4  O   UNL     1       1.407  11.596  20.866  0.00  0.00    +0.000 OA
BRANCH   3   5
ATOM      5  C   UNL     1      -0.423  11.468  19.373  0.00  0.00    +0.000 C 
ATOM      6  C   UNL     1      -1.472  10.643  19.210  0.00  0.00    +0.000 C 
BRANCH   6   7
ATOM      7  C   UNL     1      -2.685  11.068  18.507  0.00  0.00    +0.000 A 
ATOM      8  C   UNL     1      -3.628  11.825  19.197  0.00  0.00    +0.000 A 
ATOM      9  C   UNL     1      -4.809  12.210  18.565  0.00  0.00    +0.000 A 
ATOM     10  C   UNL     1      -5.072  11.849  17.237  0.00  0.00    +0.000 A 
ATOM     11  C   UNL     1      -4.121  11.094  16.524  0.00  0.00    +0.000 A 
ATOM     12  C   UNL     1      -2.928  10.716  17.172  0.00  0.00    +0.000 A 
BRANCH  10  13
ATOM     13  O   UNL     1      -6.293  12.315  16.818  0.00  0.00    +0.000 OA
ATOM     14  C   UNL     1      -7.283  12.641  17.780  0.00  0.00    +0.000 C 
ENDBRANCH  10  13
BRANCH  11  15
ATOM     15  O   UNL     1      -4.411  10.755  15.230  0.00  0.00    +0.000 OA
ATOM     16  C   UNL     1      -3.391  10.177  14.429  0.00  0.00    +0.000 C 
ENDBRANCH  11  15
ENDBRANCH   6   7
ENDBRANCH   3   5
ENDBRANCH   1   3
BRANCH   2  17
ATOM     17  O   UNL     1       2.153  10.695  17.482  0.00  0.00    +0.000 OA
ATOM     18  H   UNL     1       3.055  10.676  17.093  0.00  0.00    +0.000 HD
ENDBRANCH   2  17
BRANCH   2  19
ATOM     19  C   UNL     1       2.523   8.377  17.702  0.00  0.00    +0.000 C 
ATOM     20  C   UNL     1       3.651   7.735  18.052  0.00  0.00    +0.000 C 
BRANCH  20  21
ATOM     21  C   UNL     1       4.172   6.568  17.319  0.00  0.00    +0.000 A 
ATOM     22  C   UNL     1       5.016   6.743  16.224  0.00  0.00    +0.000 A 
ATOM     23  C   UNL     1       5.476   5.632  15.514  0.00  0.00    +0.000 A 
ATOM     24  C   UNL     1       5.097   4.325  15.869  0.00  0.00    +0.000 A 
ATOM     25  C   UNL     1       4.228   4.138  16.955  0.00  0.00    +0.000 A 
ATOM     26  C   UNL     1       3.776   5.265  17.661  0.00  0.00    +0.000 A 
BRANCH  24  27
ATOM     27  O   UNL     1       5.661   3.383  15.049  0.00  0.00    +0.000 OA
ATOM     28  C   UNL     1       6.296   3.806  13.852  0.00  0.00    +0.000 C 
ENDBRANCH  24  27
BRANCH  25  29
ATOM     29  O   UNL     1       3.841   2.866  17.278  0.00  0.00    +0.000 OA
ATOM     30  C   UNL     1       2.581   2.681  17.912  0.00  0.00    +0.000 C 
ENDBRANCH  25  29
ENDBRANCH  20  21
ENDBRANCH   2  19
BRANCH   1  31
ATOM     31  C   UNL     1       1.388   8.443  20.461  0.00  0.00    +0.000 C 
BRANCH  31  33
ATOM     32  C   UNL     1      -0.459   8.600  22.239  0.00  0.00    +0.000 C 
ATOM     33  C   UNL     1       0.819   8.673  21.839  0.00  0.00    +0.000 C 
ENDBRANCH  31  33
ENDBRANCH   1  31
TORSDOF 12
ENDMDL
MODEL 5
REMARK VINA RESULT:      -7.0      1.676     11.020
REMARK  Name = 
REMARK  16 active torsions:
REMARK  status: ('A' for Active; 'I' for Inactive)
REMARK    1  A    between atoms: C_2  and  C_3
REMARK    2  A    between atoms: C_3  and  C_4
REMARK    3  A    between atoms: C_4  and  C_5
REMARK    4  A    between atoms: C_5  and  C_7
REMARK    5  A    between atoms: C_8  and  C_9
REMARK    6  A    between atoms: C_12  and  O_13
REMARK    7  A    between atoms: O_13  and  C_14
REMARK    8  A    between atoms: C_15  and  O_16
REMARK    9  A    between atoms: O_16  and  C_17
REMARK   10  A    between atoms: C_19  and  O_20
REMARK   11  A    between atoms: C_19  and  C_21
REMARK   12  A    between atoms: C_22  and  C_23
REMARK   13  A    between atoms: C_26  and  O_27
REMARK   14  A    between atoms: O_27  and  C_28
REMARK   15  A    between atoms: C_29  and  O_30
REMARK   16  A    between atoms: O_30  and  C_31
REMARK                            x       y       z     vdW  Elec       q    Type
REMARK                         _______ _______ _______ _____ _____    ______ ____
ROOT
ATOM      1  C   UNL     1       0.646  10.586  20.496  0.00  0.00    +0.000 C 
ATOM      2  C   UNL     1       0.860   9.532  21.328  0.00  0.00    +0.000 C 
ENDROOT
BRANCH   1   3
ATOM      3  C   UNL     1       0.654  11.967  21.098  0.00  0.00    +0.000 C 
ATOM      4  O   UNL     1       1.716  12.582  21.228  0.00  0.00    +0.000 OA
BRANCH   3   5
ATOM      5  C   UNL     1      -0.630  12.587  21.535  0.00  0.00    +0.000 C 
ATOM      6  C   UNL     1      -1.590  11.817  22.074  0.00  0.00    +0.000 C 
BRANCH   6   7
ATOM      7  C   UNL     1      -2.911  12.352  22.410  0.00  0.00    +0.000 A 
ATOM      8  C   UNL     1      -3.301  12.384  23.747  0.00  0.00    +0.000 A 
ATOM      9  C   UNL     1      -4.567  12.853  24.091  0.00  0.00    +0.000 A 
ATOM     10  C   UNL     1      -5.468  13.297  23.113  0.00  0.00    +0.000 A 
ATOM     11  C   UNL     1      -5.081  13.283  21.760  0.00  0.00    +0.000 A 
ATOM     12  C   UNL     1      -3.796  12.812  21.424  0.00  0.00    +0.000 A 
BRANCH  10  13
ATOM     13  O   UNL     1      -6.658  13.699  23.666  0.00  0.00    +0.000 OA
ATOM     14  C   UNL     1      -7.733  12.778  23.750  0.00  0.00    +0.000 C 
ENDBRANCH  10  13
BRANCH  11  15
ATOM     15  O   UNL     1      -5.985  13.721  20.830  0.00  0.00    +0.000 OA
ATOM     16  C   UNL     1      -6.709  12.761  20.075  0.00  0.00    +0.000 C 
ENDBRANCH  11  15
ENDBRANCH   6   7
ENDBRANCH   3   5
ENDBRANCH   1   3
BRANCH   2  17
ATOM     17  O   UNL     1       1.088   9.651  22.687  0.00  0.00    +0.000 OA
ATOM     18  H   UNL     1       0.719   8.857  23.132  0.00  0.00    +0.000 HD
ENDBRANCH   2  17
BRANCH   2  19
ATOM     19  C   UNL     1       0.970   8.155  20.869  0.00  0.00    +0.000 C 
ATOM     20  C   UNL     1       2.088   7.569  20.404  0.00  0.00    +0.000 C 
BRANCH  20  21
ATOM     21  C   UNL     1       2.108   6.206  19.846  0.00  0.00    +0.000 A 
ATOM     22  C   UNL     1       1.545   5.146  20.554  0.00  0.00    +0.000 A 
ATOM     23  C   UNL     1       1.601   3.851  20.033  0.00  0.00    +0.000 A 
ATOM     24  C   UNL     1       2.228   3.581  18.804  0.00  0.00    +0.000 A 
ATOM     25  C   UNL     1       2.820   4.638  18.093  0.00  0.00    +0.000 A 
ATOM     26  C   UNL     1       2.752   5.934  18.629  0.00  0.00    +0.000 A 
BRANCH  24  27
ATOM     27  O   UNL     1       2.168   2.253  18.473  0.00  0.00    +0.000 OA
ATOM     28  C   UNL     1       3.344   1.464  18.584  0.00  0.00    +0.000 C 
ENDBRANCH  24  27
BRANCH  25  29
ATOM     29  O   UNL     1       3.452   4.364  16.911  0.00  0.00    +0.000 OA
ATOM     30  C   UNL     1       4.874   4.382  16.883  0.00  0.00    +0.000 C 
ENDBRANCH  25  29
ENDBRANCH  20  21
ENDBRANCH   2  19
BRANCH   1  31
ATOM     31  C   UNL     1       0.263  10.406  19.043  0.00  0.00    +0.000 C 
BRANCH  31  33
ATOM     32  C   UNL     1      -2.101  10.118  18.079  0.00  0.00    +0.000 C 
ATOM     33  C   UNL     1      -1.127  10.842  18.649  0.00  0.00    +0.000 C 
ENDBRANCH  31  33
ENDBRANCH   1  31
TORSDOF 12
ENDMDL
MODEL 6
REMARK VINA RESULT:      -7.0      1.744     11.347
REMARK  Name = 
REMARK  16 active torsions:
REMARK  status: ('A' for Active; 'I' for Inactive)
REMARK    1  A    between atoms: C_2  and  C_3
REMARK    2  A    between atoms: C_3  and  C_4
REMARK    3  A    between atoms: C_4  and  C_5
REMARK    4  A    between atoms: C_5  and  C_7
REMARK    5  A    between atoms: C_8  and  C_9
REMARK    6  A    between atoms: C_12  and  O_13
REMARK    7  A    between atoms: O_13  and  C_14
REMARK    8  A    between atoms: C_15  and  O_16
REMARK    9  A    between atoms: O_16  and  C_17
REMARK   10  A    between atoms: C_19  and  O_20
REMARK   11  A    between atoms: C_19  and  C_21
REMARK   12  A    between atoms: C_22  and  C_23
REMARK   13  A    between atoms: C_26  and  O_27
REMARK   14  A    between atoms: O_27  and  C_28
REMARK   15  A    between atoms: C_29  and  O_30
REMARK   16  A    between atoms: O_30  and  C_31
REMARK                            x       y       z     vdW  Elec       q    Type
REMARK                         _______ _______ _______ _____ _____    ______ ____
ROOT
ATOM      1  C   UNL     1      -0.753  10.884  18.238  0.00  0.00    +0.000 C 
ATOM      2  C   UNL     1       0.551  10.611  18.506  0.00  0.00    +0.000 C 
ENDROOT
BRANCH   1   3
ATOM      3  C   UNL     1      -1.289  12.228  18.659  0.00  0.00    +0.000 C 
ATOM      4  O   UNL     1      -0.644  13.255  18.426  0.00  0.00    +0.000 OA
BRANCH   3   5
ATOM      5  C   UNL     1      -2.603  12.311  19.357  0.00  0.00    +0.000 C 
ATOM      6  C   UNL     1      -2.663  12.816  20.601  0.00  0.00    +0.000 C 
BRANCH   6   7
ATOM      7  C   UNL     1      -3.905  12.811  21.377  0.00  0.00    +0.000 A 
ATOM      8  C   UNL     1      -3.853  13.148  22.728  0.00  0.00    +0.000 A 
ATOM      9  C   UNL     1      -5.014  13.114  23.498  0.00  0.00    +0.000 A 
ATOM     10  C   UNL     1      -6.245  12.744  22.941  0.00  0.00    +0.000 A 
ATOM     11  C   UNL     1      -6.314  12.414  21.574  0.00  0.00    +0.000 A 
ATOM     12  C   UNL     1      -5.135  12.457  20.803  0.00  0.00    +0.000 A 
BRANCH  10  13
ATOM     13  O   UNL     1      -7.250  12.763  23.876  0.00  0.00    +0.000 OA
ATOM     14  C   UNL     1      -7.717  14.006  24.373  0.00  0.00    +0.000 C 
ENDBRANCH  10  13
BRANCH  11  15
ATOM     15  O   UNL     1      -7.532  12.054  21.062  0.00  0.00    +0.000 OA
ATOM     16  C   UNL     1      -7.590  11.000  20.113  0.00  0.00    +0.000 C 
ENDBRANCH  11  15
ENDBRANCH   6   7
ENDBRANCH   3   5
ENDBRANCH   1   3
BRANCH   2  17
ATOM     17  O   UNL     1       1.413  11.489  19.136  0.00  0.00    +0.000 OA
ATOM     18  H   UNL     1       0.880  12.101  19.690  0.00  0.00    +0.000 HD
ENDBRANCH   2  17
BRANCH   2  19
ATOM     19  C   UNL     1       1.222   9.393  18.075  0.00  0.00    +0.000 C 
ATOM     20  C   UNL     1       1.829   8.504  18.882  0.00  0.00    +0.000 C 
BRANCH  20  21
ATOM     21  C   UNL     1       2.591   7.349  18.376  0.00  0.00    +0.000 A 
ATOM     22  C   UNL     1       3.677   7.540  17.524  0.00  0.00    +0.000 A 
ATOM     23  C   UNL     1       4.372   6.438  17.021  0.00  0.00    +0.000 A 
ATOM     24  C   UNL     1       3.993   5.123  17.344  0.00  0.00    +0.000 A 
ATOM     25  C   UNL     1       2.886   4.917  18.182  0.00  0.00    +0.000 A 
ATOM     26  C   UNL     1       2.200   6.036  18.682  0.00  0.00    +0.000 A 
BRANCH  24  27
ATOM     27  O   UNL     1       4.805   4.191  16.752  0.00  0.00    +0.000 OA
ATOM     28  C   UNL     1       5.832   4.632  15.875  0.00  0.00    +0.000 C 
ENDBRANCH  24  27
BRANCH  25  29
ATOM     29  O   UNL     1       2.506   3.634  18.470  0.00  0.00    +0.000 OA
ATOM     30  C   UNL     1       3.049   3.010  19.626  0.00  0.00    +0.000 C 
ENDBRANCH  25  29
ENDBRANCH  20  21
ENDBRANCH   2  19
BRANCH   1  31
ATOM     31  C   UNL     1      -1.699   9.847  17.672  0.00  0.00    +0.000 C 
BRANCH  31  33
ATOM     32  C   UNL     1      -2.661  10.202  15.316  0.00  0.00    +0.000 C 
ATOM     33  C   UNL     1      -2.701  10.328  16.651  0.00  0.00    +0.000 C 
ENDBRANCH  31  33
ENDBRANCH   1  31
TORSDOF 12
ENDMDL
MODEL 7
REMARK VINA RESULT:      -7.0      1.425     11.144
REMARK  Name = 
REMARK  16 active torsions:
REMARK  status: ('A' for Active; 'I' for Inactive)
REMARK    1  A    between atoms: C_2  and  C_3
REMARK    2  A    between atoms: C_3  and  C_4
REMARK    3  A    between atoms: C_4  and  C_5
REMARK    4  A    between atoms: C_5  and  C_7
REMARK    5  A    between atoms: C_8  and  C_9
REMARK    6  A    between atoms: C_12  and  O_13
REMARK    7  A    between atoms: O_13  and  C_14
REMARK    8  A    between atoms: C_15  and  O_16
REMARK    9  A    between atoms: O_16  and  C_17
REMARK   10  A    between atoms: C_19  and  O_20
REMARK   11  A    between atoms: C_19  and  C_21
REMARK   12  A    between atoms: C_22  and  C_23
REMARK   13  A    between atoms: C_26  and  O_27
REMARK   14  A    between atoms: O_27  and  C_28
REMARK   15  A    between atoms: C_29  and  O_30
REMARK   16  A    between atoms: O_30  and  C_31
REMARK                            x       y       z     vdW  Elec       q    Type
REMARK                         _______ _______ _______ _____ _____    ______ ____
ROOT
ATOM      1  C   UNL     1       0.625  10.527  19.917  0.00  0.00    +0.000 C 
ATOM      2  C   UNL     1       1.073   9.698  18.938  0.00  0.00    +0.000 C 
ENDROOT
BRANCH   1   3
ATOM      3  C   UNL     1      -0.098  11.781  19.498  0.00  0.00    +0.000 C 
ATOM      4  O   UNL     1       0.450  12.592  18.746  0.00  0.00    +0.000 OA
BRANCH   3   5
ATOM      5  C   UNL     1      -1.480  12.035  19.996  0.00  0.00    +0.000 C 
ATOM      6  C   UNL     1      -1.683  12.961  20.948  0.00  0.00    +0.000 C 
BRANCH   6   7
ATOM      7  C   UNL     1      -2.999  13.167  21.557  0.00  0.00    +0.000 A 
ATOM      8  C   UNL     1      -3.209  12.729  22.862  0.00  0.00    +0.000 A 
ATOM      9  C   UNL     1      -4.463  12.877  23.453  0.00  0.00    +0.000 A 
ATOM     10  C   UNL     1      -5.529  13.462  22.756  0.00  0.00    +0.000 A 
ATOM     11  C   UNL     1      -5.326  13.921  21.440  0.00  0.00    +0.000 A 
ATOM     12  C   UNL     1      -4.053  13.771  20.856  0.00  0.00    +0.000 A 
BRANCH  10  13
ATOM     13  O   UNL     1      -6.672  13.495  23.514  0.00  0.00    +0.000 OA
ATOM     14  C   UNL     1      -7.562  12.391  23.482  0.00  0.00    +0.000 C 
ENDBRANCH  10  13
BRANCH  11  15
ATOM     15  O   UNL     1      -6.389  14.485  20.787  0.00  0.00    +0.000 OA
ATOM     16  C   UNL     1      -6.575  15.890  20.870  0.00  0.00    +0.000 C 
ENDBRANCH  11  15
ENDBRANCH   6   7
ENDBRANCH   3   5
ENDBRANCH   1   3
BRANCH   2  17
ATOM     17  O   UNL     1       0.904   9.932  17.586  0.00  0.00    +0.000 OA
ATOM     18  H   UNL     1       0.101   9.450  17.288  0.00  0.00    +0.000 HD
ENDBRANCH   2  17
BRANCH   2  19
ATOM     19  C   UNL     1       1.705   8.412  19.199  0.00  0.00    +0.000 C 
ATOM     20  C   UNL     1       2.242   7.599  18.273  0.00  0.00    +0.000 C 
BRANCH  20  21
ATOM     21  C   UNL     1       2.763   6.257  18.587  0.00  0.00    +0.000 A 
ATOM     22  C   UNL     1       3.557   5.575  17.666  0.00  0.00    +0.000 A 
ATOM     23  C   UNL     1       4.016   4.289  17.959  0.00  0.00    +0.000 A 
ATOM     24  C   UNL     1       3.685   3.648  19.166  0.00  0.00    +0.000 A 
ATOM     25  C   UNL     1       2.866   4.316  20.090  0.00  0.00    +0.000 A 
ATOM     26  C   UNL     1       2.415   5.610  19.783  0.00  0.00    +0.000 A 
BRANCH  24  27
ATOM     27  O   UNL     1       4.239   2.398  19.256  0.00  0.00    +0.000 OA
ATOM     28  C   UNL     1       3.675   1.341  18.493  0.00  0.00    +0.000 C 
ENDBRANCH  24  27
BRANCH  25  29
ATOM     29  O   UNL     1       2.525   3.676  21.251  0.00  0.00    +0.000 OA
ATOM     30  C   UNL     1       1.352   2.872  21.263  0.00  0.00    +0.000 C 
ENDBRANCH  25  29
ENDBRANCH  20  21
ENDBRANCH   2  19
BRANCH   1  31
ATOM     31  C   UNL     1       0.951  10.306  21.379  0.00  0.00    +0.000 C 
BRANCH  31  33
ATOM     32  C   UNL     1      -0.834  10.016  23.204  0.00  0.00    +0.000 C 
ATOM     33  C   UNL     1      -0.075   9.560  22.197  0.00  0.00    +0.000 C 
ENDBRANCH  31  33
ENDBRANCH   1  31
TORSDOF 12
ENDMDL
MODEL 8
REMARK VINA RESULT:      -6.9      1.482      2.529
REMARK  Name = 
REMARK  16 active torsions:
REMARK  status: ('A' for Active; 'I' for Inactive)
REMARK    1  A    between atoms: C_2  and  C_3
REMARK    2  A    between atoms: C_3  and  C_4
REMARK    3  A    between atoms: C_4  and  C_5
REMARK    4  A    between atoms: C_5  and  C_7
REMARK    5  A    between atoms: C_8  and  C_9
REMARK    6  A    between atoms: C_12  and  O_13
REMARK    7  A    between atoms: O_13  and  C_14
REMARK    8  A    between atoms: C_15  and  O_16
REMARK    9  A    between atoms: O_16  and  C_17
REMARK   10  A    between atoms: C_19  and  O_20
REMARK   11  A    between atoms: C_19  and  C_21
REMARK   12  A    between atoms: C_22  and  C_23
REMARK   13  A    between atoms: C_26  and  O_27
REMARK   14  A    between atoms: O_27  and  C_28
REMARK   15  A    between atoms: C_29  and  O_30
REMARK   16  A    between atoms: O_30  and  C_31
REMARK                            x       y       z     vdW  Elec       q    Type
REMARK                         _______ _______ _______ _____ _____    ______ ____
ROOT
ATOM      1  C   UNL     1       0.375  10.374  18.958  0.00  0.00    +0.000 C 
ATOM      2  C   UNL     1      -0.785  10.389  18.250  0.00  0.00    +0.000 C 
ENDROOT
BRANCH   1   3
ATOM      3  C   UNL     1       1.602   9.822  18.280  0.00  0.00    +0.000 C 
ATOM      4  O   UNL     1       2.186  10.482  17.416  0.00  0.00    +0.000 OA
BRANCH   3   5
ATOM      5  C   UNL     1       2.108   8.471  18.660  0.00  0.00    +0.000 C 
ATOM      6  C   UNL     1       2.867   7.779  17.794  0.00  0.00    +0.000 C 
BRANCH   6   7
ATOM      7  C   UNL     1       3.290   6.404  18.066  0.00  0.00    +0.000 A 
ATOM      8  C   UNL     1       2.316   5.419  18.208  0.00  0.00    +0.000 A 
ATOM      9  C   UNL     1       2.688   4.109  18.506  0.00  0.00    +0.000 A 
ATOM     10  C   UNL     1       4.034   3.756  18.669  0.00  0.00    +0.000 A 
ATOM     11  C   UNL     1       5.030   4.739  18.515  0.00  0.00    +0.000 A 
ATOM     12  C   UNL     1       4.642   6.059  18.208  0.00  0.00    +0.000 A 
BRANCH  10  13
ATOM     13  O   UNL     1       4.175   2.426  18.972  0.00  0.00    +0.000 OA
ATOM     14  C   UNL     1       4.372   2.036  20.322  0.00  0.00    +0.000 C 
ENDBRANCH  10  13
BRANCH  11  15
ATOM     15  O   UNL     1       6.335   4.362  18.684  0.00  0.00    +0.000 OA
ATOM     16  C   UNL     1       7.286   4.727  17.694  0.00  0.00    +0.000 C 
ENDBRANCH  11  15
ENDBRANCH   6   7
ENDBRANCH   3   5
ENDBRANCH   1   3
BRANCH   2  17
ATOM     17  O   UNL     1      -0.907   9.933  16.950  0.00  0.00    +0.000 OA
ATOM     18  H   UNL     1      -0.108   9.402  16.734  0.00  0.00    +0.000 HD
ENDBRANCH   2  17
BRANCH   2  19
ATOM     19  C   UNL     1      -2.022  10.977  18.746  0.00  0.00    +0.000 C 
ATOM     20  C   UNL     1      -3.156  11.130  18.039  0.00  0.00    +0.000 C 
BRANCH  20  21
ATOM     21  C   UNL     1      -4.339  11.837  18.562  0.00  0.00    +0.000 A 
ATOM     22  C   UNL     1      -5.497  11.937  17.794  0.00  0.00    +0.000 A 
ATOM     23  C   UNL     1      -6.600  12.640  18.283  0.00  0.00    +0.000 A 
ATOM     24  C   UNL     1      -6.570  13.270  19.540  0.00  0.00    +0.000 A 
ATOM     25  C   UNL     1      -5.400  13.197  20.312  0.00  0.00    +0.000 A 
ATOM     26  C   UNL     1      -4.300  12.484  19.807  0.00  0.00    +0.000 A 
BRANCH  24  27
ATOM     27  O   UNL     1      -7.752  13.900  19.831  0.00  0.00    +0.000 OA
ATOM     28  C   UNL     1      -7.916  15.260  19.456  0.00  0.00    +0.000 C 
ENDBRANCH  24  27
BRANCH  25  29
ATOM     29  O   UNL     1      -5.367  13.836  21.522  0.00  0.00    +0.000 OA
ATOM     30  C   UNL     1      -5.238  13.050  22.700  0.00  0.00    +0.000 C 
ENDBRANCH  25  29
ENDBRANCH  20  21
ENDBRANCH   2  19
BRANCH   1  31
ATOM     31  C   UNL     1       0.436  10.753  20.422  0.00  0.00    +0.000 C 
BRANCH  31  33
ATOM     32  C   UNL     1       0.507   9.087  22.376  0.00  0.00    +0.000 C 
ATOM     33  C   UNL     1      -0.129   9.757  21.404  0.00  0.00    +0.000 C 
ENDBRANCH  31  33
ENDBRANCH   1  31
TORSDOF 12
ENDMDL
MODEL 9
REMARK VINA RESULT:      -6.9      1.953     11.294
REMARK  Name = 
REMARK  16 active torsions:
REMARK  status: ('A' for Active; 'I' for Inactive)
REMARK    1  A    between atoms: C_2  and  C_3
REMARK    2  A    between atoms: C_3  and  C_4
REMARK    3  A    between atoms: C_4  and  C_5
REMARK    4  A    between atoms: C_5  and  C_7
REMARK    5  A    between atoms: C_8  and  C_9
REMARK    6  A    between atoms: C_12  and  O_13
REMARK    7  A    between atoms: O_13  and  C_14
REMARK    8  A    between atoms: C_15  and  O_16
REMARK    9  A    between atoms: O_16  and  C_17
REMARK   10  A    between atoms: C_19  and  O_20
REMARK   11  A    between atoms: C_19  and  C_21
REMARK   12  A    between atoms: C_22  and  C_23
REMARK   13  A    between atoms: C_26  and  O_27
REMARK   14  A    between atoms: O_27  and  C_28
REMARK   15  A    between atoms: C_29  and  O_30
REMARK   16  A    between atoms: O_30  and  C_31
REMARK                            x       y       z     vdW  Elec       q    Type
REMARK                         _______ _______ _______ _____ _____    ______ ____
ROOT
ATOM      1  C   UNL     1       0.547  10.147  20.543  0.00  0.00    +0.000 C 
ATOM      2  C   UNL     1       1.102   9.213  21.360  0.00  0.00    +0.000 C 
ENDROOT
BRANCH   1   3
ATOM      3  C   UNL     1       0.028  11.412  21.177  0.00  0.00    +0.000 C 
ATOM      4  O   UNL     1       0.813  12.233  21.658  0.00  0.00    +0.000 OA
BRANCH   3   5
ATOM      5  C   UNL     1      -1.441  11.666  21.218  0.00  0.00    +0.000 C 
ATOM      6  C   UNL     1      -1.917  12.699  21.934  0.00  0.00    +0.000 C 
BRANCH   6   7
ATOM      7  C   UNL     1      -3.354  12.922  22.105  0.00  0.00    +0.000 A 
ATOM      8  C   UNL     1      -3.841  13.206  23.379  0.00  0.00    +0.000 A 
ATOM      9  C   UNL     1      -5.208  13.385  23.577  0.00  0.00    +0.000 A 
ATOM     10  C   UNL     1      -6.115  13.285  22.514  0.00  0.00    +0.000 A 
ATOM     11  C   UNL     1      -5.636  13.011  21.219  0.00  0.00    +0.000 A 
ATOM     12  C   UNL     1      -4.250  12.838  21.029  0.00  0.00    +0.000 A 
BRANCH  10  13
ATOM     13  O   UNL     1      -7.408  13.480  22.931  0.00  0.00    +0.000 OA
ATOM     14  C   UNL     1      -7.700  13.483  24.319  0.00  0.00    +0.000 C 
ENDBRANCH  10  13
BRANCH  11  15
ATOM     15  O   UNL     1      -6.548  12.917  20.203  0.00  0.00    +0.000 OA
ATOM     16  C   UNL     1      -6.479  11.806  19.322  0.00  0.00    +0.000 C 
ENDBRANCH  11  15
ENDBRANCH   6   7
ENDBRANCH   3   5
ENDBRANCH   1   3
BRANCH   2  17
ATOM     17  O   UNL     1       1.223   9.355  22.730  0.00  0.00    +0.000 OA
ATOM     18  H   UNL     1       2.146   9.627  22.932  0.00  0.00    +0.000 HD
ENDBRANCH   2  17
BRANCH   2  19
ATOM     19  C   UNL     1       1.725   7.989  20.875  0.00  0.00    +0.000 C 
ATOM     20  C   UNL     1       1.158   6.770  20.870  0.00  0.00    +0.000 C 
BRANCH  20  21
ATOM     21  C   UNL     1       1.882   5.549  20.473  0.00  0.00    +0.000 A 
ATOM     22  C   UNL     1       1.398   4.293  20.834  0.00  0.00    +0.000 A 
ATOM     23  C   UNL     1       2.110   3.145  20.484  0.00  0.00    +0.000 A 
ATOM     24  C   UNL     1       3.325   3.220  19.781  0.00  0.00    +0.000 A 
ATOM     25  C   UNL     1       3.835   4.481  19.433  0.00  0.00    +0.000 A 
ATOM     26  C   UNL     1       3.106   5.627  19.789  0.00  0.00    +0.000 A 
BRANCH  24  27
ATOM     27  O   UNL     1       3.858   1.982  19.534  0.00  0.00    +0.000 OA
ATOM     28  C   UNL     1       3.585   1.352  18.291  0.00  0.00    +0.000 C 
ENDBRANCH  24  27
BRANCH  25  29
ATOM     29  O   UNL     1       5.032   4.549  18.772  0.00  0.00    +0.000 OA
ATOM     30  C   UNL     1       6.041   5.412  19.284  0.00  0.00    +0.000 C 
ENDBRANCH  25  29
ENDBRANCH  20  21
ENDBRANCH   2  19
BRANCH   1  31
ATOM     31  C   UNL     1       0.308   9.897  19.070  0.00  0.00    +0.000 C 
BRANCH  31  33
ATOM     32  C   UNL     1       2.194   8.882  17.652  0.00  0.00    +0.000 C 
ATOM     33  C   UNL     1       1.522   9.918  18.174  0.00  0.00    +0.000 C 
ENDBRANCH  31  33
ENDBRANCH   1  31
TORSDOF 12
ENDMDL
