MODEL 1
REMARK VINA RESULT:      -6.5      0.000      0.000
REMARK  Name = 
REMARK  6 active torsions:
REMARK  status: ('A' for Active; 'I' for Inactive)
REMARK    1  A    between atoms: C_1  and  C_2
REMARK    2  A    between atoms: C_2  and  C_3
REMARK    3  A    between atoms: C_2  and  C_4
REMARK    4  A    between atoms: N_7  and  N_8
REMARK    5  A    between atoms: C_9  and  C_10
REMARK    6  A    between atoms: C_13  and  O_14
REMARK                            x       y       z     vdW  Elec       q    Type
REMARK                         _______ _______ _______ _____ _____    ______ ____
ROOT
ATOM      1  C   UNL     1       3.221   4.346  20.103  0.00  0.00    +0.000 C 
ATOM      2  S   UNL     1       2.274   5.876  19.865  0.00  0.00    +0.000 S 
ATOM      3  C   UNL     1       3.324   6.350  18.543  0.00  0.00    +0.000 C 
ATOM      4  N   UNL     1       3.048   7.495  17.837  0.00  0.00    +0.000 N 
ATOM      5  N   UNL     1       4.327   5.576  18.292  0.00  0.00    +0.000 NA
ATOM      6  C   UNL     1       4.393   4.490  19.136  0.00  0.00    +0.000 C 
ATOM      7  O   UNL     1       5.331   3.701  19.124  0.00  0.00    +0.000 OA
ATOM      8  H   UNL     1       3.690   7.676  17.071  0.00  0.00    +0.000 HD
ENDROOT
BRANCH   1  10
ATOM      9  C   UNL     1       1.284   2.859  20.972  0.00  0.00    +0.000 C 
ATOM     10  C   UNL     1       2.362   3.081  19.904  0.00  0.00    +0.000 C 
ATOM     11  C   UNL     1       1.716   3.060  18.515  0.00  0.00    +0.000 C 
ENDBRANCH   1  10
BRANCH   4  12
ATOM     12  N   UNL     1       1.928   8.239  17.997  0.00  0.00    +0.000 NA
ATOM     13  C   UNL     1       2.068   9.516  18.137  0.00  0.00    +0.000 C 
BRANCH  13  14
ATOM     14  C   UNL     1       0.870  10.365  18.278  0.00  0.00    +0.000 A 
ATOM     15  C   UNL     1       0.990  11.653  18.818  0.00  0.00    +0.000 A 
ATOM     16  C   UNL     1      -0.141  12.447  18.999  0.00  0.00    +0.000 A 
ATOM     17  C   UNL     1      -1.385  11.944  18.636  0.00  0.00    +0.000 A 
ATOM     18  C   UNL     1      -1.513  10.670  18.084  0.00  0.00    +0.000 A 
ATOM     19  C   UNL     1      -0.381   9.871  17.902  0.00  0.00    +0.000 A 
BRANCH  17  20
ATOM     20  O   UNL     1      -2.520  12.677  18.813  0.00  0.00    +0.000 OA
ATOM     21  H   UNL     1      -3.286  12.116  18.606  0.00  0.00    +0.000 HD
ENDBRANCH  17  20
ENDBRANCH  13  14
ENDBRANCH   4  12
TORSDOF 4
ENDMDL
MODEL 2
REMARK VINA RESULT:      -6.4      0.558      1.239
REMARK  Name = 
REMARK  6 active torsions:
REMARK  status: ('A' for Active; 'I' for Inactive)
REMARK    1  A    between atoms: C_1  and  C_2
REMARK    2  A    between atoms: C_2  and  C_3
REMARK    3  A    between atoms: C_2  and  C_4
REMARK    4  A    between atoms: N_7  and  N_8
REMARK    5  A    between atoms: C_9  and  C_10
REMARK    6  A    between atoms: C_13  and  O_14
REMARK                            x       y       z     vdW  Elec       q    Type
REMARK                         _______ _______ _______ _____ _____    ______ ____
ROOT
ATOM      1  C   UNL     1       3.430   4.341  19.711  0.00  0.00    +0.000 C 
ATOM      2  S   UNL     1       2.341   5.779  19.513  0.00  0.00    +0.000 S 
ATOM      3  C   UNL     1       3.470   6.511  18.388  0.00  0.00    +0.000 C 
ATOM      4  N   UNL     1       3.142   7.694  17.774  0.00  0.00    +0.000 N 
ATOM      5  N   UNL     1       4.580   5.881  18.188  0.00  0.00    +0.000 NA
ATOM      6  C   UNL     1       4.679   4.718  18.918  0.00  0.00    +0.000 C 
ATOM      7  O   UNL     1       5.699   4.039  18.943  0.00  0.00    +0.000 OA
ATOM      8  H   UNL     1       3.840   8.029  17.116  0.00  0.00    +0.000 HD
ENDROOT
BRANCH   1  10
ATOM      9  C   UNL     1       1.474   2.673  20.044  0.00  0.00    +0.000 C 
ATOM     10  C   UNL     1       2.756   3.024  19.278  0.00  0.00    +0.000 C 
ATOM     11  C   UNL     1       2.469   3.014  17.773  0.00  0.00    +0.000 C 
ENDBRANCH   1  10
BRANCH   4  12
ATOM     12  N   UNL     1       1.931   8.292  17.868  0.00  0.00    +0.000 NA
ATOM     13  C   UNL     1       1.900   9.540  18.200  0.00  0.00    +0.000 C 
BRANCH  13  14
ATOM     14  C   UNL     1       0.601  10.237  18.277  0.00  0.00    +0.000 A 
ATOM     15  C   UNL     1      -0.546   9.633  17.742  0.00  0.00    +0.000 A 
ATOM     16  C   UNL     1      -1.768  10.302  17.768  0.00  0.00    +0.000 A 
ATOM     17  C   UNL     1      -1.833  11.571  18.332  0.00  0.00    +0.000 A 
ATOM     18  C   UNL     1      -0.702  12.173  18.879  0.00  0.00    +0.000 A 
ATOM     19  C   UNL     1       0.526  11.506  18.855  0.00  0.00    +0.000 A 
BRANCH  17  20
ATOM     20  O   UNL     1      -3.003  12.269  18.361  0.00  0.00    +0.000 OA
ATOM     21  H   UNL     1      -2.809  13.188  18.610  0.00  0.00    +0.000 HD
ENDBRANCH  17  20
ENDBRANCH  13  14
ENDBRANCH   4  12
TORSDOF 4
ENDMDL
MODEL 3
REMARK VINA RESULT:      -6.4      1.842      2.010
REMARK  Name = 
REMARK  6 active torsions:
REMARK  status: ('A' for Active; 'I' for Inactive)
REMARK    1  A    between atoms: C_1  and  C_2
REMARK    2  A    between atoms: C_2  and  C_3
REMARK    3  A    between atoms: C_2  and  C_4
REMARK    4  A    between atoms: N_7  and  N_8
REMARK    5  A    between atoms: C_9  and  C_10
REMARK    6  A    between atoms: C_13  and  O_14
REMARK                            x       y       z     vdW  Elec       q    Type
REMARK                         _______ _______ _______ _____ _____    ______ ____
ROOT
ATOM      1  C   UNL     1       3.172   3.099  19.697  0.00  0.00    +0.000 C 
ATOM      2  S   UNL     1       3.165   4.908  19.841  0.00  0.00    +0.000 S 
ATOM      3  C   UNL     1       3.434   5.071  18.116  0.00  0.00    +0.000 C 
ATOM      4  N   UNL     1       3.450   6.321  17.549  0.00  0.00    +0.000 N 
ATOM      5  N   UNL     1       3.603   3.977  17.449  0.00  0.00    +0.000 NA
ATOM      6  C   UNL     1       3.544   2.851  18.238  0.00  0.00    +0.000 C 
ATOM      7  O   UNL     1       3.787   1.729  17.807  0.00  0.00    +0.000 OA
ATOM      8  H   UNL     1       3.582   6.320  16.541  0.00  0.00    +0.000 HD
ENDROOT
BRANCH   1  10
ATOM      9  C   UNL     1       1.391   2.846  21.564  0.00  0.00    +0.000 C 
ATOM     10  C   UNL     1       1.841   2.464  20.148  0.00  0.00    +0.000 C 
ATOM     11  C   UNL     1       0.715   2.770  19.155  0.00  0.00    +0.000 C 
ENDBRANCH   1  10
BRANCH   4  12
ATOM     12  N   UNL     1       3.138   7.462  18.208  0.00  0.00    +0.000 NA
ATOM     13  C   UNL     1       2.046   8.069  17.877  0.00  0.00    +0.000 C 
BRANCH  13  14
ATOM     14  C   UNL     1       1.653   9.296  18.596  0.00  0.00    +0.000 A 
ATOM     15  C   UNL     1       1.929  10.551  18.033  0.00  0.00    +0.000 A 
ATOM     16  C   UNL     1       1.605  11.717  18.723  0.00  0.00    +0.000 A 
ATOM     17  C   UNL     1       1.005  11.617  19.974  0.00  0.00    +0.000 A 
ATOM     18  C   UNL     1       0.714  10.375  20.536  0.00  0.00    +0.000 A 
ATOM     19  C   UNL     1       1.039   9.203  19.846  0.00  0.00    +0.000 A 
BRANCH  17  20
ATOM     20  O   UNL     1       0.689  12.731  20.693  0.00  0.00    +0.000 OA
ATOM     21  H   UNL     1       1.511  13.194  20.924  0.00  0.00    +0.000 HD
ENDBRANCH  17  20
ENDBRANCH  13  14
ENDBRANCH   4  12
TORSDOF 4
ENDMDL
MODEL 4
REMARK VINA RESULT:      -6.3      5.782      7.118
REMARK  Name = 
REMARK  6 active torsions:
REMARK  status: ('A' for Active; 'I' for Inactive)
REMARK    1  A    between atoms: C_1  and  C_2
REMARK    2  A    between atoms: C_2  and  C_3
REMARK    3  A    between atoms: C_2  and  C_4
REMARK    4  A    between atoms: N_7  and  N_8
REMARK    5  A    between atoms: C_9  and  C_10
REMARK    6  A    between atoms: C_13  and  O_14
REMARK                            x       y       z     vdW  Elec       q    Type
REMARK                         _______ _______ _______ _____ _____    ______ ____
ROOT
ATOM      1  C   UNL     1       5.972   4.455  18.510  0.00  0.00    +0.000 C 
ATOM      2  S   UNL     1       7.008   5.882  18.943  0.00  0.00    +0.000 S 
ATOM      3  C   UNL     1       6.990   6.431  17.277  0.00  0.00    +0.000 C 
ATOM      4  N   UNL     1       7.597   7.618  16.951  0.00  0.00    +0.000 N 
ATOM      5  N   UNL     1       6.389   5.672  16.422  0.00  0.00    +0.000 NA
ATOM      6  C   UNL     1       5.859   4.536  16.990  0.00  0.00    +0.000 C 
ATOM      7  O   UNL     1       5.344   3.644  16.325  0.00  0.00    +0.000 OA
ATOM      8  H   UNL     1       7.513   7.873  15.971  0.00  0.00    +0.000 HD
ENDROOT
BRANCH   1  10
ATOM      9  C   UNL     1       3.515   5.276  18.611  0.00  0.00    +0.000 C 
ATOM     10  C   UNL     1       4.628   4.449  19.266  0.00  0.00    +0.000 C 
ATOM     11  C   UNL     1       4.130   3.019  19.501  0.00  0.00    +0.000 C 
ENDBRANCH   1  10
BRANCH   4  12
ATOM     12  N   UNL     1       8.110   8.488  17.854  0.00  0.00    +0.000 NA
ATOM     13  C   UNL     1       8.356   9.692  17.457  0.00  0.00    +0.000 C 
BRANCH  13  14
ATOM     14  C   UNL     1       8.881  10.679  18.420  0.00  0.00    +0.000 A 
ATOM     15  C   UNL     1       8.963  12.031  18.056  0.00  0.00    +0.000 A 
ATOM     16  C   UNL     1       9.500  12.965  18.940  0.00  0.00    +0.000 A 
ATOM     17  C   UNL     1       9.950  12.537  20.184  0.00  0.00    +0.000 A 
ATOM     18  C   UNL     1       9.859  11.198  20.561  0.00  0.00    +0.000 A 
ATOM     19  C   UNL     1       9.322  10.259  19.676  0.00  0.00    +0.000 A 
BRANCH  17  20
ATOM     20  O   UNL     1      10.500  13.412  21.073  0.00  0.00    +0.000 OA
ATOM     21  H   UNL     1      11.019  12.908  21.722  0.00  0.00    +0.000 HD
ENDBRANCH  17  20
ENDBRANCH  13  14
ENDBRANCH   4  12
TORSDOF 4
ENDMDL
MODEL 5
REMARK VINA RESULT:      -6.3      5.765      7.151
REMARK  Name = 
REMARK  6 active torsions:
REMARK  status: ('A' for Active; 'I' for Inactive)
REMARK    1  A    between atoms: C_1  and  C_2
REMARK    2  A    between atoms: C_2  and  C_3
REMARK    3  A    between atoms: C_2  and  C_4
REMARK    4  A    between atoms: N_7  and  N_8
REMARK    5  A    between atoms: C_9  and  C_10
REMARK    6  A    between atoms: C_13  and  O_14
REMARK                            x       y       z     vdW  Elec       q    Type
REMARK                         _______ _______ _______ _____ _____    ______ ____
ROOT
ATOM      1  C   UNL     1       5.948   4.435  18.512  0.00  0.00    +0.000 C 
ATOM      2  S   UNL     1       7.072   5.813  18.877  0.00  0.00    +0.000 S 
ATOM      3  C   UNL     1       6.894   6.423  17.243  0.00  0.00    +0.000 C 
ATOM      4  N   UNL     1       7.502   7.603  16.892  0.00  0.00    +0.000 N 
ATOM      5  N   UNL     1       6.180   5.714  16.433  0.00  0.00    +0.000 NA
ATOM      6  C   UNL     1       5.676   4.574  17.017  0.00  0.00    +0.000 C 
ATOM      7  O   UNL     1       5.064   3.723  16.381  0.00  0.00    +0.000 OA
ATOM      8  H   UNL     1       7.322   7.896  15.936  0.00  0.00    +0.000 HD
ENDROOT
BRANCH   1  10
ATOM      9  C   UNL     1       3.573   5.377  18.942  0.00  0.00    +0.000 C 
ATOM     10  C   UNL     1       4.694   4.440  19.407  0.00  0.00    +0.000 C 
ATOM     11  C   UNL     1       4.134   3.025  19.588  0.00  0.00    +0.000 C 
ENDBRANCH   1  10
BRANCH   4  12
ATOM     12  N   UNL     1       8.137   8.424  17.763  0.00  0.00    +0.000 NA
ATOM     13  C   UNL     1       8.236   9.673  17.450  0.00  0.00    +0.000 C 
BRANCH  13  14
ATOM     14  C   UNL     1       8.888  10.606  18.389  0.00  0.00    +0.000 A 
ATOM     15  C   UNL     1       9.182  10.186  19.694  0.00  0.00    +0.000 A 
ATOM     16  C   UNL     1       9.756  11.072  20.604  0.00  0.00    +0.000 A 
ATOM     17  C   UNL     1      10.033  12.373  20.198  0.00  0.00    +0.000 A 
ATOM     18  C   UNL     1       9.758  12.795  18.898  0.00  0.00    +0.000 A 
ATOM     19  C   UNL     1       9.181  11.909  17.983  0.00  0.00    +0.000 A 
BRANCH  17  20
ATOM     20  O   UNL     1      10.575  13.279  21.059  0.00  0.00    +0.000 OA
ATOM     21  H   UNL     1      10.539  14.158  20.647  0.00  0.00    +0.000 HD
ENDBRANCH  17  20
ENDBRANCH  13  14
ENDBRANCH   4  12
TORSDOF 4
ENDMDL
MODEL 6
REMARK VINA RESULT:      -6.3      2.827      7.617
REMARK  Name = 
REMARK  6 active torsions:
REMARK  status: ('A' for Active; 'I' for Inactive)
REMARK    1  A    between atoms: C_1  and  C_2
REMARK    2  A    between atoms: C_2  and  C_3
REMARK    3  A    between atoms: C_2  and  C_4
REMARK    4  A    between atoms: N_7  and  N_8
REMARK    5  A    between atoms: C_9  and  C_10
REMARK    6  A    between atoms: C_13  and  O_14
REMARK                            x       y       z     vdW  Elec       q    Type
REMARK                         _______ _______ _______ _____ _____    ______ ____
ROOT
ATOM      1  C   UNL     1      -0.032  10.642  20.247  0.00  0.00    +0.000 C 
ATOM      2  S   UNL     1       1.185   9.688  19.297  0.00  0.00    +0.000 S 
ATOM      3  C   UNL     1       1.231   8.457  20.546  0.00  0.00    +0.000 C 
ATOM      4  N   UNL     1       1.988   7.328  20.354  0.00  0.00    +0.000 N 
ATOM      5  N   UNL     1       0.530   8.681  21.607  0.00  0.00    +0.000 NA
ATOM      6  C   UNL     1      -0.142   9.881  21.566  0.00  0.00    +0.000 C 
ATOM      7  O   UNL     1      -0.773  10.317  22.522  0.00  0.00    +0.000 OA
ATOM      8  H   UNL     1       1.932   6.655  21.113  0.00  0.00    +0.000 HD
ENDROOT
BRANCH   1  10
ATOM      9  C   UNL     1      -1.870  12.274  19.427  0.00  0.00    +0.000 C 
ATOM     10  C   UNL     1      -1.361  10.829  19.488  0.00  0.00    +0.000 C 
ATOM     11  C   UNL     1      -1.276  10.257  18.070  0.00  0.00    +0.000 C 
ENDBRANCH   1  10
BRANCH   4  12
ATOM     12  N   UNL     1       2.615   7.017  19.194  0.00  0.00    +0.000 NA
ATOM     13  C   UNL     1       3.394   5.986  19.189  0.00  0.00    +0.000 C 
BRANCH  13  14
ATOM     14  C   UNL     1       4.067   5.593  17.936  0.00  0.00    +0.000 A 
ATOM     15  C   UNL     1       4.213   4.235  17.621  0.00  0.00    +0.000 A 
ATOM     16  C   UNL     1       4.888   3.851  16.463  0.00  0.00    +0.000 A 
ATOM     17  C   UNL     1       5.411   4.832  15.630  0.00  0.00    +0.000 A 
ATOM     18  C   UNL     1       5.259   6.186  15.927  0.00  0.00    +0.000 A 
ATOM     19  C   UNL     1       4.583   6.574  17.087  0.00  0.00    +0.000 A 
BRANCH  17  20
ATOM     20  O   UNL     1       6.096   4.503  14.498  0.00  0.00    +0.000 OA
ATOM     21  H   UNL     1       6.389   3.579  14.572  0.00  0.00    +0.000 HD
ENDBRANCH  17  20
ENDBRANCH  13  14
ENDBRANCH   4  12
TORSDOF 4
ENDMDL
MODEL 7
REMARK VINA RESULT:      -6.3      1.026      1.695
REMARK  Name = 
REMARK  6 active torsions:
REMARK  status: ('A' for Active; 'I' for Inactive)
REMARK    1  A    between atoms: C_1  and  C_2
REMARK    2  A    between atoms: C_2  and  C_3
REMARK    3  A    between atoms: C_2  and  C_4
REMARK    4  A    between atoms: N_7  and  N_8
REMARK    5  A    between atoms: C_9  and  C_10
REMARK    6  A    between atoms: C_13  and  O_14
REMARK                            x       y       z     vdW  Elec       q    Type
REMARK                         _______ _______ _______ _____ _____    ______ ____
ROOT
ATOM      1  C   UNL     1       2.478   4.732  20.540  0.00  0.00    +0.000 C 
ATOM      2  S   UNL     1       1.888   6.449  20.541  0.00  0.00    +0.000 S 
ATOM      3  C   UNL     1       2.657   6.740  18.992  0.00  0.00    +0.000 C 
ATOM      4  N   UNL     1       2.492   7.953  18.373  0.00  0.00    +0.000 N 
ATOM      5  N   UNL     1       3.355   5.771  18.500  0.00  0.00    +0.000 NA
ATOM      6  C   UNL     1       3.372   4.655  19.306  0.00  0.00    +0.000 C 
ATOM      7  O   UNL     1       4.065   3.674  19.060  0.00  0.00    +0.000 OA
ATOM      8  H   UNL     1       2.946   8.024  17.467  0.00  0.00    +0.000 HD
ENDROOT
BRANCH   1  10
ATOM      9  C   UNL     1       0.970   3.090  19.218  0.00  0.00    +0.000 C 
ATOM     10  C   UNL     1       1.324   3.710  20.575  0.00  0.00    +0.000 C 
ATOM     11  C   UNL     1       1.600   2.595  21.589  0.00  0.00    +0.000 C 
ENDBRANCH   1  10
BRANCH   4  12
ATOM     12  N   UNL     1       1.654   8.925  18.808  0.00  0.00    +0.000 NA
ATOM     13  C   UNL     1       0.693   9.287  18.025  0.00  0.00    +0.000 C 
BRANCH  13  14
ATOM     14  C   UNL     1      -0.262  10.317  18.477  0.00  0.00    +0.000 A 
ATOM     15  C   UNL     1      -1.502  10.446  17.836  0.00  0.00    +0.000 A 
ATOM     16  C   UNL     1      -2.393  11.445  18.224  0.00  0.00    +0.000 A 
ATOM     17  C   UNL     1      -2.034  12.308  19.253  0.00  0.00    +0.000 A 
ATOM     18  C   UNL     1      -0.809  12.179  19.906  0.00  0.00    +0.000 A 
ATOM     19  C   UNL     1       0.087  11.178  19.519  0.00  0.00    +0.000 A 
BRANCH  17  20
ATOM     20  O   UNL     1      -2.865  13.312  19.652  0.00  0.00    +0.000 OA
ATOM     21  H   UNL     1      -2.364  13.921  20.219  0.00  0.00    +0.000 HD
ENDBRANCH  17  20
ENDBRANCH  13  14
ENDBRANCH   4  12
TORSDOF 4
ENDMDL
MODEL 8
REMARK VINA RESULT:      -6.3      1.047      1.371
REMARK  Name = 
REMARK  6 active torsions:
REMARK  status: ('A' for Active; 'I' for Inactive)
REMARK    1  A    between atoms: C_1  and  C_2
REMARK    2  A    between atoms: C_2  and  C_3
REMARK    3  A    between atoms: C_2  and  C_4
REMARK    4  A    between atoms: N_7  and  N_8
REMARK    5  A    between atoms: C_9  and  C_10
REMARK    6  A    between atoms: C_13  and  O_14
REMARK                            x       y       z     vdW  Elec       q    Type
REMARK                         _______ _______ _______ _____ _____    ______ ____
ROOT
ATOM      1  C   UNL     1       2.462   4.929  20.525  0.00  0.00    +0.000 C 
ATOM      2  S   UNL     1       1.881   6.648  20.451  0.00  0.00    +0.000 S 
ATOM      3  C   UNL     1       2.685   6.880  18.910  0.00  0.00    +0.000 C 
ATOM      4  N   UNL     1       2.538   8.071  18.244  0.00  0.00    +0.000 N 
ATOM      5  N   UNL     1       3.389   5.891  18.468  0.00  0.00    +0.000 NA
ATOM      6  C   UNL     1       3.383   4.805  19.314  0.00  0.00    +0.000 C 
ATOM      7  O   UNL     1       4.077   3.813  19.119  0.00  0.00    +0.000 OA
ATOM      8  H   UNL     1       3.013   8.108  17.346  0.00  0.00    +0.000 HD
ENDROOT
BRANCH   1  10
ATOM      9  C   UNL     1       0.963   3.262  19.225  0.00  0.00    +0.000 C 
ATOM     10  C   UNL     1       1.304   3.914  20.571  0.00  0.00    +0.000 C 
ATOM     11  C   UNL     1       1.562   2.823  21.615  0.00  0.00    +0.000 C 
ENDBRANCH   1  10
BRANCH   4  12
ATOM     12  N   UNL     1       1.696   9.061  18.625  0.00  0.00    +0.000 NA
ATOM     13  C   UNL     1       0.611   9.225  17.943  0.00  0.00    +0.000 C 
BRANCH  13  14
ATOM     14  C   UNL     1      -0.349  10.269  18.348  0.00  0.00    +0.000 A 
ATOM     15  C   UNL     1      -0.003  11.178  19.358  0.00  0.00    +0.000 A 
ATOM     16  C   UNL     1      -0.918  12.140  19.782  0.00  0.00    +0.000 A 
ATOM     17  C   UNL     1      -2.175  12.183  19.189  0.00  0.00    +0.000 A 
ATOM     18  C   UNL     1      -2.524  11.293  18.175  0.00  0.00    +0.000 A 
ATOM     19  C   UNL     1      -1.608  10.327  17.748  0.00  0.00    +0.000 A 
BRANCH  17  20
ATOM     20  O   UNL     1      -3.109  13.093  19.586  0.00  0.00    +0.000 OA
ATOM     21  H   UNL     1      -3.896  12.615  19.893  0.00  0.00    +0.000 HD
ENDBRANCH  17  20
ENDBRANCH  13  14
ENDBRANCH   4  12
TORSDOF 4
ENDMDL
MODEL 9
REMARK VINA RESULT:      -6.2      2.721      7.864
REMARK  Name = 
REMARK  6 active torsions:
REMARK  status: ('A' for Active; 'I' for Inactive)
REMARK    1  A    between atoms: C_1  and  C_2
REMARK    2  A    between atoms: C_2  and  C_3
REMARK    3  A    between atoms: C_2  and  C_4
REMARK    4  A    between atoms: N_7  and  N_8
REMARK    5  A    between atoms: C_9  and  C_10
REMARK    6  A    between atoms: C_13  and  O_14
REMARK                            x       y       z     vdW  Elec       q    Type
REMARK                         _______ _______ _______ _____ _____    ______ ____
ROOT
ATOM      1  C   UNL     1       0.781  11.645  19.420  0.00  0.00    +0.000 C 
ATOM      2  S   UNL     1       0.901   9.840  19.281  0.00  0.00    +0.000 S 
ATOM      3  C   UNL     1       1.060   9.691  21.021  0.00  0.00    +0.000 C 
ATOM      4  N   UNL     1       1.119   8.444  21.590  0.00  0.00    +0.000 N 
ATOM      5  N   UNL     1       1.113  10.792  21.694  0.00  0.00    +0.000 NA
ATOM      6  C   UNL     1       1.036  11.914  20.900  0.00  0.00    +0.000 C 
ATOM      7  O   UNL     1       1.175  13.048  21.345  0.00  0.00    +0.000 OA
ATOM      8  H   UNL     1       1.180   8.451  22.605  0.00  0.00    +0.000 HD
ENDROOT
BRANCH   1  10
ATOM      9  C   UNL     1      -1.734  12.100  19.851  0.00  0.00    +0.000 C 
ATOM     10  C   UNL     1      -0.554  12.194  18.877  0.00  0.00    +0.000 C 
ATOM     11  C   UNL     1      -0.405  13.640  18.393  0.00  0.00    +0.000 C 
ENDBRANCH   1  10
BRANCH   4  12
ATOM     12  N   UNL     1       0.927   7.286  20.914  0.00  0.00    +0.000 NA
ATOM     13  C   UNL     1       1.968   6.579  20.622  0.00  0.00    +0.000 C 
BRANCH  13  14
ATOM     14  C   UNL     1       1.796   5.293  19.918  0.00  0.00    +0.000 A 
ATOM     15  C   UNL     1       1.230   4.202  20.591  0.00  0.00    +0.000 A 
ATOM     16  C   UNL     1       1.105   2.970  19.952  0.00  0.00    +0.000 A 
ATOM     17  C   UNL     1       1.549   2.842  18.641  0.00  0.00    +0.000 A 
ATOM     18  C   UNL     1       2.101   3.925  17.958  0.00  0.00    +0.000 A 
ATOM     19  C   UNL     1       2.228   5.162  18.597  0.00  0.00    +0.000 A 
BRANCH  17  20
ATOM     20  O   UNL     1       1.466   1.651  17.982  0.00  0.00    +0.000 OA
ATOM     21  H   UNL     1       2.251   1.122  18.200  0.00  0.00    +0.000 HD
ENDBRANCH  17  20
ENDBRANCH  13  14
ENDBRANCH   4  12
TORSDOF 4
ENDMDL
