MODEL 1
REMARK VINA RESULT:      -8.8      0.000      0.000
REMARK  Name = 
REMARK  0 active torsions:
REMARK  status: ('A' for Active; 'I' for Inactive)
REMARK                            x       y       z     vdW  Elec       q    Type
REMARK                         _______ _______ _______ _____ _____    ______ ____
ROOT
ATOM      1  C   UNL     1      -0.781  11.611  22.264  0.00  0.00    +0.000 A 
ATOM      2  C   UNL     1      -0.697  10.328  22.746  0.00  0.00    +0.000 A 
ATOM      3  C   UNL     1       0.294   9.490  22.287  0.00  0.00    +0.000 A 
ATOM      4  C   UNL     1       0.773   9.637  20.984  0.00  0.00    +0.000 A 
ATOM      5  C   UNL     1       0.482  10.855  20.323  0.00  0.00    +0.000 A 
ATOM      6  C   UNL     1      -0.192  11.871  21.030  0.00  0.00    +0.000 A 
ATOM      7  C   UNL     1       0.838  10.978  18.974  0.00  0.00    +0.000 A 
ATOM      8  C   UNL     1       1.450   9.916  18.280  0.00  0.00    +0.000 A 
ATOM      9  C   UNL     1       1.731   8.685  18.926  0.00  0.00    +0.000 A 
ATOM     10  C   UNL     1       2.290   7.567  18.233  0.00  0.00    +0.000 A 
ATOM     11  C   UNL     1       2.505   6.334  18.909  0.00  0.00    +0.000 A 
ATOM     12  C   UNL     1       2.191   6.305  20.257  0.00  0.00    +0.000 A 
ATOM     13  C   UNL     1       1.666   7.372  20.953  0.00  0.00    +0.000 A 
ATOM     14  C   UNL     1       1.416   8.578  20.293  0.00  0.00    +0.000 A 
ATOM     15  N   UNL     1       2.473   5.062  20.744  0.00  0.00    +0.000 N 
ATOM     16  C   UNL     1       2.891   4.229  19.750  0.00  0.00    +0.000 A 
ATOM     17  C   UNL     1       3.225   2.884  19.827  0.00  0.00    +0.000 A 
ATOM     18  C   UNL     1       3.629   2.265  18.659  0.00  0.00    +0.000 A 
ATOM     19  C   UNL     1       3.734   2.980  17.464  0.00  0.00    +0.000 A 
ATOM     20  C   UNL     1       3.408   4.355  17.412  0.00  0.00    +0.000 A 
ATOM     21  C   UNL     1       2.963   4.997  18.572  0.00  0.00    +0.000 A 
ATOM     22  H   UNL     1       2.324   4.781  21.706  0.00  0.00    +0.000 HD
ENDROOT
TORSDOF 0
ENDMDL
MODEL 2
REMARK VINA RESULT:      -8.4      2.133      7.446
REMARK  Name = 
REMARK  0 active torsions:
REMARK  status: ('A' for Active; 'I' for Inactive)
REMARK                            x       y       z     vdW  Elec       q    Type
REMARK                         _______ _______ _______ _____ _____    ______ ____
ROOT
ATOM      1  C   UNL     1       6.119   4.102  15.251  0.00  0.00    +0.000 A 
ATOM      2  C   UNL     1       5.497   5.242  14.806  0.00  0.00    +0.000 A 
ATOM      3  C   UNL     1       5.081   6.191  15.712  0.00  0.00    +0.000 A 
ATOM      4  C   UNL     1       4.689   5.797  16.993  0.00  0.00    +0.000 A 
ATOM      5  C   UNL     1       5.076   4.502  17.415  0.00  0.00    +0.000 A 
ATOM      6  C   UNL     1       5.893   3.724  16.572  0.00  0.00    +0.000 A 
ATOM      7  C   UNL     1       4.588   4.033  18.642  0.00  0.00    +0.000 A 
ATOM      8  C   UNL     1       3.718   4.812  19.429  0.00  0.00    +0.000 A 
ATOM      9  C   UNL     1       3.308   6.103  19.008  0.00  0.00    +0.000 A 
ATOM     10  C   UNL     1       2.375   6.890  19.750  0.00  0.00    +0.000 A 
ATOM     11  C   UNL     1       1.951   8.157  19.261  0.00  0.00    +0.000 A 
ATOM     12  C   UNL     1       2.524   8.587  18.077  0.00  0.00    +0.000 A 
ATOM     13  C   UNL     1       3.437   7.855  17.349  0.00  0.00    +0.000 A 
ATOM     14  C   UNL     1       3.835   6.593  17.799  0.00  0.00    +0.000 A 
ATOM     15  N   UNL     1       2.020   9.816  17.768  0.00  0.00    +0.000 N 
ATOM     16  C   UNL     1       1.067  10.194  18.665  0.00  0.00    +0.000 A 
ATOM     17  C   UNL     1       0.290  11.345  18.674  0.00  0.00    +0.000 A 
ATOM     18  C   UNL     1      -0.611  11.492  19.711  0.00  0.00    +0.000 A 
ATOM     19  C   UNL     1      -0.700  10.538  20.727  0.00  0.00    +0.000 A 
ATOM     20  C   UNL     1       0.114   9.383  20.711  0.00  0.00    +0.000 A 
ATOM     21  C   UNL     1       1.010   9.193  19.653  0.00  0.00    +0.000 A 
ATOM     22  H   UNL     1       2.276  10.345  16.942  0.00  0.00    +0.000 HD
ENDROOT
TORSDOF 0
ENDMDL
MODEL 3
REMARK VINA RESULT:      -8.4      5.084      7.965
REMARK  Name = 
REMARK  0 active torsions:
REMARK  status: ('A' for Active; 'I' for Inactive)
REMARK                            x       y       z     vdW  Elec       q    Type
REMARK                         _______ _______ _______ _____ _____    ______ ____
ROOT
ATOM      1  C   UNL     1       7.007   4.001  12.001  0.00  0.00    +0.000 A 
ATOM      2  C   UNL     1       5.882   3.288  12.338  0.00  0.00    +0.000 A 
ATOM      3  C   UNL     1       5.114   3.690  13.407  0.00  0.00    +0.000 A 
ATOM      4  C   UNL     1       5.718   4.336  14.487  0.00  0.00    +0.000 A 
ATOM      5  C   UNL     1       7.014   4.865  14.278  0.00  0.00    +0.000 A 
ATOM      6  C   UNL     1       7.584   4.790  12.992  0.00  0.00    +0.000 A 
ATOM      7  C   UNL     1       7.695   5.403  15.379  0.00  0.00    +0.000 A 
ATOM      8  C   UNL     1       7.122   5.401  16.665  0.00  0.00    +0.000 A 
ATOM      9  C   UNL     1       5.831   4.856  16.891  0.00  0.00    +0.000 A 
ATOM     10  C   UNL     1       5.250   4.779  18.194  0.00  0.00    +0.000 A 
ATOM     11  C   UNL     1       3.976   4.175  18.379  0.00  0.00    +0.000 A 
ATOM     12  C   UNL     1       3.332   3.726  17.240  0.00  0.00    +0.000 A 
ATOM     13  C   UNL     1       3.863   3.802  15.970  0.00  0.00    +0.000 A 
ATOM     14  C   UNL     1       5.129   4.359  15.777  0.00  0.00    +0.000 A 
ATOM     15  N   UNL     1       2.127   3.196  17.598  0.00  0.00    +0.000 N 
ATOM     16  C   UNL     1       1.972   3.202  18.952  0.00  0.00    +0.000 A 
ATOM     17  C   UNL     1       0.916   2.713  19.708  0.00  0.00    +0.000 A 
ATOM     18  C   UNL     1       1.003   2.850  21.080  0.00  0.00    +0.000 A 
ATOM     19  C   UNL     1       2.092   3.493  21.672  0.00  0.00    +0.000 A 
ATOM     20  C   UNL     1       3.149   4.003  20.882  0.00  0.00    +0.000 A 
ATOM     21  C   UNL     1       3.101   3.846  19.493  0.00  0.00    +0.000 A 
ATOM     22  H   UNL     1       1.466   2.791  16.945  0.00  0.00    +0.000 HD
ENDROOT
TORSDOF 0
ENDMDL
MODEL 4
REMARK VINA RESULT:      -8.3      0.868      1.147
REMARK  Name = 
REMARK  0 active torsions:
REMARK  status: ('A' for Active; 'I' for Inactive)
REMARK                            x       y       z     vdW  Elec       q    Type
REMARK                         _______ _______ _______ _____ _____    ______ ____
ROOT
ATOM      1  C   UNL     1      -1.534  12.325  22.671  0.00  0.00    +0.000 A 
ATOM      2  C   UNL     1      -1.387  11.029  23.102  0.00  0.00    +0.000 A 
ATOM      3  C   UNL     1      -0.334  10.272  22.642  0.00  0.00    +0.000 A 
ATOM      4  C   UNL     1       0.177  10.504  21.363  0.00  0.00    +0.000 A 
ATOM      5  C   UNL     1      -0.167  11.730  20.745  0.00  0.00    +0.000 A 
ATOM      6  C   UNL     1      -0.923  12.673  21.470  0.00  0.00    +0.000 A 
ATOM      7  C   UNL     1       0.224  11.932  19.415  0.00  0.00    +0.000 A 
ATOM      8  C   UNL     1       0.920  10.940  18.698  0.00  0.00    +0.000 A 
ATOM      9  C   UNL     1       1.254   9.700  19.301  0.00  0.00    +0.000 A 
ATOM     10  C   UNL     1       1.902   8.649  18.582  0.00  0.00    +0.000 A 
ATOM     11  C   UNL     1       2.168   7.402  19.212  0.00  0.00    +0.000 A 
ATOM     12  C   UNL     1       1.815   7.295  20.546  0.00  0.00    +0.000 A 
ATOM     13  C   UNL     1       1.204   8.298  21.268  0.00  0.00    +0.000 A 
ATOM     14  C   UNL     1       0.903   9.515  20.651  0.00  0.00    +0.000 A 
ATOM     15  N   UNL     1       2.155   6.051  20.991  0.00  0.00    +0.000 N 
ATOM     16  C   UNL     1       2.653   5.288  19.978  0.00  0.00    +0.000 A 
ATOM     17  C   UNL     1       3.065   3.963  20.010  0.00  0.00    +0.000 A 
ATOM     18  C   UNL     1       3.543   3.421  18.832  0.00  0.00    +0.000 A 
ATOM     19  C   UNL     1       3.642   4.192  17.672  0.00  0.00    +0.000 A 
ATOM     20  C   UNL     1       3.236   5.546  17.666  0.00  0.00    +0.000 A 
ATOM     21  C   UNL     1       2.717   6.110  18.836  0.00  0.00    +0.000 A 
ATOM     22  H   UNL     1       1.993   5.720  21.935  0.00  0.00    +0.000 HD
ENDROOT
TORSDOF 0
ENDMDL
MODEL 5
REMARK VINA RESULT:      -7.7      1.658      3.310
REMARK  Name = 
REMARK  0 active torsions:
REMARK  status: ('A' for Active; 'I' for Inactive)
REMARK                            x       y       z     vdW  Elec       q    Type
REMARK                         _______ _______ _______ _____ _____    ______ ____
ROOT
ATOM      1  C   UNL     1      -1.424  13.865  21.733  0.00  0.00    +0.000 A 
ATOM      2  C   UNL     1      -0.592  13.732  20.648  0.00  0.00    +0.000 A 
ATOM      3  C   UNL     1      -0.357  12.484  20.117  0.00  0.00    +0.000 A 
ATOM      4  C   UNL     1      -0.385  11.363  20.948  0.00  0.00    +0.000 A 
ATOM      5  C   UNL     1      -1.001  11.514  22.213  0.00  0.00    +0.000 A 
ATOM      6  C   UNL     1      -1.620  12.741  22.530  0.00  0.00    +0.000 A 
ATOM      7  C   UNL     1      -0.929  10.446  23.116  0.00  0.00    +0.000 A 
ATOM      8  C   UNL     1      -0.245   9.259  22.792  0.00  0.00    +0.000 A 
ATOM      9  C   UNL     1       0.393   9.102  21.535  0.00  0.00    +0.000 A 
ATOM     10  C   UNL     1       1.150   7.938  21.200  0.00  0.00    +0.000 A 
ATOM     11  C   UNL     1       1.818   7.848  19.948  0.00  0.00    +0.000 A 
ATOM     12  C   UNL     1       1.649   8.911  19.078  0.00  0.00    +0.000 A 
ATOM     13  C   UNL     1       0.912  10.039  19.369  0.00  0.00    +0.000 A 
ATOM     14  C   UNL     1       0.281  10.157  20.610  0.00  0.00    +0.000 A 
ATOM     15  N   UNL     1       2.339   8.652  17.930  0.00  0.00    +0.000 N 
ATOM     16  C   UNL     1       3.032   7.483  18.028  0.00  0.00    +0.000 A 
ATOM     17  C   UNL     1       3.884   6.898  17.102  0.00  0.00    +0.000 A 
ATOM     18  C   UNL     1       4.464   5.693  17.450  0.00  0.00    +0.000 A 
ATOM     19  C   UNL     1       4.168   5.075  18.666  0.00  0.00    +0.000 A 
ATOM     20  C   UNL     1       3.281   5.678  19.588  0.00  0.00    +0.000 A 
ATOM     21  C   UNL     1       2.708   6.915  19.275  0.00  0.00    +0.000 A 
ATOM     22  H   UNL     1       2.381   9.281  17.137  0.00  0.00    +0.000 HD
ENDROOT
TORSDOF 0
ENDMDL
MODEL 6
REMARK VINA RESULT:      -7.7      1.306      6.795
REMARK  Name = 
REMARK  0 active torsions:
REMARK  status: ('A' for Active; 'I' for Inactive)
REMARK                            x       y       z     vdW  Elec       q    Type
REMARK                         _______ _______ _______ _____ _____    ______ ____
ROOT
ATOM      1  C   UNL     1       4.337   3.127  18.991  0.00  0.00    +0.000 A 
ATOM      2  C   UNL     1       3.736   3.444  20.184  0.00  0.00    +0.000 A 
ATOM      3  C   UNL     1       2.762   4.416  20.221  0.00  0.00    +0.000 A 
ATOM      4  C   UNL     1       2.810   5.475  19.313  0.00  0.00    +0.000 A 
ATOM      5  C   UNL     1       3.638   5.314  18.177  0.00  0.00    +0.000 A 
ATOM      6  C   UNL     1       4.295   4.082  17.979  0.00  0.00    +0.000 A 
ATOM      7  C   UNL     1       3.805   6.408  17.318  0.00  0.00    +0.000 A 
ATOM      8  C   UNL     1       3.187   7.645  17.582  0.00  0.00    +0.000 A 
ATOM      9  C   UNL     1       2.369   7.826  18.728  0.00  0.00    +0.000 A 
ATOM     10  C   UNL     1       1.782   9.086  19.059  0.00  0.00    +0.000 A 
ATOM     11  C   UNL     1       1.014   9.233  20.247  0.00  0.00    +0.000 A 
ATOM     12  C   UNL     1       0.835   8.094  21.013  0.00  0.00    +0.000 A 
ATOM     13  C   UNL     1       1.377   6.863  20.709  0.00  0.00    +0.000 A 
ATOM     14  C   UNL     1       2.164   6.713  19.565  0.00  0.00    +0.000 A 
ATOM     15  N   UNL     1       0.067   8.411  22.095  0.00  0.00    +0.000 N 
ATOM     16  C   UNL     1      -0.211   9.744  22.124  0.00  0.00    +0.000 A 
ATOM     17  C   UNL     1      -0.918  10.464  23.078  0.00  0.00    +0.000 A 
ATOM     18  C   UNL     1      -1.066  11.821  22.866  0.00  0.00    +0.000 A 
ATOM     19  C   UNL     1      -0.557  12.430  21.717  0.00  0.00    +0.000 A 
ATOM     20  C   UNL     1       0.143  11.675  20.747  0.00  0.00    +0.000 A 
ATOM     21  C   UNL     1       0.336  10.305  20.955  0.00  0.00    +0.000 A 
ATOM     22  H   UNL     1      -0.201   7.751  22.815  0.00  0.00    +0.000 HD
ENDROOT
TORSDOF 0
ENDMDL
MODEL 7
REMARK VINA RESULT:      -7.7      1.488      7.234
REMARK  Name = 
REMARK  0 active torsions:
REMARK  status: ('A' for Active; 'I' for Inactive)
REMARK                            x       y       z     vdW  Elec       q    Type
REMARK                         _______ _______ _______ _____ _____    ______ ____
ROOT
ATOM      1  C   UNL     1       4.137   2.800  17.518  0.00  0.00    +0.000 A 
ATOM      2  C   UNL     1       3.896   3.924  16.765  0.00  0.00    +0.000 A 
ATOM      3  C   UNL     1       3.744   5.142  17.386  0.00  0.00    +0.000 A 
ATOM      4  C   UNL     1       3.205   5.198  18.673  0.00  0.00    +0.000 A 
ATOM      5  C   UNL     1       3.178   3.992  19.413  0.00  0.00    +0.000 A 
ATOM      6  C   UNL     1       3.761   2.835  18.858  0.00  0.00    +0.000 A 
ATOM      7  C   UNL     1       2.527   3.992  20.654  0.00  0.00    +0.000 A 
ATOM      8  C   UNL     1       1.896   5.149  21.149  0.00  0.00    +0.000 A 
ATOM      9  C   UNL     1       1.901   6.359  20.409  0.00  0.00    +0.000 A 
ATOM     10  C   UNL     1       1.214   7.531  20.852  0.00  0.00    +0.000 A 
ATOM     11  C   UNL     1       1.201   8.705  20.050  0.00  0.00    +0.000 A 
ATOM     12  C   UNL     1       1.920   8.656  18.868  0.00  0.00    +0.000 A 
ATOM     13  C   UNL     1       2.603   7.544  18.424  0.00  0.00    +0.000 A 
ATOM     14  C   UNL     1       2.594   6.372  19.184  0.00  0.00    +0.000 A 
ATOM     15  N   UNL     1       1.813   9.862  18.241  0.00  0.00    +0.000 N 
ATOM     16  C   UNL     1       0.980  10.697  18.922  0.00  0.00    +0.000 A 
ATOM     17  C   UNL     1       0.576  11.983  18.591  0.00  0.00    +0.000 A 
ATOM     18  C   UNL     1      -0.279  12.624  19.467  0.00  0.00    +0.000 A 
ATOM     19  C   UNL     1      -0.684  12.012  20.654  0.00  0.00    +0.000 A 
ATOM     20  C   UNL     1      -0.246  10.708  20.984  0.00  0.00    +0.000 A 
ATOM     21  C   UNL     1       0.593  10.025  20.097  0.00  0.00    +0.000 A 
ATOM     22  H   UNL     1       2.244  10.080  17.349  0.00  0.00    +0.000 HD
ENDROOT
TORSDOF 0
ENDMDL
MODEL 8
REMARK VINA RESULT:      -7.6      1.435      6.829
REMARK  Name = 
REMARK  0 active torsions:
REMARK  status: ('A' for Active; 'I' for Inactive)
REMARK                            x       y       z     vdW  Elec       q    Type
REMARK                         _______ _______ _______ _____ _____    ______ ____
ROOT
ATOM      1  C   UNL     1       3.313   2.508  20.359  0.00  0.00    +0.000 A 
ATOM      2  C   UNL     1       2.704   3.140  21.415  0.00  0.00    +0.000 A 
ATOM      3  C   UNL     1       1.929   4.254  21.189  0.00  0.00    +0.000 A 
ATOM      4  C   UNL     1       2.233   5.103  20.123  0.00  0.00    +0.000 A 
ATOM      5  C   UNL     1       3.091   4.593  19.119  0.00  0.00    +0.000 A 
ATOM      6  C   UNL     1       3.518   3.253  19.200  0.00  0.00    +0.000 A 
ATOM      7  C   UNL     1       3.515   5.465  18.107  0.00  0.00    +0.000 A 
ATOM      8  C   UNL     1       3.123   6.816  18.094  0.00  0.00    +0.000 A 
ATOM      9  C   UNL     1       2.279   7.344  19.105  0.00  0.00    +0.000 A 
ATOM     10  C   UNL     1       1.917   8.725  19.156  0.00  0.00    +0.000 A 
ATOM     11  C   UNL     1       1.112   9.220  20.220  0.00  0.00    +0.000 A 
ATOM     12  C   UNL     1       0.674   8.291  21.148  0.00  0.00    +0.000 A 
ATOM     13  C   UNL     1       0.995   6.951  21.113  0.00  0.00    +0.000 A 
ATOM     14  C   UNL     1       1.815   6.458  20.095  0.00  0.00    +0.000 A 
ATOM     15  N   UNL     1      -0.092   8.931  22.078  0.00  0.00    +0.000 N 
ATOM     16  C   UNL     1      -0.118  10.274  21.852  0.00  0.00    +0.000 A 
ATOM     17  C   UNL     1      -0.740  11.268  22.595  0.00  0.00    +0.000 A 
ATOM     18  C   UNL     1      -0.617  12.567  22.141  0.00  0.00    +0.000 A 
ATOM     19  C   UNL     1       0.071  12.855  20.961  0.00  0.00    +0.000 A 
ATOM     20  C   UNL     1       0.681  11.826  20.208  0.00  0.00    +0.000 A 
ATOM     21  C   UNL     1       0.601  10.506  20.664  0.00  0.00    +0.000 A 
ATOM     22  H   UNL     1      -0.526   8.471  22.871  0.00  0.00    +0.000 HD
ENDROOT
TORSDOF 0
ENDMDL
MODEL 9
REMARK VINA RESULT:      -7.6      1.494      2.796
REMARK  Name = 
REMARK  0 active torsions:
REMARK  status: ('A' for Active; 'I' for Inactive)
REMARK                            x       y       z     vdW  Elec       q    Type
REMARK                         _______ _______ _______ _____ _____    ______ ____
ROOT
ATOM      1  C   UNL     1      -0.622  13.187  19.937  0.00  0.00    +0.000 A 
ATOM      2  C   UNL     1       0.288  12.850  18.965  0.00  0.00    +0.000 A 
ATOM      3  C   UNL     1       0.521  11.525  18.678  0.00  0.00    +0.000 A 
ATOM      4  C   UNL     1       0.390  10.567  19.685  0.00  0.00    +0.000 A 
ATOM      5  C   UNL     1      -0.319  10.948  20.849  0.00  0.00    +0.000 A 
ATOM      6  C   UNL     1      -0.918  12.223  20.897  0.00  0.00    +0.000 A 
ATOM      7  C   UNL     1      -0.355  10.052  21.925  0.00  0.00    +0.000 A 
ATOM      8  C   UNL     1       0.312   8.814  21.868  0.00  0.00    +0.000 A 
ATOM      9  C   UNL     1       1.041   8.427  20.714  0.00  0.00    +0.000 A 
ATOM     10  C   UNL     1       1.782   7.207  20.650  0.00  0.00    +0.000 A 
ATOM     11  C   UNL     1       2.544   6.887  19.491  0.00  0.00    +0.000 A 
ATOM     12  C   UNL     1       2.480   7.786  18.441  0.00  0.00    +0.000 A 
ATOM     13  C   UNL     1       1.761   8.962  18.471  0.00  0.00    +0.000 A 
ATOM     14  C   UNL     1       1.038   9.307  19.616  0.00  0.00    +0.000 A 
ATOM     15  N   UNL     1       3.249   7.316  17.416  0.00  0.00    +0.000 N 
ATOM     16  C   UNL     1       3.892   6.170  17.772  0.00  0.00    +0.000 A 
ATOM     17  C   UNL     1       4.794   5.415  17.035  0.00  0.00    +0.000 A 
ATOM     18  C   UNL     1       5.303   4.277  17.632  0.00  0.00    +0.000 A 
ATOM     19  C   UNL     1       4.891   3.887  18.908  0.00  0.00    +0.000 A 
ATOM     20  C   UNL     1       3.955   4.659  19.634  0.00  0.00    +0.000 A 
ATOM     21  C   UNL     1       3.451   5.834  19.067  0.00  0.00    +0.000 A 
ATOM     22  H   UNL     1       3.375   7.797  16.533  0.00  0.00    +0.000 HD
ENDROOT
TORSDOF 0
ENDMDL
