MODEL 1
REMARK VINA RESULT:      -8.8      0.000      0.000
REMARK  Name = 
REMARK  4 active torsions:
REMARK  status: ('A' for Active; 'I' for Inactive)
REMARK    1  A    between atoms: N_3  and  C_4
REMARK    2  A    between atoms: N_10  and  C_11
REMARK    3  A    between atoms: C_14  and  C_15
REMARK    4  A    between atoms: C_17  and  N_18
REMARK                            x       y       z     vdW  Elec       q    Type
REMARK                         _______ _______ _______ _____ _____    ______ ____
ROOT
ATOM      1  C   UNL     1       0.770  10.459  18.758  0.00  0.00    +0.000 A 
ATOM      2  C   UNL     1       0.572   9.814  19.982  0.00  0.00    +0.000 A 
ATOM      3  C   UNL     1       1.153   8.581  20.252  0.00  0.00    +0.000 A 
ATOM      4  C   UNL     1       1.922   7.943  19.284  0.00  0.00    +0.000 A 
ATOM      5  C   UNL     1       2.177   8.595  18.071  0.00  0.00    +0.000 A 
ATOM      6  C   UNL     1       1.603   9.848  17.812  0.00  0.00    +0.000 A 
ENDROOT
BRANCH   4   7
ATOM      7  C   UNL     1       2.452   6.575  19.527  0.00  0.00    +0.000 A 
ATOM      8  C   UNL     1       3.609   6.180  18.673  0.00  0.00    +0.000 A 
ATOM      9  C   UNL     1       4.133   4.946  18.759  0.00  0.00    +0.000 A 
ATOM     10  C   UNL     1       3.546   4.088  19.750  0.00  0.00    +0.000 A 
ATOM     11  N   UNL     1       3.845   2.856  20.134  0.00  0.00    +0.000 NA
ATOM     12  C   UNL     1       2.964   2.557  21.140  0.00  0.00    +0.000 A 
ATOM     13  C   UNL     1       2.129   3.616  21.389  0.00  0.00    +0.000 A 
ATOM     14  N   UNL     1       2.502   4.596  20.513  0.00  0.00    +0.000 N 
ATOM     15  N   UNL     1       1.922   5.825  20.440  0.00  0.00    +0.000 NA
BRANCH   9  16
ATOM     16  N   UNL     1       5.187   4.546  17.923  0.00  0.00    +0.000 N 
ATOM     17  C   UNL     1       6.614   4.710  18.272  0.00  0.00    +0.000 C 
ATOM     18  C   UNL     1       7.326   5.524  17.186  0.00  0.00    +0.000 C 
ATOM     19  O   UNL     1       7.178   4.914  15.889  0.00  0.00    +0.000 OA
ATOM     20  C   UNL     1       5.787   4.801  15.550  0.00  0.00    +0.000 C 
ATOM     21  C   UNL     1       5.021   3.957  16.580  0.00  0.00    +0.000 C 
ENDBRANCH   9  16
ENDBRANCH   4   7
BRANCH   1  25
ATOM     22  O   UNL     1       1.371  13.093  19.791  0.00  0.00    +0.000 OA
ATOM     23  C   UNL     1       0.454  12.913  18.996  0.00  0.00    +0.000 C 
ATOM     24  N   UNL     1      -0.407  13.920  18.600  0.00  0.00    +0.000 N 
ATOM     25  N   UNL     1       0.146  11.688  18.431  0.00  0.00    +0.000 N 
ATOM     26  H   UNL     1      -1.261  13.643  18.141  0.00  0.00    +0.000 HD
ATOM     27  H   UNL     1      -0.559  11.664  17.710  0.00  0.00    +0.000 HD
BRANCH  24  28
ATOM     28  C   UNL     1      -0.329  15.259  19.067  0.00  0.00    +0.000 A 
ATOM     29  C   UNL     1       0.509  16.221  18.500  0.00  0.00    +0.000 A 
ATOM     30  C   UNL     1       0.575  17.477  19.070  0.00  0.00    +0.000 A 
ATOM     31  N   UNL     1      -0.148  17.845  20.144  0.00  0.00    +0.000 NA
ATOM     32  C   UNL     1      -0.974  16.914  20.661  0.00  0.00    +0.000 A 
ATOM     33  C   UNL     1      -1.111  15.626  20.159  0.00  0.00    +0.000 A 
ENDBRANCH  24  28
ENDBRANCH   1  25
TORSDOF 4
ENDMDL
MODEL 2
REMARK VINA RESULT:      -8.7      2.656      3.215
REMARK  Name = 
REMARK  4 active torsions:
REMARK  status: ('A' for Active; 'I' for Inactive)
REMARK    1  A    between atoms: N_3  and  C_4
REMARK    2  A    between atoms: N_10  and  C_11
REMARK    3  A    between atoms: C_14  and  C_15
REMARK    4  A    between atoms: C_17  and  N_18
REMARK                            x       y       z     vdW  Elec       q    Type
REMARK                         _______ _______ _______ _____ _____    ______ ____
ROOT
ATOM      1  C   UNL     1       0.585  10.187  20.415  0.00  0.00    +0.000 A 
ATOM      2  C   UNL     1       0.769   9.167  21.352  0.00  0.00    +0.000 A 
ATOM      3  C   UNL     1       1.405   7.979  21.012  0.00  0.00    +0.000 A 
ATOM      4  C   UNL     1       1.842   7.767  19.708  0.00  0.00    +0.000 A 
ATOM      5  C   UNL     1       1.714   8.796  18.766  0.00  0.00    +0.000 A 
ATOM      6  C   UNL     1       1.090  10.001  19.121  0.00  0.00    +0.000 A 
ENDROOT
BRANCH   4   7
ATOM      7  C   UNL     1       2.420   6.455  19.313  0.00  0.00    +0.000 A 
ATOM      8  C   UNL     1       3.693   6.528  18.540  0.00  0.00    +0.000 A 
ATOM      9  C   UNL     1       4.275   5.410  18.075  0.00  0.00    +0.000 A 
ATOM     10  C   UNL     1       3.626   4.178  18.426  0.00  0.00    +0.000 A 
ATOM     11  N   UNL     1       3.951   2.915  18.188  0.00  0.00    +0.000 NA
ATOM     12  C   UNL     1       2.976   2.163  18.787  0.00  0.00    +0.000 A 
ATOM     13  C   UNL     1       2.054   2.964  19.412  0.00  0.00    +0.000 A 
ATOM     14  N   UNL     1       2.470   4.247  19.192  0.00  0.00    +0.000 N 
ATOM     15  N   UNL     1       1.830   5.355  19.658  0.00  0.00    +0.000 NA
BRANCH   9  16
ATOM     16  N   UNL     1       5.444   5.470  17.300  0.00  0.00    +0.000 N 
ATOM     17  C   UNL     1       5.468   5.263  15.838  0.00  0.00    +0.000 C 
ATOM     18  C   UNL     1       6.433   4.126  15.487  0.00  0.00    +0.000 C 
ATOM     19  O   UNL     1       7.757   4.386  15.993  0.00  0.00    +0.000 OA
ATOM     20  C   UNL     1       7.721   4.542  17.421  0.00  0.00    +0.000 C 
ATOM     21  C   UNL     1       6.800   5.698  17.838  0.00  0.00    +0.000 C 
ENDBRANCH   9  16
ENDBRANCH   4   7
BRANCH   1  25
ATOM     22  O   UNL     1      -0.274  11.147  23.003  0.00  0.00    +0.000 OA
ATOM     23  C   UNL     1      -0.531  11.766  21.976  0.00  0.00    +0.000 C 
ATOM     24  N   UNL     1      -1.310  12.909  21.960  0.00  0.00    +0.000 N 
ATOM     25  N   UNL     1      -0.109  11.385  20.714  0.00  0.00    +0.000 N 
ATOM     26  H   UNL     1      -1.664  13.214  21.066  0.00  0.00    +0.000 HD
ATOM     27  H   UNL     1      -0.283  12.016  19.947  0.00  0.00    +0.000 HD
BRANCH  24  28
ATOM     28  C   UNL     1      -1.898  13.484  23.118  0.00  0.00    +0.000 A 
ATOM     29  C   UNL     1      -3.164  13.135  23.589  0.00  0.00    +0.000 A 
ATOM     30  C   UNL     1      -3.686  13.804  24.679  0.00  0.00    +0.000 A 
ATOM     31  N   UNL     1      -3.028  14.774  25.340  0.00  0.00    +0.000 NA
ATOM     32  C   UNL     1      -1.794  15.079  24.890  0.00  0.00    +0.000 A 
ATOM     33  C   UNL     1      -1.184  14.463  23.805  0.00  0.00    +0.000 A 
ENDBRANCH  24  28
ENDBRANCH   1  25
TORSDOF 4
ENDMDL
MODEL 3
REMARK VINA RESULT:      -8.6      0.951      1.532
REMARK  Name = 
REMARK  4 active torsions:
REMARK  status: ('A' for Active; 'I' for Inactive)
REMARK    1  A    between atoms: N_3  and  C_4
REMARK    2  A    between atoms: N_10  and  C_11
REMARK    3  A    between atoms: C_14  and  C_15
REMARK    4  A    between atoms: C_17  and  N_18
REMARK                            x       y       z     vdW  Elec       q    Type
REMARK                         _______ _______ _______ _____ _____    ______ ____
ROOT
ATOM      1  C   UNL     1       0.965  10.540  18.844  0.00  0.00    +0.000 A 
ATOM      2  C   UNL     1       1.599   9.831  17.821  0.00  0.00    +0.000 A 
ATOM      3  C   UNL     1       2.033   8.524  18.009  0.00  0.00    +0.000 A 
ATOM      4  C   UNL     1       1.874   7.905  19.245  0.00  0.00    +0.000 A 
ATOM      5  C   UNL     1       1.195   8.578  20.267  0.00  0.00    +0.000 A 
ATOM      6  C   UNL     1       0.742   9.890  20.065  0.00  0.00    +0.000 A 
ENDROOT
BRANCH   4   7
ATOM      7  C   UNL     1       2.438   6.549  19.483  0.00  0.00    +0.000 A 
ATOM      8  C   UNL     1       3.592   6.179  18.615  0.00  0.00    +0.000 A 
ATOM      9  C   UNL     1       4.144   4.956  18.695  0.00  0.00    +0.000 A 
ATOM     10  C   UNL     1       3.591   4.089  19.697  0.00  0.00    +0.000 A 
ATOM     11  N   UNL     1       3.923   2.865  20.079  0.00  0.00    +0.000 NA
ATOM     12  C   UNL     1       3.063   2.548  21.097  0.00  0.00    +0.000 A 
ATOM     13  C   UNL     1       2.208   3.588  21.356  0.00  0.00    +0.000 A 
ATOM     14  N   UNL     1       2.547   4.574  20.472  0.00  0.00    +0.000 N 
ATOM     15  N   UNL     1       1.938   5.790  20.405  0.00  0.00    +0.000 NA
BRANCH   9  16
ATOM     16  N   UNL     1       5.196   4.579  17.846  0.00  0.00    +0.000 N 
ATOM     17  C   UNL     1       6.623   4.707  18.205  0.00  0.00    +0.000 C 
ATOM     18  C   UNL     1       7.350   5.558  17.158  0.00  0.00    +0.000 C 
ATOM     19  O   UNL     1       7.198   5.007  15.835  0.00  0.00    +0.000 OA
ATOM     20  C   UNL     1       5.806   4.929  15.487  0.00  0.00    +0.000 C 
ATOM     21  C   UNL     1       5.026   4.051  16.478  0.00  0.00    +0.000 C 
ENDBRANCH   9  16
ENDBRANCH   4   7
BRANCH   1  25
ATOM     22  O   UNL     1       2.515  12.923  19.372  0.00  0.00    +0.000 OA
ATOM     23  C   UNL     1       1.344  12.990  19.016  0.00  0.00    +0.000 C 
ATOM     24  N   UNL     1       0.654  14.185  18.921  0.00  0.00    +0.000 N 
ATOM     25  N   UNL     1       0.563  11.891  18.703  0.00  0.00    +0.000 N 
ATOM     26  H   UNL     1      -0.352  14.134  18.854  0.00  0.00    +0.000 HD
ATOM     27  H   UNL     1      -0.356  12.057  18.322  0.00  0.00    +0.000 HD
BRANCH  24  28
ATOM     28  C   UNL     1       1.217  15.453  19.225  0.00  0.00    +0.000 A 
ATOM     29  C   UNL     1       1.104  16.062  20.476  0.00  0.00    +0.000 A 
ATOM     30  C   UNL     1       1.617  17.331  20.657  0.00  0.00    +0.000 A 
ATOM     31  N   UNL     1       2.251  18.021  19.690  0.00  0.00    +0.000 NA
ATOM     32  C   UNL     1       2.377  17.407  18.497  0.00  0.00    +0.000 A 
ATOM     33  C   UNL     1       1.896  16.134  18.218  0.00  0.00    +0.000 A 
ENDBRANCH  24  28
ENDBRANCH   1  25
TORSDOF 4
ENDMDL
MODEL 4
REMARK VINA RESULT:      -8.6      2.560      3.154
REMARK  Name = 
REMARK  4 active torsions:
REMARK  status: ('A' for Active; 'I' for Inactive)
REMARK    1  A    between atoms: N_3  and  C_4
REMARK    2  A    between atoms: N_10  and  C_11
REMARK    3  A    between atoms: C_14  and  C_15
REMARK    4  A    between atoms: C_17  and  N_18
REMARK                            x       y       z     vdW  Elec       q    Type
REMARK                         _______ _______ _______ _____ _____    ______ ____
ROOT
ATOM      1  C   UNL     1       0.422  10.069  20.406  0.00  0.00    +0.000 A 
ATOM      2  C   UNL     1       1.067   9.783  19.200  0.00  0.00    +0.000 A 
ATOM      3  C   UNL     1       1.725   8.576  18.999  0.00  0.00    +0.000 A 
ATOM      4  C   UNL     1       1.786   7.634  20.022  0.00  0.00    +0.000 A 
ATOM      5  C   UNL     1       1.103   7.877  21.220  0.00  0.00    +0.000 A 
ATOM      6  C   UNL     1       0.424   9.090  21.408  0.00  0.00    +0.000 A 
ENDROOT
BRANCH   4   7
ATOM      7  C   UNL     1       2.585   6.391  19.852  0.00  0.00    +0.000 A 
ATOM      8  C   UNL     1       3.774   6.517  18.961  0.00  0.00    +0.000 A 
ATOM      9  C   UNL     1       4.535   5.445  18.681  0.00  0.00    +0.000 A 
ATOM     10  C   UNL     1       4.159   4.226  19.340  0.00  0.00    +0.000 A 
ATOM     11  N   UNL     1       4.709   3.020  19.337  0.00  0.00    +0.000 NA
ATOM     12  C   UNL     1       3.933   2.257  20.169  0.00  0.00    +0.000 A 
ATOM     13  C   UNL     1       2.910   3.000  20.701  0.00  0.00    +0.000 A 
ATOM     14  N   UNL     1       3.056   4.256  20.183  0.00  0.00    +0.000 N 
ATOM     15  N   UNL     1       2.240   5.307  20.471  0.00  0.00    +0.000 NA
BRANCH   9  16
ATOM     16  N   UNL     1       5.625   5.540  17.802  0.00  0.00    +0.000 N 
ATOM     17  C   UNL     1       5.497   5.475  16.332  0.00  0.00    +0.000 C 
ATOM     18  C   UNL     1       6.373   4.345  15.781  0.00  0.00    +0.000 C 
ATOM     19  O   UNL     1       7.751   4.509  16.173  0.00  0.00    +0.000 OA
ATOM     20  C   UNL     1       7.860   4.527  17.605  0.00  0.00    +0.000 C 
ATOM     21  C   UNL     1       7.035   5.669  18.219  0.00  0.00    +0.000 C 
ENDBRANCH   9  16
ENDBRANCH   4   7
BRANCH   1  25
ATOM     22  O   UNL     1      -0.318  11.195  22.963  0.00  0.00    +0.000 OA
ATOM     23  C   UNL     1      -0.576  11.774  21.913  0.00  0.00    +0.000 C 
ATOM     24  N   UNL     1      -1.303  12.949  21.860  0.00  0.00    +0.000 N 
ATOM     25  N   UNL     1      -0.208  11.311  20.661  0.00  0.00    +0.000 N 
ATOM     26  H   UNL     1      -1.667  13.226  20.961  0.00  0.00    +0.000 HD
ATOM     27  H   UNL     1      -0.375  11.910  19.868  0.00  0.00    +0.000 HD
BRANCH  24  28
ATOM     28  C   UNL     1      -1.830  13.609  23.002  0.00  0.00    +0.000 A 
ATOM     29  C   UNL     1      -1.132  14.587  23.712  0.00  0.00    +0.000 A 
ATOM     30  C   UNL     1      -1.694  15.118  24.856  0.00  0.00    +0.000 A 
ATOM     31  N   UNL     1      -2.903  14.760  25.326  0.00  0.00    +0.000 NA
ATOM     32  C   UNL     1      -3.576  13.835  24.612  0.00  0.00    +0.000 A 
ATOM     33  C   UNL     1      -3.097  13.244  23.450  0.00  0.00    +0.000 A 
ENDBRANCH  24  28
ENDBRANCH   1  25
TORSDOF 4
ENDMDL
MODEL 5
REMARK VINA RESULT:      -8.6      2.684      3.080
REMARK  Name = 
REMARK  4 active torsions:
REMARK  status: ('A' for Active; 'I' for Inactive)
REMARK    1  A    between atoms: N_3  and  C_4
REMARK    2  A    between atoms: N_10  and  C_11
REMARK    3  A    between atoms: C_14  and  C_15
REMARK    4  A    between atoms: C_17  and  N_18
REMARK                            x       y       z     vdW  Elec       q    Type
REMARK                         _______ _______ _______ _____ _____    ______ ____
ROOT
ATOM      1  C   UNL     1       0.777   9.920  20.505  0.00  0.00    +0.000 A 
ATOM      2  C   UNL     1       0.925   8.923  21.473  0.00  0.00    +0.000 A 
ATOM      3  C   UNL     1       1.505   7.697  21.166  0.00  0.00    +0.000 A 
ATOM      4  C   UNL     1       1.920   7.425  19.866  0.00  0.00    +0.000 A 
ATOM      5  C   UNL     1       1.829   8.428  18.893  0.00  0.00    +0.000 A 
ATOM      6  C   UNL     1       1.261   9.670  19.214  0.00  0.00    +0.000 A 
ENDROOT
BRANCH   4   7
ATOM      7  C   UNL     1       2.436   6.077  19.509  0.00  0.00    +0.000 A 
ATOM      8  C   UNL     1       3.761   6.064  18.825  0.00  0.00    +0.000 A 
ATOM      9  C   UNL     1       4.299   4.909  18.399  0.00  0.00    +0.000 A 
ATOM     10  C   UNL     1       3.548   3.723  18.702  0.00  0.00    +0.000 A 
ATOM     11  N   UNL     1       3.805   2.442  18.485  0.00  0.00    +0.000 NA
ATOM     12  C   UNL     1       2.743   1.756  19.013  0.00  0.00    +0.000 A 
ATOM     13  C   UNL     1       1.836   2.618  19.575  0.00  0.00    +0.000 A 
ATOM     14  N   UNL     1       2.350   3.871  19.387  0.00  0.00    +0.000 N 
ATOM     15  N   UNL     1       1.753   5.019  19.810  0.00  0.00    +0.000 NA
BRANCH   9  16
ATOM     16  N   UNL     1       5.521   4.890  17.707  0.00  0.00    +0.000 N 
ATOM     17  C   UNL     1       6.759   5.515  18.217  0.00  0.00    +0.000 C 
ATOM     18  C   UNL     1       7.289   6.530  17.199  0.00  0.00    +0.000 C 
ATOM     19  O   UNL     1       7.510   5.919  15.913  0.00  0.00    +0.000 OA
ATOM     20  C   UNL     1       6.286   5.355  15.414  0.00  0.00    +0.000 C 
ATOM     21  C   UNL     1       5.723   4.294  16.372  0.00  0.00    +0.000 C 
ENDBRANCH   9  16
ENDBRANCH   4   7
BRANCH   1  25
ATOM     22  O   UNL     1      -0.319  10.854  23.012  0.00  0.00    +0.000 OA
ATOM     23  C   UNL     1      -0.404  11.525  21.989  0.00  0.00    +0.000 C 
ATOM     24  N   UNL     1      -1.093  12.723  21.930  0.00  0.00    +0.000 N 
ATOM     25  N   UNL     1       0.139  11.156  20.771  0.00  0.00    +0.000 N 
ATOM     26  H   UNL     1      -1.313  13.085  21.015  0.00  0.00    +0.000 HD
ATOM     27  H   UNL     1       0.105  11.824  20.017  0.00  0.00    +0.000 HD
BRANCH  24  28
ATOM     28  C   UNL     1      -1.774  13.302  23.034  0.00  0.00    +0.000 A 
ATOM     29  C   UNL     1      -3.035  12.884  23.461  0.00  0.00    +0.000 A 
ATOM     30  C   UNL     1      -3.654  13.558  24.496  0.00  0.00    +0.000 A 
ATOM     31  N   UNL     1      -3.096  14.597  25.145  0.00  0.00    +0.000 NA
ATOM     32  C   UNL     1      -1.865  14.969  24.739  0.00  0.00    +0.000 A 
ATOM     33  C   UNL     1      -1.163  14.355  23.710  0.00  0.00    +0.000 A 
ENDBRANCH  24  28
ENDBRANCH   1  25
TORSDOF 4
ENDMDL
MODEL 6
REMARK VINA RESULT:      -8.4      2.215      2.692
REMARK  Name = 
REMARK  4 active torsions:
REMARK  status: ('A' for Active; 'I' for Inactive)
REMARK    1  A    between atoms: N_3  and  C_4
REMARK    2  A    between atoms: N_10  and  C_11
REMARK    3  A    between atoms: C_14  and  C_15
REMARK    4  A    between atoms: C_17  and  N_18
REMARK                            x       y       z     vdW  Elec       q    Type
REMARK                         _______ _______ _______ _____ _____    ______ ____
ROOT
ATOM      1  C   UNL     1       0.076   9.846  20.290  0.00  0.00    +0.000 A 
ATOM      2  C   UNL     1       0.160   8.893  21.308  0.00  0.00    +0.000 A 
ATOM      3  C   UNL     1       0.997   7.789  21.198  0.00  0.00    +0.000 A 
ATOM      4  C   UNL     1       1.748   7.593  20.043  0.00  0.00    +0.000 A 
ATOM      5  C   UNL     1       1.718   8.562  19.033  0.00  0.00    +0.000 A 
ATOM      6  C   UNL     1       0.886   9.684  19.159  0.00  0.00    +0.000 A 
ENDROOT
BRANCH   4   7
ATOM      7  C   UNL     1       2.557   6.357  19.874  0.00  0.00    +0.000 A 
ATOM      8  C   UNL     1       3.736   6.487  18.971  0.00  0.00    +0.000 A 
ATOM      9  C   UNL     1       4.506   5.422  18.692  0.00  0.00    +0.000 A 
ATOM     10  C   UNL     1       4.148   4.203  19.364  0.00  0.00    +0.000 A 
ATOM     11  N   UNL     1       4.710   3.004  19.365  0.00  0.00    +0.000 NA
ATOM     12  C   UNL     1       3.951   2.239  20.211  0.00  0.00    +0.000 A 
ATOM     13  C   UNL     1       2.926   2.976  20.747  0.00  0.00    +0.000 A 
ATOM     14  N   UNL     1       3.054   4.229  20.217  0.00  0.00    +0.000 N 
ATOM     15  N   UNL     1       2.230   5.274  20.505  0.00  0.00    +0.000 NA
BRANCH   9  16
ATOM     16  N   UNL     1       5.586   5.520  17.801  0.00  0.00    +0.000 N 
ATOM     17  C   UNL     1       5.448   5.418  16.334  0.00  0.00    +0.000 C 
ATOM     18  C   UNL     1       6.345   4.295  15.802  0.00  0.00    +0.000 C 
ATOM     19  O   UNL     1       7.721   4.500  16.179  0.00  0.00    +0.000 OA
ATOM     20  C   UNL     1       7.842   4.555  17.609  0.00  0.00    +0.000 C 
ATOM     21  C   UNL     1       6.996   5.692  18.203  0.00  0.00    +0.000 C 
ENDBRANCH   9  16
ENDBRANCH   4   7
BRANCH   1  25
ATOM     22  O   UNL     1      -0.200  11.801  22.403  0.00  0.00    +0.000 OA
ATOM     23  C   UNL     1      -0.921  11.827  21.412  0.00  0.00    +0.000 C 
ATOM     24  N   UNL     1      -1.964  12.724  21.263  0.00  0.00    +0.000 N 
ATOM     25  N   UNL     1      -0.810  10.951  20.347  0.00  0.00    +0.000 N 
ATOM     26  H   UNL     1      -2.643  12.527  20.544  0.00  0.00    +0.000 HD
ATOM     27  H   UNL     1      -1.381  11.120  19.534  0.00  0.00    +0.000 HD
BRANCH  24  28
ATOM     28  C   UNL     1      -2.313  13.701  22.232  0.00  0.00    +0.000 A 
ATOM     29  C   UNL     1      -1.779  14.991  22.248  0.00  0.00    +0.000 A 
ATOM     30  C   UNL     1      -2.119  15.849  23.276  0.00  0.00    +0.000 A 
ATOM     31  N   UNL     1      -2.967  15.521  24.268  0.00  0.00    +0.000 NA
ATOM     32  C   UNL     1      -3.497  14.282  24.222  0.00  0.00    +0.000 A 
ATOM     33  C   UNL     1      -3.217  13.349  23.232  0.00  0.00    +0.000 A 
ENDBRANCH  24  28
ENDBRANCH   1  25
TORSDOF 4
ENDMDL
MODEL 7
REMARK VINA RESULT:      -8.4      1.244      1.373
REMARK  Name = 
REMARK  4 active torsions:
REMARK  status: ('A' for Active; 'I' for Inactive)
REMARK    1  A    between atoms: N_3  and  C_4
REMARK    2  A    between atoms: N_10  and  C_11
REMARK    3  A    between atoms: C_14  and  C_15
REMARK    4  A    between atoms: C_17  and  N_18
REMARK                            x       y       z     vdW  Elec       q    Type
REMARK                         _______ _______ _______ _____ _____    ______ ____
ROOT
ATOM      1  C   UNL     1       1.104  10.293  19.132  0.00  0.00    +0.000 A 
ATOM      2  C   UNL     1       1.114   9.442  20.240  0.00  0.00    +0.000 A 
ATOM      3  C   UNL     1       1.619   8.150  20.157  0.00  0.00    +0.000 A 
ATOM      4  C   UNL     1       2.095   7.662  18.943  0.00  0.00    +0.000 A 
ATOM      5  C   UNL     1       2.143   8.514  17.833  0.00  0.00    +0.000 A 
ATOM      6  C   UNL     1       1.650   9.824  17.929  0.00  0.00    +0.000 A 
ENDROOT
BRANCH   4   7
ATOM      7  C   UNL     1       2.531   6.245  18.822  0.00  0.00    +0.000 A 
ATOM      8  C   UNL     1       3.799   6.033  18.069  0.00  0.00    +0.000 A 
ATOM      9  C   UNL     1       4.260   4.791  17.840  0.00  0.00    +0.000 A 
ATOM     10  C   UNL     1       3.488   3.726  18.417  0.00  0.00    +0.000 A 
ATOM     11  N   UNL     1       3.677   2.415  18.437  0.00  0.00    +0.000 NA
ATOM     12  C   UNL     1       2.633   1.900  19.158  0.00  0.00    +0.000 A 
ATOM     13  C   UNL     1       1.804   2.900  19.599  0.00  0.00    +0.000 A 
ATOM     14  N   UNL     1       2.350   4.064  19.137  0.00  0.00    +0.000 N 
ATOM     15  N   UNL     1       1.831   5.302  19.368  0.00  0.00    +0.000 NA
BRANCH   9  16
ATOM     16  N   UNL     1       5.424   4.576  17.087  0.00  0.00    +0.000 N 
ATOM     17  C   UNL     1       6.782   4.898  17.570  0.00  0.00    +0.000 C 
ATOM     18  C   UNL     1       7.470   5.857  16.593  0.00  0.00    +0.000 C 
ATOM     19  O   UNL     1       7.513   5.309  15.261  0.00  0.00    +0.000 OA
ATOM     20  C   UNL     1       6.182   5.042  14.792  0.00  0.00    +0.000 C 
ATOM     21  C   UNL     1       5.449   4.049  15.708  0.00  0.00    +0.000 C 
ENDBRANCH   9  16
ENDBRANCH   4   7
BRANCH   1  25
ATOM     22  O   UNL     1       2.382  12.799  18.466  0.00  0.00    +0.000 OA
ATOM     23  C   UNL     1       1.228  12.761  18.879  0.00  0.00    +0.000 C 
ATOM     24  N   UNL     1       0.483  13.898  19.136  0.00  0.00    +0.000 N 
ATOM     25  N   UNL     1       0.545  11.593  19.170  0.00  0.00    +0.000 N 
ATOM     26  H   UNL     1      -0.354  13.787  19.688  0.00  0.00    +0.000 HD
ATOM     27  H   UNL     1      -0.433  11.663  19.404  0.00  0.00    +0.000 HD
BRANCH  24  28
ATOM     28  C   UNL     1       0.967  15.221  18.957  0.00  0.00    +0.000 A 
ATOM     29  C   UNL     1       2.274  15.606  19.258  0.00  0.00    +0.000 A 
ATOM     30  C   UNL     1       2.633  16.933  19.125  0.00  0.00    +0.000 A 
ATOM     31  N   UNL     1       1.792  17.892  18.694  0.00  0.00    +0.000 NA
ATOM     32  C   UNL     1       0.541  17.498  18.381  0.00  0.00    +0.000 A 
ATOM     33  C   UNL     1       0.086  16.189  18.480  0.00  0.00    +0.000 A 
ENDBRANCH  24  28
ENDBRANCH   1  25
TORSDOF 4
ENDMDL
MODEL 8
REMARK VINA RESULT:      -8.4      0.995      1.651
REMARK  Name = 
REMARK  4 active torsions:
REMARK  status: ('A' for Active; 'I' for Inactive)
REMARK    1  A    between atoms: N_3  and  C_4
REMARK    2  A    between atoms: N_10  and  C_11
REMARK    3  A    between atoms: C_14  and  C_15
REMARK    4  A    between atoms: C_17  and  N_18
REMARK                            x       y       z     vdW  Elec       q    Type
REMARK                         _______ _______ _______ _____ _____    ______ ____
ROOT
ATOM      1  C   UNL     1       0.471  10.565  19.547  0.00  0.00    +0.000 A 
ATOM      2  C   UNL     1       0.975  10.041  18.354  0.00  0.00    +0.000 A 
ATOM      3  C   UNL     1       1.589   8.795  18.313  0.00  0.00    +0.000 A 
ATOM      4  C   UNL     1       1.749   8.055  19.481  0.00  0.00    +0.000 A 
ATOM      5  C   UNL     1       1.206   8.537  20.678  0.00  0.00    +0.000 A 
ATOM      6  C   UNL     1       0.569   9.787  20.708  0.00  0.00    +0.000 A 
ENDROOT
BRANCH   4   7
ATOM      7  C   UNL     1       2.505   6.775  19.461  0.00  0.00    +0.000 A 
ATOM      8  C   UNL     1       3.726   6.772  18.605  0.00  0.00    +0.000 A 
ATOM      9  C   UNL     1       4.456   5.653  18.458  0.00  0.00    +0.000 A 
ATOM     10  C   UNL     1       4.013   4.517  19.218  0.00  0.00    +0.000 A 
ATOM     11  N   UNL     1       4.517   3.300  19.352  0.00  0.00    +0.000 NA
ATOM     12  C   UNL     1       3.688   2.649  20.227  0.00  0.00    +0.000 A 
ATOM     13  C   UNL     1       2.676   3.475  20.647  0.00  0.00    +0.000 A 
ATOM     14  N   UNL     1       2.886   4.668  20.014  0.00  0.00    +0.000 N 
ATOM     15  N   UNL     1       2.101   5.770  20.170  0.00  0.00    +0.000 NA
BRANCH   9  16
ATOM     16  N   UNL     1       5.577   5.623  17.614  0.00  0.00    +0.000 N 
ATOM     17  C   UNL     1       5.493   5.436  16.151  0.00  0.00    +0.000 C 
ATOM     18  C   UNL     1       6.333   4.225  15.731  0.00  0.00    +0.000 C 
ATOM     19  O   UNL     1       7.703   4.363  16.156  0.00  0.00    +0.000 OA
ATOM     20  C   UNL     1       7.768   4.502  17.584  0.00  0.00    +0.000 C 
ATOM     21  C   UNL     1       6.977   5.727  18.068  0.00  0.00    +0.000 C 
ENDBRANCH   9  16
ENDBRANCH   4   7
BRANCH   1  25
ATOM     22  O   UNL     1       1.669  13.104  18.854  0.00  0.00    +0.000 OA
ATOM     23  C   UNL     1       0.538  13.039  19.324  0.00  0.00    +0.000 C 
ATOM     24  N   UNL     1      -0.213  14.158  19.636  0.00  0.00    +0.000 N 
ATOM     25  N   UNL     1      -0.108  11.855  19.633  0.00  0.00    +0.000 N 
ATOM     26  H   UNL     1      -1.019  14.023  20.228  0.00  0.00    +0.000 HD
ATOM     27  H   UNL     1      -1.074  11.903  19.917  0.00  0.00    +0.000 HD
BRANCH  24  28
ATOM     28  C   UNL     1       0.238  15.492  19.453  0.00  0.00    +0.000 A 
ATOM     29  C   UNL     1       1.199  16.095  20.266  0.00  0.00    +0.000 A 
ATOM     30  C   UNL     1       1.518  17.423  20.060  0.00  0.00    +0.000 A 
ATOM     31  N   UNL     1       0.967  18.179  19.092  0.00  0.00    +0.000 NA
ATOM     32  C   UNL     1       0.062  17.573  18.298  0.00  0.00    +0.000 A 
ATOM     33  C   UNL     1      -0.324  16.245  18.425  0.00  0.00    +0.000 A 
ENDBRANCH  24  28
ENDBRANCH   1  25
TORSDOF 4
ENDMDL
MODEL 9
REMARK VINA RESULT:      -8.4      1.362      1.652
REMARK  Name = 
REMARK  4 active torsions:
REMARK  status: ('A' for Active; 'I' for Inactive)
REMARK    1  A    between atoms: N_3  and  C_4
REMARK    2  A    between atoms: N_10  and  C_11
REMARK    3  A    between atoms: C_14  and  C_15
REMARK    4  A    between atoms: C_17  and  N_18
REMARK                            x       y       z     vdW  Elec       q    Type
REMARK                         _______ _______ _______ _____ _____    ______ ____
ROOT
ATOM      1  C   UNL     1       0.829  10.124  19.563  0.00  0.00    +0.000 A 
ATOM      2  C   UNL     1       1.464   9.617  18.427  0.00  0.00    +0.000 A 
ATOM      3  C   UNL     1       2.037   8.351  18.422  0.00  0.00    +0.000 A 
ATOM      4  C   UNL     1       2.021   7.572  19.576  0.00  0.00    +0.000 A 
ATOM      5  C   UNL     1       1.346   8.039  20.710  0.00  0.00    +0.000 A 
ATOM      6  C   UNL     1       0.751   9.310  20.701  0.00  0.00    +0.000 A 
ENDROOT
BRANCH   4   7
ATOM      7  C   UNL     1       2.732   6.266  19.609  0.00  0.00    +0.000 A 
ATOM      8  C   UNL     1       3.952   6.184  18.756  0.00  0.00    +0.000 A 
ATOM      9  C   UNL     1       4.641   5.035  18.656  0.00  0.00    +0.000 A 
ATOM     10  C   UNL     1       4.158   3.948  19.462  0.00  0.00    +0.000 A 
ATOM     11  N   UNL     1       4.619   2.720  19.646  0.00  0.00    +0.000 NA
ATOM     12  C   UNL     1       3.767   2.136  20.546  0.00  0.00    +0.000 A 
ATOM     13  C   UNL     1       2.786   3.014  20.931  0.00  0.00    +0.000 A 
ATOM     14  N   UNL     1       3.037   4.172  20.250  0.00  0.00    +0.000 N 
ATOM     15  N   UNL     1       2.292   5.306  20.359  0.00  0.00    +0.000 NA
BRANCH   9  16
ATOM     16  N   UNL     1       5.759   4.931  17.814  0.00  0.00    +0.000 N 
ATOM     17  C   UNL     1       7.075   5.525  18.126  0.00  0.00    +0.000 C 
ATOM     18  C   UNL     1       7.504   6.468  16.996  0.00  0.00    +0.000 C 
ATOM     19  O   UNL     1       7.532   5.786  15.726  0.00  0.00    +0.000 OA
ATOM     20  C   UNL     1       6.235   5.252  15.421  0.00  0.00    +0.000 C 
ATOM     21  C   UNL     1       5.764   4.263  16.498  0.00  0.00    +0.000 C 
ENDBRANCH   9  16
ENDBRANCH   4   7
BRANCH   1  25
ATOM     22  O   UNL     1       1.762  12.376  21.118  0.00  0.00    +0.000 OA
ATOM     23  C   UNL     1       0.757  12.456  20.420  0.00  0.00    +0.000 C 
ATOM     24  N   UNL     1      -0.048  13.581  20.383  0.00  0.00    +0.000 N 
ATOM     25  N   UNL     1       0.285  11.431  19.617  0.00  0.00    +0.000 N 
ATOM     26  H   UNL     1      -0.965  13.479  19.977  0.00  0.00    +0.000 HD
ATOM     27  H   UNL     1      -0.489  11.630  19.003  0.00  0.00    +0.000 HD
BRANCH  24  28
ATOM     28  C   UNL     1       0.195  14.754  21.145  0.00  0.00    +0.000 A 
ATOM     29  C   UNL     1       0.964  15.824  20.682  0.00  0.00    +0.000 A 
ATOM     30  C   UNL     1       1.211  16.891  21.523  0.00  0.00    +0.000 A 
ATOM     31  N   UNL     1       0.729  16.976  22.777  0.00  0.00    +0.000 NA
ATOM     32  C   UNL     1      -0.035  15.948  23.199  0.00  0.00    +0.000 A 
ATOM     33  C   UNL     1      -0.340  14.834  22.428  0.00  0.00    +0.000 A 
ENDBRANCH  24  28
ENDBRANCH   1  25
TORSDOF 4
ENDMDL
