MODEL 1
REMARK VINA RESULT:      -8.7      0.000      0.000
REMARK  Name = 
REMARK  4 active torsions:
REMARK  status: ('A' for Active; 'I' for Inactive)
REMARK    1  A    between atoms: C_1  and  N_2
REMARK    2  A    between atoms: N_11  and  C_12
REMARK    3  A    between atoms: C_17  and  N_18
REMARK    4  A    between atoms: N_18  and  C_19
REMARK                            x       y       z     vdW  Elec       q    Type
REMARK                         _______ _______ _______ _____ _____    ______ ____
ROOT
ATOM      1  C   UNL     1      -1.936  13.357  23.467  0.00  0.00    +0.000 C 
ATOM      2  N   UNL     1      -1.275  12.997  22.223  0.00  0.00    +0.000 N 
ATOM      3  C   UNL     1      -0.593  11.792  22.169  0.00  0.00    +0.000 A 
ATOM      4  O   UNL     1      -0.328  11.126  23.164  0.00  0.00    +0.000 OA
ATOM      5  C   UNL     1      -0.053  11.398  20.861  0.00  0.00    +0.000 A 
ATOM      6  C   UNL     1       0.429  10.117  20.559  0.00  0.00    +0.000 A 
ATOM      7  C   UNL     1       1.104   9.888  19.365  0.00  0.00    +0.000 A 
ATOM      8  C   UNL     1       1.227  10.934  18.476  0.00  0.00    +0.000 A 
ATOM      9  N   UNL     1       0.725  12.163  18.725  0.00  0.00    +0.000 NA
ATOM     10  C   UNL     1       0.101  12.396  19.905  0.00  0.00    +0.000 A 
ATOM     11  N   UNL     1      -0.380  13.693  20.162  0.00  0.00    +0.000 N 
ATOM     12  C   UNL     1      -0.146  14.747  19.189  0.00  0.00    +0.000 C 
ATOM     13  C   UNL     1      -1.087  14.019  21.303  0.00  0.00    +0.000 A 
ATOM     14  O   UNL     1      -1.497  15.160  21.506  0.00  0.00    +0.000 OA
ATOM     15  C   UNL     1       1.718   8.580  19.051  0.00  0.00    +0.000 C 
ATOM     16  O   UNL     1       2.172   8.357  17.947  0.00  0.00    +0.000 OA
ATOM     17  C   UNL     1       1.857   7.611  20.185  0.00  0.00    +0.000 C 
ATOM     18  C   UNL     1       1.167   7.846  21.315  0.00  0.00    +0.000 C 
ATOM     19  C   UNL     1       0.193   8.940  21.397  0.00  0.00    +0.000 C 
ATOM     20  O   UNL     1      -0.844   8.789  22.040  0.00  0.00    +0.000 OA
ENDROOT
BRANCH  17  21
ATOM     21  N   UNL     1       2.678   6.517  19.989  0.00  0.00    +0.000 N 
ATOM     22  H   UNL     1       3.585   6.572  20.450  0.00  0.00    +0.000 HD
BRANCH  21  23
ATOM     23  C   UNL     1       2.232   5.213  19.687  0.00  0.00    +0.000 A 
ATOM     24  C   UNL     1       1.766   4.349  20.689  0.00  0.00    +0.000 A 
ATOM     25  C   UNL     1       1.155   3.138  20.373  0.00  0.00    +0.000 A 
ATOM     26  C   UNL     1       1.002   2.769  19.041  0.00  0.00    +0.000 A 
ATOM     27  C   UNL     1       1.488   3.595  18.032  0.00  0.00    +0.000 A 
ATOM     28  C   UNL     1       2.104   4.808  18.353  0.00  0.00    +0.000 A 
ENDBRANCH  21  23
ENDBRANCH  17  21
TORSDOF 2
ENDMDL
MODEL 2
REMARK VINA RESULT:      -8.6      2.871      7.708
REMARK  Name = 
REMARK  4 active torsions:
REMARK  status: ('A' for Active; 'I' for Inactive)
REMARK    1  A    between atoms: C_1  and  N_2
REMARK    2  A    between atoms: N_11  and  C_12
REMARK    3  A    between atoms: C_17  and  N_18
REMARK    4  A    between atoms: N_18  and  C_19
REMARK                            x       y       z     vdW  Elec       q    Type
REMARK                         _______ _______ _______ _____ _____    ______ ____
ROOT
ATOM      1  C   UNL     1       2.597   2.884  21.390  0.00  0.00    +0.000 C 
ATOM      2  N   UNL     1       2.955   3.883  20.397  0.00  0.00    +0.000 N 
ATOM      3  C   UNL     1       2.181   5.029  20.310  0.00  0.00    +0.000 A 
ATOM      4  O   UNL     1       1.091   5.145  20.862  0.00  0.00    +0.000 OA
ATOM      5  C   UNL     1       2.650   6.074  19.391  0.00  0.00    +0.000 A 
ATOM      6  C   UNL     1       2.152   7.384  19.365  0.00  0.00    +0.000 A 
ATOM      7  C   UNL     1       2.509   8.247  18.334  0.00  0.00    +0.000 A 
ATOM      8  C   UNL     1       3.403   7.795  17.388  0.00  0.00    +0.000 A 
ATOM      9  N   UNL     1       3.935   6.553  17.423  0.00  0.00    +0.000 NA
ATOM     10  C   UNL     1       3.558   5.700  18.407  0.00  0.00    +0.000 A 
ATOM     11  N   UNL     1       4.092   4.399  18.403  0.00  0.00    +0.000 N 
ATOM     12  C   UNL     1       4.980   3.994  17.326  0.00  0.00    +0.000 C 
ATOM     13  C   UNL     1       3.824   3.475  19.394  0.00  0.00    +0.000 A 
ATOM     14  O   UNL     1       4.303   2.343  19.370  0.00  0.00    +0.000 OA
ATOM     15  C   UNL     1       1.928   9.601  18.211  0.00  0.00    +0.000 C 
ATOM     16  O   UNL     1       2.361  10.389  17.394  0.00  0.00    +0.000 OA
ATOM     17  C   UNL     1       0.721   9.896  19.047  0.00  0.00    +0.000 C 
ATOM     18  C   UNL     1       0.421   9.058  20.055  0.00  0.00    +0.000 C 
ATOM     19  C   UNL     1       1.322   7.961  20.424  0.00  0.00    +0.000 C 
ATOM     20  O   UNL     1       1.460   7.655  21.607  0.00  0.00    +0.000 OA
ENDROOT
BRANCH  17  21
ATOM     21  N   UNL     1      -0.003  11.032  18.739  0.00  0.00    +0.000 N 
ATOM     22  H   UNL     1       0.557  11.833  18.451  0.00  0.00    +0.000 HD
BRANCH  21  23
ATOM     23  C   UNL     1      -1.344  11.045  18.305  0.00  0.00    +0.000 A 
ATOM     24  C   UNL     1      -1.812  10.136  17.344  0.00  0.00    +0.000 A 
ATOM     25  C   UNL     1      -3.169  10.024  17.053  0.00  0.00    +0.000 A 
ATOM     26  C   UNL     1      -4.086  10.828  17.721  0.00  0.00    +0.000 A 
ATOM     27  C   UNL     1      -3.642  11.762  18.653  0.00  0.00    +0.000 A 
ATOM     28  C   UNL     1      -2.279  11.873  18.939  0.00  0.00    +0.000 A 
ENDBRANCH  21  23
ENDBRANCH  17  21
TORSDOF 2
ENDMDL
MODEL 3
REMARK VINA RESULT:      -8.2      0.833      1.196
REMARK  Name = 
REMARK  4 active torsions:
REMARK  status: ('A' for Active; 'I' for Inactive)
REMARK    1  A    between atoms: C_1  and  N_2
REMARK    2  A    between atoms: N_11  and  C_12
REMARK    3  A    between atoms: C_17  and  N_18
REMARK    4  A    between atoms: N_18  and  C_19
REMARK                            x       y       z     vdW  Elec       q    Type
REMARK                         _______ _______ _______ _____ _____    ______ ____
ROOT
ATOM      1  C   UNL     1      -2.445  12.363  23.639  0.00  0.00    +0.000 C 
ATOM      2  N   UNL     1      -1.693  12.204  22.405  0.00  0.00    +0.000 N 
ATOM      3  C   UNL     1      -0.894  11.082  22.265  0.00  0.00    +0.000 A 
ATOM      4  O   UNL     1      -0.612  10.337  23.199  0.00  0.00    +0.000 OA
ATOM      5  C   UNL     1      -0.254  10.886  20.957  0.00  0.00    +0.000 A 
ATOM      6  C   UNL     1       0.365   9.696  20.551  0.00  0.00    +0.000 A 
ATOM      7  C   UNL     1       1.117   9.663  19.382  0.00  0.00    +0.000 A 
ATOM      8  C   UNL     1       1.179  10.807  18.616  0.00  0.00    +0.000 A 
ATOM      9  N   UNL     1       0.547  11.950  18.963  0.00  0.00    +0.000 NA
ATOM     10  C   UNL     1      -0.154  11.992  20.122  0.00  0.00    +0.000 A 
ATOM     11  N   UNL     1      -0.772  13.203  20.484  0.00  0.00    +0.000 N 
ATOM     12  C   UNL     1      -0.597  14.375  19.643  0.00  0.00    +0.000 C 
ATOM     13  C   UNL     1      -1.562  13.334  21.610  0.00  0.00    +0.000 A 
ATOM     14  O   UNL     1      -2.092  14.403  21.906  0.00  0.00    +0.000 OA
ATOM     15  C   UNL     1       1.872   8.460  18.970  0.00  0.00    +0.000 C 
ATOM     16  O   UNL     1       2.398   8.403  17.877  0.00  0.00    +0.000 OA
ATOM     17  C   UNL     1       2.051   7.390  20.002  0.00  0.00    +0.000 C 
ATOM     18  C   UNL     1       1.287   7.434  21.108  0.00  0.00    +0.000 C 
ATOM     19  C   UNL     1       0.207   8.417  21.247  0.00  0.00    +0.000 C 
ATOM     20  O   UNL     1      -0.840   8.101  21.809  0.00  0.00    +0.000 OA
ENDROOT
BRANCH  17  21
ATOM     21  N   UNL     1       2.984   6.405  19.741  0.00  0.00    +0.000 N 
ATOM     22  H   UNL     1       3.861   6.497  20.252  0.00  0.00    +0.000 HD
BRANCH  21  23
ATOM     23  C   UNL     1       2.684   5.104  19.287  0.00  0.00    +0.000 A 
ATOM     24  C   UNL     1       2.182   4.877  17.997  0.00  0.00    +0.000 A 
ATOM     25  C   UNL     1       2.063   3.587  17.483  0.00  0.00    +0.000 A 
ATOM     26  C   UNL     1       2.444   2.498  18.259  0.00  0.00    +0.000 A 
ATOM     27  C   UNL     1       2.912   2.698  19.555  0.00  0.00    +0.000 A 
ATOM     28  C   UNL     1       3.027   3.993  20.068  0.00  0.00    +0.000 A 
ENDBRANCH  21  23
ENDBRANCH  17  21
TORSDOF 2
ENDMDL
MODEL 4
REMARK VINA RESULT:      -8.0      2.651      7.799
REMARK  Name = 
REMARK  4 active torsions:
REMARK  status: ('A' for Active; 'I' for Inactive)
REMARK    1  A    between atoms: C_1  and  N_2
REMARK    2  A    between atoms: N_11  and  C_12
REMARK    3  A    between atoms: C_17  and  N_18
REMARK    4  A    between atoms: N_18  and  C_19
REMARK                            x       y       z     vdW  Elec       q    Type
REMARK                         _______ _______ _______ _____ _____    ______ ____
ROOT
ATOM      1  C   UNL     1       2.484   3.035  21.395  0.00  0.00    +0.000 C 
ATOM      2  N   UNL     1       2.899   4.016  20.406  0.00  0.00    +0.000 N 
ATOM      3  C   UNL     1       2.137   5.163  20.260  0.00  0.00    +0.000 A 
ATOM      4  O   UNL     1       1.020   5.294  20.752  0.00  0.00    +0.000 OA
ATOM      5  C   UNL     1       2.658   6.192  19.350  0.00  0.00    +0.000 A 
ATOM      6  C   UNL     1       2.169   7.503  19.277  0.00  0.00    +0.000 A 
ATOM      7  C   UNL     1       2.584   8.347  18.252  0.00  0.00    +0.000 A 
ATOM      8  C   UNL     1       3.524   7.876  17.362  0.00  0.00    +0.000 A 
ATOM      9  N   UNL     1       4.047   6.633  17.445  0.00  0.00    +0.000 NA
ATOM     10  C   UNL     1       3.614   5.798  18.421  0.00  0.00    +0.000 A 
ATOM     11  N   UNL     1       4.142   4.494  18.466  0.00  0.00    +0.000 N 
ATOM     12  C   UNL     1       5.083   4.069  17.444  0.00  0.00    +0.000 C 
ATOM     13  C   UNL     1       3.817   3.589  19.456  0.00  0.00    +0.000 A 
ATOM     14  O   UNL     1       4.291   2.454  19.475  0.00  0.00    +0.000 OA
ATOM     15  C   UNL     1       2.018   9.702  18.077  0.00  0.00    +0.000 C 
ATOM     16  O   UNL     1       2.496  10.474  17.271  0.00  0.00    +0.000 OA
ATOM     17  C   UNL     1       0.770  10.016  18.843  0.00  0.00    +0.000 C 
ATOM     18  C   UNL     1       0.413   9.196  19.848  0.00  0.00    +0.000 C 
ATOM     19  C   UNL     1       1.288   8.101  20.282  0.00  0.00    +0.000 C 
ATOM     20  O   UNL     1       1.362   7.814  21.475  0.00  0.00    +0.000 OA
ENDROOT
BRANCH  17  21
ATOM     21  N   UNL     1       0.068  11.149  18.480  0.00  0.00    +0.000 N 
ATOM     22  H   UNL     1       0.382  11.590  17.616  0.00  0.00    +0.000 HD
BRANCH  21  23
ATOM     23  C   UNL     1      -1.260  11.437  18.856  0.00  0.00    +0.000 A 
ATOM     24  C   UNL     1      -1.547  12.212  19.990  0.00  0.00    +0.000 A 
ATOM     25  C   UNL     1      -2.842  12.651  20.256  0.00  0.00    +0.000 A 
ATOM     26  C   UNL     1      -3.876  12.317  19.389  0.00  0.00    +0.000 A 
ATOM     27  C   UNL     1      -3.620  11.520  18.277  0.00  0.00    +0.000 A 
ATOM     28  C   UNL     1      -2.320  11.078  18.014  0.00  0.00    +0.000 A 
ENDBRANCH  21  23
ENDBRANCH  17  21
TORSDOF 2
ENDMDL
MODEL 5
REMARK VINA RESULT:      -7.9      0.994      1.230
REMARK  Name = 
REMARK  4 active torsions:
REMARK  status: ('A' for Active; 'I' for Inactive)
REMARK    1  A    between atoms: C_1  and  N_2
REMARK    2  A    between atoms: N_11  and  C_12
REMARK    3  A    between atoms: C_17  and  N_18
REMARK    4  A    between atoms: N_18  and  C_19
REMARK                            x       y       z     vdW  Elec       q    Type
REMARK                         _______ _______ _______ _____ _____    ______ ____
ROOT
ATOM      1  C   UNL     1      -1.593  12.531  23.329  0.00  0.00    +0.000 C 
ATOM      2  N   UNL     1      -0.938  12.240  22.065  0.00  0.00    +0.000 N 
ATOM      3  C   UNL     1      -0.201  11.072  21.962  0.00  0.00    +0.000 A 
ATOM      4  O   UNL     1       0.113  10.389  22.932  0.00  0.00    +0.000 OA
ATOM      5  C   UNL     1       0.336  10.744  20.635  0.00  0.00    +0.000 A 
ATOM      6  C   UNL     1       0.872   9.497  20.285  0.00  0.00    +0.000 A 
ATOM      7  C   UNL     1       1.537   9.338  19.074  0.00  0.00    +0.000 A 
ATOM      8  C   UNL     1       1.595  10.415  18.217  0.00  0.00    +0.000 A 
ATOM      9  N   UNL     1       1.040  11.610  18.512  0.00  0.00    +0.000 NA
ATOM     10  C   UNL     1       0.425  11.777  19.708  0.00  0.00    +0.000 A 
ATOM     11  N   UNL     1      -0.112  13.041  20.012  0.00  0.00    +0.000 N 
ATOM     12  C   UNL     1       0.055  14.134  19.069  0.00  0.00    +0.000 C 
ATOM     13  C   UNL     1      -0.813  13.298  21.174  0.00  0.00    +0.000 A 
ATOM     14  O   UNL     1      -1.274  14.411  21.419  0.00  0.00    +0.000 OA
ATOM     15  C   UNL     1       2.207   8.070  18.711  0.00  0.00    +0.000 C 
ATOM     16  O   UNL     1       2.652   7.903  17.593  0.00  0.00    +0.000 OA
ATOM     17  C   UNL     1       2.411   7.075  19.812  0.00  0.00    +0.000 C 
ATOM     18  C   UNL     1       1.729   7.242  20.959  0.00  0.00    +0.000 C 
ATOM     19  C   UNL     1       0.707   8.286  21.090  0.00  0.00    +0.000 C 
ATOM     20  O   UNL     1      -0.311   8.066  21.745  0.00  0.00    +0.000 OA
ENDROOT
BRANCH  17  21
ATOM     21  N   UNL     1       3.279   6.028  19.569  0.00  0.00    +0.000 N 
ATOM     22  H   UNL     1       4.059   5.957  20.221  0.00  0.00    +0.000 HD
BRANCH  21  23
ATOM     23  C   UNL     1       2.942   4.835  18.898  0.00  0.00    +0.000 A 
ATOM     24  C   UNL     1       3.928   3.943  18.450  0.00  0.00    +0.000 A 
ATOM     25  C   UNL     1       3.596   2.683  17.958  0.00  0.00    +0.000 A 
ATOM     26  C   UNL     1       2.262   2.295  17.902  0.00  0.00    +0.000 A 
ATOM     27  C   UNL     1       1.264   3.176  18.308  0.00  0.00    +0.000 A 
ATOM     28  C   UNL     1       1.601   4.441  18.798  0.00  0.00    +0.000 A 
ENDBRANCH  21  23
ENDBRANCH  17  21
TORSDOF 2
ENDMDL
MODEL 6
REMARK VINA RESULT:      -7.9      2.638      4.092
REMARK  Name = 
REMARK  4 active torsions:
REMARK  status: ('A' for Active; 'I' for Inactive)
REMARK    1  A    between atoms: C_1  and  N_2
REMARK    2  A    between atoms: N_11  and  C_12
REMARK    3  A    between atoms: C_17  and  N_18
REMARK    4  A    between atoms: N_18  and  C_19
REMARK                            x       y       z     vdW  Elec       q    Type
REMARK                         _______ _______ _______ _____ _____    ______ ____
ROOT
ATOM      1  C   UNL     1      -1.149  13.170  18.997  0.00  0.00    +0.000 C 
ATOM      2  N   UNL     1      -0.661  12.043  19.775  0.00  0.00    +0.000 N 
ATOM      3  C   UNL     1      -0.100  10.973  19.098  0.00  0.00    +0.000 A 
ATOM      4  O   UNL     1      -0.196  10.823  17.884  0.00  0.00    +0.000 OA
ATOM      5  C   UNL     1       0.503   9.915  19.919  0.00  0.00    +0.000 A 
ATOM      6  C   UNL     1       1.333   8.903  19.418  0.00  0.00    +0.000 A 
ATOM      7  C   UNL     1       1.695   7.831  20.228  0.00  0.00    +0.000 A 
ATOM      8  C   UNL     1       1.266   7.832  21.537  0.00  0.00    +0.000 A 
ATOM      9  N   UNL     1       0.508   8.823  22.055  0.00  0.00    +0.000 NA
ATOM     10  C   UNL     1       0.124   9.848  21.255  0.00  0.00    +0.000 A 
ATOM     11  N   UNL     1      -0.698  10.850  21.803  0.00  0.00    +0.000 N 
ATOM     12  C   UNL     1      -1.151  10.730  23.178  0.00  0.00    +0.000 C 
ATOM     13  C   UNL     1      -1.091  11.967  21.093  0.00  0.00    +0.000 A 
ATOM     14  O   UNL     1      -1.810  12.831  21.592  0.00  0.00    +0.000 OA
ATOM     15  C   UNL     1       2.483   6.691  19.712  0.00  0.00    +0.000 C 
ATOM     16  O   UNL     1       2.913   5.843  20.467  0.00  0.00    +0.000 OA
ATOM     17  C   UNL     1       2.611   6.579  18.224  0.00  0.00    +0.000 C 
ATOM     18  C   UNL     1       2.281   7.644  17.471  0.00  0.00    +0.000 C 
ATOM     19  C   UNL     1       1.938   8.931  18.086  0.00  0.00    +0.000 C 
ATOM     20  O   UNL     1       2.287   9.979  17.545  0.00  0.00    +0.000 OA
ENDROOT
BRANCH  17  21
ATOM     21  N   UNL     1       3.084   5.385  17.715  0.00  0.00    +0.000 N 
ATOM     22  H   UNL     1       2.378   4.797  17.273  0.00  0.00    +0.000 HD
BRANCH  21  23
ATOM     23  C   UNL     1       4.411   5.148  17.303  0.00  0.00    +0.000 A 
ATOM     24  C   UNL     1       4.711   4.210  16.304  0.00  0.00    +0.000 A 
ATOM     25  C   UNL     1       5.992   4.109  15.766  0.00  0.00    +0.000 A 
ATOM     26  C   UNL     1       7.000   4.949  16.225  0.00  0.00    +0.000 A 
ATOM     27  C   UNL     1       6.734   5.864  17.240  0.00  0.00    +0.000 A 
ATOM     28  C   UNL     1       5.448   5.959  17.779  0.00  0.00    +0.000 A 
ENDBRANCH  21  23
ENDBRANCH  17  21
TORSDOF 2
ENDMDL
MODEL 7
REMARK VINA RESULT:      -7.8      1.905      3.349
REMARK  Name = 
REMARK  4 active torsions:
REMARK  status: ('A' for Active; 'I' for Inactive)
REMARK    1  A    between atoms: C_1  and  N_2
REMARK    2  A    between atoms: N_11  and  C_12
REMARK    3  A    between atoms: C_17  and  N_18
REMARK    4  A    between atoms: N_18  and  C_19
REMARK                            x       y       z     vdW  Elec       q    Type
REMARK                         _______ _______ _______ _____ _____    ______ ____
ROOT
ATOM      1  C   UNL     1      -1.207  13.173  19.073  0.00  0.00    +0.000 C 
ATOM      2  N   UNL     1      -0.687  12.042  19.823  0.00  0.00    +0.000 N 
ATOM      3  C   UNL     1      -0.098  11.004  19.120  0.00  0.00    +0.000 A 
ATOM      4  O   UNL     1      -0.190  10.881  17.903  0.00  0.00    +0.000 OA
ATOM      5  C   UNL     1       0.535   9.944  19.916  0.00  0.00    +0.000 A 
ATOM      6  C   UNL     1       1.392   8.967  19.390  0.00  0.00    +0.000 A 
ATOM      7  C   UNL     1       1.784   7.887  20.174  0.00  0.00    +0.000 A 
ATOM      8  C   UNL     1       1.356   7.843  21.483  0.00  0.00    +0.000 A 
ATOM      9  N   UNL     1       0.571   8.801  22.024  0.00  0.00    +0.000 NA
ATOM     10  C   UNL     1       0.159   9.833  21.250  0.00  0.00    +0.000 A 
ATOM     11  N   UNL     1      -0.690  10.799  21.821  0.00  0.00    +0.000 N 
ATOM     12  C   UNL     1      -1.139  10.633  23.193  0.00  0.00    +0.000 C 
ATOM     13  C   UNL     1      -1.114  11.922  21.139  0.00  0.00    +0.000 A 
ATOM     14  O   UNL     1      -1.857  12.753  21.659  0.00  0.00    +0.000 OA
ATOM     15  C   UNL     1       2.603   6.782  19.630  0.00  0.00    +0.000 C 
ATOM     16  O   UNL     1       3.056   5.927  20.364  0.00  0.00    +0.000 OA
ATOM     17  C   UNL     1       2.733   6.710  18.139  0.00  0.00    +0.000 C 
ATOM     18  C   UNL     1       2.374   7.783  17.413  0.00  0.00    +0.000 C 
ATOM     19  C   UNL     1       1.996   9.045  18.059  0.00  0.00    +0.000 C 
ATOM     20  O   UNL     1       2.315  10.115  17.544  0.00  0.00    +0.000 OA
ENDROOT
BRANCH  17  21
ATOM     21  N   UNL     1       3.239   5.542  17.602  0.00  0.00    +0.000 N 
ATOM     22  H   UNL     1       4.206   5.598  17.286  0.00  0.00    +0.000 HD
BRANCH  21  23
ATOM     23  C   UNL     1       2.775   4.244  17.902  0.00  0.00    +0.000 A 
ATOM     24  C   UNL     1       3.665   3.192  18.165  0.00  0.00    +0.000 A 
ATOM     25  C   UNL     1       3.213   1.964  18.643  0.00  0.00    +0.000 A 
ATOM     26  C   UNL     1       1.854   1.767  18.863  0.00  0.00    +0.000 A 
ATOM     27  C   UNL     1       0.950   2.786  18.576  0.00  0.00    +0.000 A 
ATOM     28  C   UNL     1       1.407   4.016  18.093  0.00  0.00    +0.000 A 
ENDBRANCH  21  23
ENDBRANCH  17  21
TORSDOF 2
ENDMDL
MODEL 8
REMARK VINA RESULT:      -7.6      2.454      7.937
REMARK  Name = 
REMARK  4 active torsions:
REMARK  status: ('A' for Active; 'I' for Inactive)
REMARK    1  A    between atoms: C_1  and  N_2
REMARK    2  A    between atoms: N_11  and  C_12
REMARK    3  A    between atoms: C_17  and  N_18
REMARK    4  A    between atoms: N_18  and  C_19
REMARK                            x       y       z     vdW  Elec       q    Type
REMARK                         _______ _______ _______ _____ _____    ______ ____
ROOT
ATOM      1  C   UNL     1       2.528   2.825  21.334  0.00  0.00    +0.000 C 
ATOM      2  N   UNL     1       2.898   3.835  20.356  0.00  0.00    +0.000 N 
ATOM      3  C   UNL     1       2.149   4.999  20.300  0.00  0.00    +0.000 A 
ATOM      4  O   UNL     1       1.069   5.130  20.868  0.00  0.00    +0.000 OA
ATOM      5  C   UNL     1       2.630   6.051  19.395  0.00  0.00    +0.000 A 
ATOM      6  C   UNL     1       2.163   7.372  19.400  0.00  0.00    +0.000 A 
ATOM      7  C   UNL     1       2.527   8.246  18.381  0.00  0.00    +0.000 A 
ATOM      8  C   UNL     1       3.398   7.792  17.415  0.00  0.00    +0.000 A 
ATOM      9  N   UNL     1       3.901   6.538  17.420  0.00  0.00    +0.000 NA
ATOM     10  C   UNL     1       3.517   5.675  18.392  0.00  0.00    +0.000 A 
ATOM     11  N   UNL     1       4.021   4.362  18.356  0.00  0.00    +0.000 N 
ATOM     12  C   UNL     1       4.885   3.958  17.261  0.00  0.00    +0.000 C 
ATOM     13  C   UNL     1       3.743   3.426  19.333  0.00  0.00    +0.000 A 
ATOM     14  O   UNL     1       4.195   2.284  19.281  0.00  0.00    +0.000 OA
ATOM     15  C   UNL     1       1.976   9.615  18.291  0.00  0.00    +0.000 C 
ATOM     16  O   UNL     1       2.417  10.408  17.483  0.00  0.00    +0.000 OA
ATOM     17  C   UNL     1       0.787   9.922  19.148  0.00  0.00    +0.000 C 
ATOM     18  C   UNL     1       0.480   9.072  20.144  0.00  0.00    +0.000 C 
ATOM     19  C   UNL     1       1.360   7.947  20.481  0.00  0.00    +0.000 C 
ATOM     20  O   UNL     1       1.506   7.616  21.656  0.00  0.00    +0.000 OA
ENDROOT
BRANCH  17  21
ATOM     21  N   UNL     1       0.086  11.080  18.871  0.00  0.00    +0.000 N 
ATOM     22  H   UNL     1      -0.279  11.144  17.921  0.00  0.00    +0.000 HD
BRANCH  21  23
ATOM     23  C   UNL     1      -0.578  11.874  19.828  0.00  0.00    +0.000 A 
ATOM     24  C   UNL     1      -1.968  12.061  19.787  0.00  0.00    +0.000 A 
ATOM     25  C   UNL     1      -2.646  12.685  20.831  0.00  0.00    +0.000 A 
ATOM     26  C   UNL     1      -1.939  13.139  21.939  0.00  0.00    +0.000 A 
ATOM     27  C   UNL     1      -0.555  12.995  21.986  0.00  0.00    +0.000 A 
ATOM     28  C   UNL     1       0.122  12.371  20.935  0.00  0.00    +0.000 A 
ENDBRANCH  21  23
ENDBRANCH  17  21
TORSDOF 2
ENDMDL
MODEL 9
REMARK VINA RESULT:      -7.5      2.535      8.053
REMARK  Name = 
REMARK  4 active torsions:
REMARK  status: ('A' for Active; 'I' for Inactive)
REMARK    1  A    between atoms: C_1  and  N_2
REMARK    2  A    between atoms: N_11  and  C_12
REMARK    3  A    between atoms: C_17  and  N_18
REMARK    4  A    between atoms: N_18  and  C_19
REMARK                            x       y       z     vdW  Elec       q    Type
REMARK                         _______ _______ _______ _____ _____    ______ ____
ROOT
ATOM      1  C   UNL     1       2.554   2.879  21.286  0.00  0.00    +0.000 C 
ATOM      2  N   UNL     1       2.918   3.892  20.309  0.00  0.00    +0.000 N 
ATOM      3  C   UNL     1       2.164   5.052  20.257  0.00  0.00    +0.000 A 
ATOM      4  O   UNL     1       1.084   5.177  20.825  0.00  0.00    +0.000 OA
ATOM      5  C   UNL     1       2.640   6.108  19.353  0.00  0.00    +0.000 A 
ATOM      6  C   UNL     1       2.166   7.428  19.361  0.00  0.00    +0.000 A 
ATOM      7  C   UNL     1       2.525   8.305  18.343  0.00  0.00    +0.000 A 
ATOM      8  C   UNL     1       3.398   7.857  17.376  0.00  0.00    +0.000 A 
ATOM      9  N   UNL     1       3.907   6.606  17.379  0.00  0.00    +0.000 NA
ATOM     10  C   UNL     1       3.527   5.739  18.349  0.00  0.00    +0.000 A 
ATOM     11  N   UNL     1       4.038   4.429  18.311  0.00  0.00    +0.000 N 
ATOM     12  C   UNL     1       4.904   4.031  17.214  0.00  0.00    +0.000 C 
ATOM     13  C   UNL     1       3.766   3.490  19.286  0.00  0.00    +0.000 A 
ATOM     14  O   UNL     1       4.223   2.350  19.232  0.00  0.00    +0.000 OA
ATOM     15  C   UNL     1       1.967   9.672  18.256  0.00  0.00    +0.000 C 
ATOM     16  O   UNL     1       2.404  10.469  17.450  0.00  0.00    +0.000 OA
ATOM     17  C   UNL     1       0.777   9.971  19.114  0.00  0.00    +0.000 C 
ATOM     18  C   UNL     1       0.475   9.117  20.109  0.00  0.00    +0.000 C 
ATOM     19  C   UNL     1       1.360   7.997  20.443  0.00  0.00    +0.000 C 
ATOM     20  O   UNL     1       1.508   7.664  21.617  0.00  0.00    +0.000 OA
ENDROOT
BRANCH  17  21
ATOM     21  N   UNL     1       0.069  11.126  18.840  0.00  0.00    +0.000 N 
ATOM     22  H   UNL     1      -0.900  10.980  18.560  0.00  0.00    +0.000 HD
BRANCH  21  23
ATOM     23  C   UNL     1       0.360  12.399  19.370  0.00  0.00    +0.000 A 
ATOM     24  C   UNL     1       0.707  12.568  20.719  0.00  0.00    +0.000 A 
ATOM     25  C   UNL     1       1.174  13.790  21.199  0.00  0.00    +0.000 A 
ATOM     26  C   UNL     1       1.297  14.870  20.332  0.00  0.00    +0.000 A 
ATOM     27  C   UNL     1       0.926  14.735  18.997  0.00  0.00    +0.000 A 
ATOM     28  C   UNL     1       0.455  13.508  18.520  0.00  0.00    +0.000 A 
ENDBRANCH  21  23
ENDBRANCH  17  21
TORSDOF 2
ENDMDL
