MODEL 1
REMARK VINA RESULT:      -7.6      0.000      0.000
REMARK  Name = 
REMARK  5 active torsions:
REMARK  status: ('A' for Active; 'I' for Inactive)
REMARK    1  A    between atoms: C_1  and  N_2
REMARK    2  A    between atoms: C_3  and  C_4
REMARK    3  A    between atoms: C_8  and  C_9
REMARK    4  A    between atoms: C_14  and  N_15
REMARK    5  A    between atoms: C_18  and  O_19
REMARK                            x       y       z     vdW  Elec       q    Type
REMARK                         _______ _______ _______ _____ _____    ______ ____
ROOT
ATOM      1  C   UNL     1       1.481   8.786  18.366  0.00  0.00    +0.000 C 
ATOM      2  O   UNL     1       1.125   8.825  17.186  0.00  0.00    +0.000 OA
ATOM      3  N   UNL     1       2.604   8.079  18.745  0.00  0.00    +0.000 N 
ATOM      4  C   UNL     1       3.392   7.250  17.874  0.00  0.00    +0.000 C 
ATOM      5  C   UNL     1       3.450   6.187  18.990  0.00  0.00    +0.000 C 
ATOM      6  C   UNL     1       2.761   7.215  19.912  0.00  0.00    +0.000 C 
ENDROOT
BRANCH   1   9
ATOM      7  C   UNL     1       1.291  11.886  18.631  0.00  0.00    +0.000 C 
ATOM      8  N   UNL     1       0.777  10.906  19.558  0.00  0.00    +0.000 N 
ATOM      9  C   UNL     1       0.827   9.534  19.426  0.00  0.00    +0.000 A 
ATOM     10  N   UNL     1       0.244   8.953  20.464  0.00  0.00    +0.000 NA
ATOM     11  C   UNL     1      -0.160   9.962  21.287  0.00  0.00    +0.000 A 
ATOM     12  C   UNL     1      -0.822   9.881  22.517  0.00  0.00    +0.000 A 
ATOM     13  C   UNL     1      -1.128  11.069  23.188  0.00  0.00    +0.000 A 
ATOM     14  C   UNL     1      -0.768  12.306  22.648  0.00  0.00    +0.000 A 
ATOM     15  C   UNL     1      -0.102  12.402  21.421  0.00  0.00    +0.000 A 
ATOM     16  C   UNL     1       0.175  11.201  20.757  0.00  0.00    +0.000 A 
ENDBRANCH   1   9
BRANCH   5  17
ATOM     17  C   UNL     1       2.767   4.790  18.683  0.00  0.00    +0.000 A 
ATOM     18  N   UNL     1       1.505   4.701  19.201  0.00  0.00    +0.000 NA
ATOM     19  C   UNL     1       0.872   3.523  19.049  0.00  0.00    +0.000 A 
ATOM     20  C   UNL     1       1.463   2.460  18.413  0.00  0.00    +0.000 A 
ATOM     21  N   UNL     1       2.706   2.523  17.885  0.00  0.00    +0.000 NA
ATOM     22  C   UNL     1       3.374   3.699  17.994  0.00  0.00    +0.000 A 
BRANCH  22  23
ATOM     23  N   UNL     1       4.651   3.765  17.449  0.00  0.00    +0.000 N 
ATOM     24  C   UNL     1       4.811   4.089  16.029  0.00  0.00    +0.000 C 
ATOM     25  C   UNL     1       5.516   5.429  15.824  0.00  0.00    +0.000 C 
ATOM     26  C   UNL     1       6.785   5.561  16.663  0.00  0.00    +0.000 C 
ATOM     27  C   UNL     1       6.495   5.270  18.122  0.00  0.00    +0.000 C 
ATOM     28  C   UNL     1       5.817   3.925  18.302  0.00  0.00    +0.000 C 
BRANCH  26  29
ATOM     29  O   UNL     1       7.823   4.709  16.180  0.00  0.00    +0.000 OA
ATOM     30  H   UNL     1       8.503   4.610  16.866  0.00  0.00    +0.000 HD
ENDBRANCH  26  29
ENDBRANCH  22  23
ENDBRANCH   5  17
TORSDOF 4
ENDMDL
MODEL 2
REMARK VINA RESULT:      -7.6      3.054      4.744
REMARK  Name = 
REMARK  5 active torsions:
REMARK  status: ('A' for Active; 'I' for Inactive)
REMARK    1  A    between atoms: C_1  and  N_2
REMARK    2  A    between atoms: C_3  and  C_4
REMARK    3  A    between atoms: C_8  and  C_9
REMARK    4  A    between atoms: C_14  and  N_15
REMARK    5  A    between atoms: C_18  and  O_19
REMARK                            x       y       z     vdW  Elec       q    Type
REMARK                         _______ _______ _______ _____ _____    ______ ____
ROOT
ATOM      1  C   UNL     1       0.077  11.404  21.758  0.00  0.00    +0.000 C 
ATOM      2  O   UNL     1       1.016  12.201  21.695  0.00  0.00    +0.000 OA
ATOM      3  N   UNL     1       0.302  10.063  21.993  0.00  0.00    +0.000 N 
ATOM      4  C   UNL     1       1.597   9.443  22.075  0.00  0.00    +0.000 C 
ATOM      5  C   UNL     1       1.058   8.279  21.218  0.00  0.00    +0.000 C 
ATOM      6  C   UNL     1      -0.338   8.925  21.339  0.00  0.00    +0.000 C 
ENDROOT
BRANCH   1   9
ATOM      7  C   UNL     1      -1.602  11.902  19.180  0.00  0.00    +0.000 C 
ATOM      8  N   UNL     1      -2.047  12.056  20.544  0.00  0.00    +0.000 N 
ATOM      9  C   UNL     1      -1.318  11.801  21.688  0.00  0.00    +0.000 A 
ATOM     10  N   UNL     1      -2.054  12.041  22.763  0.00  0.00    +0.000 NA
ATOM     11  C   UNL     1      -3.261  12.483  22.307  0.00  0.00    +0.000 A 
ATOM     12  C   UNL     1      -4.387  12.876  23.038  0.00  0.00    +0.000 A 
ATOM     13  C   UNL     1      -5.519  13.303  22.339  0.00  0.00    +0.000 A 
ATOM     14  C   UNL     1      -5.520  13.352  20.943  0.00  0.00    +0.000 A 
ATOM     15  C   UNL     1      -4.399  12.967  20.199  0.00  0.00    +0.000 A 
ATOM     16  C   UNL     1      -3.285  12.521  20.918  0.00  0.00    +0.000 A 
ENDBRANCH   1   9
BRANCH   5  17
ATOM     17  C   UNL     1       1.731   8.065  19.799  0.00  0.00    +0.000 A 
ATOM     18  N   UNL     1       1.607   9.161  18.992  0.00  0.00    +0.000 NA
ATOM     19  C   UNL     1       2.089   9.047  17.740  0.00  0.00    +0.000 A 
ATOM     20  C   UNL     1       2.671   7.888  17.291  0.00  0.00    +0.000 A 
ATOM     21  N   UNL     1       2.813   6.792  18.070  0.00  0.00    +0.000 NA
ATOM     22  C   UNL     1       2.362   6.868  19.347  0.00  0.00    +0.000 A 
BRANCH  22  23
ATOM     23  N   UNL     1       2.511   5.743  20.150  0.00  0.00    +0.000 N 
ATOM     24  C   UNL     1       1.331   5.145  20.778  0.00  0.00    +0.000 C 
ATOM     25  C   UNL     1       1.044   3.744  20.239  0.00  0.00    +0.000 C 
ATOM     26  C   UNL     1       2.286   2.855  20.220  0.00  0.00    +0.000 C 
ATOM     27  C   UNL     1       3.424   3.540  19.492  0.00  0.00    +0.000 C 
ATOM     28  C   UNL     1       3.706   4.918  20.060  0.00  0.00    +0.000 C 
BRANCH  26  29
ATOM     29  O   UNL     1       2.685   2.488  21.540  0.00  0.00    +0.000 OA
ATOM     30  H   UNL     1       3.125   1.622  21.513  0.00  0.00    +0.000 HD
ENDBRANCH  26  29
ENDBRANCH  22  23
ENDBRANCH   5  17
TORSDOF 4
ENDMDL
MODEL 3
REMARK VINA RESULT:      -7.4      1.983      2.481
REMARK  Name = 
REMARK  5 active torsions:
REMARK  status: ('A' for Active; 'I' for Inactive)
REMARK    1  A    between atoms: C_1  and  N_2
REMARK    2  A    between atoms: C_3  and  C_4
REMARK    3  A    between atoms: C_8  and  C_9
REMARK    4  A    between atoms: C_14  and  N_15
REMARK    5  A    between atoms: C_18  and  O_19
REMARK                            x       y       z     vdW  Elec       q    Type
REMARK                         _______ _______ _______ _____ _____    ______ ____
ROOT
ATOM      1  C   UNL     1       1.797   8.955  18.081  0.00  0.00    +0.000 C 
ATOM      2  O   UNL     1       2.614   9.118  17.172  0.00  0.00    +0.000 OA
ATOM      3  N   UNL     1       2.098   8.162  19.170  0.00  0.00    +0.000 N 
ATOM      4  C   UNL     1       3.296   7.380  19.317  0.00  0.00    +0.000 C 
ATOM      5  C   UNL     1       2.432   6.217  19.850  0.00  0.00    +0.000 C 
ATOM      6  C   UNL     1       1.233   7.189  19.830  0.00  0.00    +0.000 C 
ENDROOT
BRANCH   1   9
ATOM      7  C   UNL     1       1.023  11.349  19.920  0.00  0.00    +0.000 C 
ATOM      8  N   UNL     1       0.165  10.668  18.979  0.00  0.00    +0.000 N 
ATOM      9  C   UNL     1       0.514   9.633  18.138  0.00  0.00    +0.000 A 
ATOM     10  N   UNL     1      -0.527   9.267  17.405  0.00  0.00    +0.000 NA
ATOM     11  C   UNL     1      -1.566  10.056  17.800  0.00  0.00    +0.000 A 
ATOM     12  C   UNL     1      -2.888  10.066  17.341  0.00  0.00    +0.000 A 
ATOM     13  C   UNL     1      -3.785  10.973  17.912  0.00  0.00    +0.000 A 
ATOM     14  C   UNL     1      -3.374  11.838  18.928  0.00  0.00    +0.000 A 
ATOM     15  C   UNL     1      -2.057  11.837  19.401  0.00  0.00    +0.000 A 
ATOM     16  C   UNL     1      -1.171  10.936  18.800  0.00  0.00    +0.000 A 
ENDBRANCH   1   9
BRANCH   5  17
ATOM     17  C   UNL     1       2.411   4.889  18.986  0.00  0.00    +0.000 A 
ATOM     18  N   UNL     1       1.313   4.116  19.242  0.00  0.00    +0.000 NA
ATOM     19  C   UNL     1       1.244   2.933  18.605  0.00  0.00    +0.000 A 
ATOM     20  C   UNL     1       2.229   2.516  17.744  0.00  0.00    +0.000 A 
ATOM     21  N   UNL     1       3.322   3.263  17.466  0.00  0.00    +0.000 NA
ATOM     22  C   UNL     1       3.422   4.474  18.070  0.00  0.00    +0.000 A 
BRANCH  22  23
ATOM     23  N   UNL     1       4.544   5.244  17.782  0.00  0.00    +0.000 N 
ATOM     24  C   UNL     1       5.815   4.939  18.444  0.00  0.00    +0.000 C 
ATOM     25  C   UNL     1       6.874   4.457  17.453  0.00  0.00    +0.000 C 
ATOM     26  C   UNL     1       6.985   5.358  16.225  0.00  0.00    +0.000 C 
ATOM     27  C   UNL     1       5.628   5.554  15.581  0.00  0.00    +0.000 C 
ATOM     28  C   UNL     1       4.600   6.057  16.577  0.00  0.00    +0.000 C 
BRANCH  26  29
ATOM     29  O   UNL     1       7.571   6.617  16.553  0.00  0.00    +0.000 OA
ATOM     30  H   UNL     1       6.956   7.122  17.112  0.00  0.00    +0.000 HD
ENDBRANCH  26  29
ENDBRANCH  22  23
ENDBRANCH   5  17
TORSDOF 4
ENDMDL
MODEL 4
REMARK VINA RESULT:      -7.4      2.772      9.039
REMARK  Name = 
REMARK  5 active torsions:
REMARK  status: ('A' for Active; 'I' for Inactive)
REMARK    1  A    between atoms: C_1  and  N_2
REMARK    2  A    between atoms: C_3  and  C_4
REMARK    3  A    between atoms: C_8  and  C_9
REMARK    4  A    between atoms: C_14  and  N_15
REMARK    5  A    between atoms: C_18  and  O_19
REMARK                            x       y       z     vdW  Elec       q    Type
REMARK                         _______ _______ _______ _____ _____    ______ ____
ROOT
ATOM      1  C   UNL     1       1.919   7.797  19.568  0.00  0.00    +0.000 C 
ATOM      2  O   UNL     1       1.402   7.333  20.587  0.00  0.00    +0.000 OA
ATOM      3  N   UNL     1       1.878   9.152  19.307  0.00  0.00    +0.000 N 
ATOM      4  C   UNL     1       1.166  10.124  20.093  0.00  0.00    +0.000 C 
ATOM      5  C   UNL     1       0.672  10.772  18.783  0.00  0.00    +0.000 C 
ATOM      6  C   UNL     1       1.609   9.805  18.030  0.00  0.00    +0.000 C 
ENDROOT
BRANCH   1   9
ATOM      7  C   UNL     1       1.819   4.702  19.215  0.00  0.00    +0.000 C 
ATOM      8  N   UNL     1       2.658   5.628  18.493  0.00  0.00    +0.000 N 
ATOM      9  C   UNL     1       2.678   7.001  18.620  0.00  0.00    +0.000 A 
ATOM     10  N   UNL     1       3.566   7.525  17.788  0.00  0.00    +0.000 NA
ATOM     11  C   UNL     1       4.144   6.476  17.137  0.00  0.00    +0.000 A 
ATOM     12  C   UNL     1       5.145   6.490  16.160  0.00  0.00    +0.000 A 
ATOM     13  C   UNL     1       5.585   5.269  15.640  0.00  0.00    +0.000 A 
ATOM     14  C   UNL     1       5.050   4.064  16.098  0.00  0.00    +0.000 A 
ATOM     15  C   UNL     1       4.051   4.034  17.079  0.00  0.00    +0.000 A 
ATOM     16  C   UNL     1       3.609   5.268  17.569  0.00  0.00    +0.000 A 
ENDBRANCH   1   9
BRANCH   5  17
ATOM     17  C   UNL     1      -0.891  10.752  18.522  0.00  0.00    +0.000 A 
ATOM     18  N   UNL     1      -1.237   9.934  17.483  0.00  0.00    +0.000 NA
ATOM     19  C   UNL     1      -2.539   9.907  17.142  0.00  0.00    +0.000 A 
ATOM     20  C   UNL     1      -3.475  10.666  17.799  0.00  0.00    +0.000 A 
ATOM     21  N   UNL     1      -3.162  11.477  18.834  0.00  0.00    +0.000 NA
ATOM     22  C   UNL     1      -1.864  11.520  19.227  0.00  0.00    +0.000 A 
BRANCH  22  23
ATOM     23  N   UNL     1      -1.543  12.352  20.294  0.00  0.00    +0.000 N 
ATOM     24  C   UNL     1      -1.514  13.803  20.091  0.00  0.00    +0.000 C 
ATOM     25  C   UNL     1      -2.601  14.514  20.897  0.00  0.00    +0.000 C 
ATOM     26  C   UNL     1      -2.640  14.066  22.356  0.00  0.00    +0.000 C 
ATOM     27  C   UNL     1      -2.736  12.557  22.451  0.00  0.00    +0.000 C 
ATOM     28  C   UNL     1      -1.633  11.874  21.664  0.00  0.00    +0.000 C 
BRANCH  26  29
ATOM     29  O   UNL     1      -1.506  14.542  23.080  0.00  0.00    +0.000 OA
ATOM     30  H   UNL     1      -1.701  15.425  23.436  0.00  0.00    +0.000 HD
ENDBRANCH  26  29
ENDBRANCH  22  23
ENDBRANCH   5  17
TORSDOF 4
ENDMDL
MODEL 5
REMARK VINA RESULT:      -7.2      5.054     10.492
REMARK  Name = 
REMARK  5 active torsions:
REMARK  status: ('A' for Active; 'I' for Inactive)
REMARK    1  A    between atoms: C_1  and  N_2
REMARK    2  A    between atoms: C_3  and  C_4
REMARK    3  A    between atoms: C_8  and  C_9
REMARK    4  A    between atoms: C_14  and  N_15
REMARK    5  A    between atoms: C_18  and  O_19
REMARK                            x       y       z     vdW  Elec       q    Type
REMARK                         _______ _______ _______ _____ _____    ______ ____
ROOT
ATOM      1  C   UNL     1      -1.090  12.398  22.050  0.00  0.00    +0.000 C 
ATOM      2  O   UNL     1      -0.788  12.782  23.182  0.00  0.00    +0.000 OA
ATOM      3  N   UNL     1      -2.050  13.061  21.310  0.00  0.00    +0.000 N 
ATOM      4  C   UNL     1      -2.853  14.154  21.788  0.00  0.00    +0.000 C 
ATOM      5  C   UNL     1      -4.080  13.502  21.118  0.00  0.00    +0.000 C 
ATOM      6  C   UNL     1      -3.111  12.473  20.498  0.00  0.00    +0.000 C 
ENDROOT
BRANCH   1   9
ATOM      7  C   UNL     1      -0.296   9.640  23.266  0.00  0.00    +0.000 C 
ATOM      8  N   UNL     1      -0.040  10.099  21.921  0.00  0.00    +0.000 N 
ATOM      9  C   UNL     1      -0.422  11.303  21.369  0.00  0.00    +0.000 A 
ATOM     10  N   UNL     1      -0.026  11.375  20.107  0.00  0.00    +0.000 NA
ATOM     11  C   UNL     1       0.644  10.215  19.852  0.00  0.00    +0.000 A 
ATOM     12  C   UNL     1       1.264   9.800  18.668  0.00  0.00    +0.000 A 
ATOM     13  C   UNL     1       1.902   8.555  18.653  0.00  0.00    +0.000 A 
ATOM     14  C   UNL     1       1.933   7.755  19.796  0.00  0.00    +0.000 A 
ATOM     15  C   UNL     1       1.322   8.160  20.988  0.00  0.00    +0.000 A 
ATOM     16  C   UNL     1       0.670   9.398  20.975  0.00  0.00    +0.000 A 
ENDBRANCH   1   9
BRANCH   5  17
ATOM     17  C   UNL     1      -5.252  13.034  22.076  0.00  0.00    +0.000 A 
ATOM     18  N   UNL     1      -4.916  13.128  23.398  0.00  0.00    +0.000 NA
ATOM     19  C   UNL     1      -5.825  12.686  24.286  0.00  0.00    +0.000 A 
ATOM     20  C   UNL     1      -7.030  12.161  23.888  0.00  0.00    +0.000 A 
ATOM     21  N   UNL     1      -7.391  12.064  22.589  0.00  0.00    +0.000 NA
ATOM     22  C   UNL     1      -6.514  12.517  21.659  0.00  0.00    +0.000 A 
BRANCH  22  23
ATOM     23  N   UNL     1      -6.887  12.420  20.323  0.00  0.00    +0.000 N 
ATOM     24  C   UNL     1      -7.263  13.632  19.590  0.00  0.00    +0.000 C 
ATOM     25  C   UNL     1      -6.276  13.949  18.467  0.00  0.00    +0.000 C 
ATOM     26  C   UNL     1      -5.969  12.735  17.593  0.00  0.00    +0.000 C 
ATOM     27  C   UNL     1      -5.529  11.561  18.443  0.00  0.00    +0.000 C 
ATOM     28  C   UNL     1      -6.535  11.249  19.535  0.00  0.00    +0.000 C 
BRANCH  26  29
ATOM     29  O   UNL     1      -7.089  12.376  16.785  0.00  0.00    +0.000 OA
ATOM     30  H   UNL     1      -7.229  13.060  16.110  0.00  0.00    +0.000 HD
ENDBRANCH  26  29
ENDBRANCH  22  23
ENDBRANCH   5  17
TORSDOF 4
ENDMDL
MODEL 6
REMARK VINA RESULT:      -7.2      2.637      8.669
REMARK  Name = 
REMARK  5 active torsions:
REMARK  status: ('A' for Active; 'I' for Inactive)
REMARK    1  A    between atoms: C_1  and  N_2
REMARK    2  A    between atoms: C_3  and  C_4
REMARK    3  A    between atoms: C_8  and  C_9
REMARK    4  A    between atoms: C_14  and  N_15
REMARK    5  A    between atoms: C_18  and  O_19
REMARK                            x       y       z     vdW  Elec       q    Type
REMARK                         _______ _______ _______ _____ _____    ______ ____
ROOT
ATOM      1  C   UNL     1       1.826   7.736  19.522  0.00  0.00    +0.000 C 
ATOM      2  O   UNL     1       1.265   7.239  20.501  0.00  0.00    +0.000 OA
ATOM      3  N   UNL     1       1.788   9.099  19.301  0.00  0.00    +0.000 N 
ATOM      4  C   UNL     1       1.033  10.042  20.080  0.00  0.00    +0.000 C 
ATOM      5  C   UNL     1       0.596  10.727  18.769  0.00  0.00    +0.000 C 
ATOM      6  C   UNL     1       1.575   9.789  18.032  0.00  0.00    +0.000 C 
ENDROOT
BRANCH   1   9
ATOM      7  C   UNL     1       1.818   4.645  19.123  0.00  0.00    +0.000 C 
ATOM      8  N   UNL     1       2.655   5.603  18.441  0.00  0.00    +0.000 N 
ATOM      9  C   UNL     1       2.636   6.974  18.588  0.00  0.00    +0.000 A 
ATOM     10  N   UNL     1       3.535   7.533  17.792  0.00  0.00    +0.000 NA
ATOM     11  C   UNL     1       4.160   6.508  17.145  0.00  0.00    +0.000 A 
ATOM     12  C   UNL     1       5.191   6.563  16.201  0.00  0.00    +0.000 A 
ATOM     13  C   UNL     1       5.679   5.362  15.678  0.00  0.00    +0.000 A 
ATOM     14  C   UNL     1       5.161   4.136  16.102  0.00  0.00    +0.000 A 
ATOM     15  C   UNL     1       4.133   4.066  17.049  0.00  0.00    +0.000 A 
ATOM     16  C   UNL     1       3.644   5.281  17.542  0.00  0.00    +0.000 A 
ENDBRANCH   1   9
BRANCH   5  17
ATOM     17  C   UNL     1      -0.953  10.706  18.433  0.00  0.00    +0.000 A 
ATOM     18  N   UNL     1      -1.278   9.731  17.532  0.00  0.00    +0.000 NA
ATOM     19  C   UNL     1      -2.563   9.682  17.133  0.00  0.00    +0.000 A 
ATOM     20  C   UNL     1      -3.501  10.568  17.601  0.00  0.00    +0.000 A 
ATOM     21  N   UNL     1      -3.208  11.536  18.498  0.00  0.00    +0.000 NA
ATOM     22  C   UNL     1      -1.929  11.610  18.946  0.00  0.00    +0.000 A 
BRANCH  22  23
ATOM     23  N   UNL     1      -1.628  12.603  19.871  0.00  0.00    +0.000 N 
ATOM     24  C   UNL     1      -1.754  12.316  21.302  0.00  0.00    +0.000 C 
ATOM     25  C   UNL     1      -0.401  12.354  22.012  0.00  0.00    +0.000 C 
ATOM     26  C   UNL     1       0.408  13.604  21.673  0.00  0.00    +0.000 C 
ATOM     27  C   UNL     1       0.531  13.770  20.172  0.00  0.00    +0.000 C 
ATOM     28  C   UNL     1      -0.825  13.754  19.492  0.00  0.00    +0.000 C 
BRANCH  26  29
ATOM     29  O   UNL     1      -0.164  14.771  22.261  0.00  0.00    +0.000 OA
ATOM     30  H   UNL     1      -1.083  14.584  22.518  0.00  0.00    +0.000 HD
ENDBRANCH  26  29
ENDBRANCH  22  23
ENDBRANCH   5  17
TORSDOF 4
ENDMDL
MODEL 7
REMARK VINA RESULT:      -7.2      4.422     10.233
REMARK  Name = 
REMARK  5 active torsions:
REMARK  status: ('A' for Active; 'I' for Inactive)
REMARK    1  A    between atoms: C_1  and  N_2
REMARK    2  A    between atoms: C_3  and  C_4
REMARK    3  A    between atoms: C_8  and  C_9
REMARK    4  A    between atoms: C_14  and  N_15
REMARK    5  A    between atoms: C_18  and  O_19
REMARK                            x       y       z     vdW  Elec       q    Type
REMARK                         _______ _______ _______ _____ _____    ______ ____
ROOT
ATOM      1  C   UNL     1       0.234  12.006  20.274  0.00  0.00    +0.000 C 
ATOM      2  O   UNL     1       0.881  12.831  20.923  0.00  0.00    +0.000 OA
ATOM      3  N   UNL     1      -1.023  12.311  19.792  0.00  0.00    +0.000 N 
ATOM      4  C   UNL     1      -1.741  13.526  20.069  0.00  0.00    +0.000 C 
ATOM      5  C   UNL     1      -3.016  12.684  20.284  0.00  0.00    +0.000 C 
ATOM      6  C   UNL     1      -2.210  11.462  19.797  0.00  0.00    +0.000 C 
ENDROOT
BRANCH   1   9
ATOM      7  C   UNL     1       0.368   9.438  22.036  0.00  0.00    +0.000 C 
ATOM      8  N   UNL     1       0.844   9.583  20.681  0.00  0.00    +0.000 N 
ATOM      9  C   UNL     1       0.753  10.706  19.886  0.00  0.00    +0.000 A 
ATOM     10  N   UNL     1       1.284  10.468  18.696  0.00  0.00    +0.000 NA
ATOM     11  C   UNL     1       1.748   9.186  18.735  0.00  0.00    +0.000 A 
ATOM     12  C   UNL     1       2.398   8.456  17.734  0.00  0.00    +0.000 A 
ATOM     13  C   UNL     1       2.790   7.144  18.017  0.00  0.00    +0.000 A 
ATOM     14  C   UNL     1       2.553   6.583  19.273  0.00  0.00    +0.000 A 
ATOM     15  C   UNL     1       1.907   7.304  20.285  0.00  0.00    +0.000 A 
ATOM     16  C   UNL     1       1.504   8.607  19.973  0.00  0.00    +0.000 A 
ENDBRANCH   1   9
BRANCH   5  17
ATOM     17  C   UNL     1      -3.651  12.707  21.736  0.00  0.00    +0.000 A 
ATOM     18  N   UNL     1      -2.705  12.630  22.721  0.00  0.00    +0.000 NA
ATOM     19  C   UNL     1      -3.156  12.573  23.988  0.00  0.00    +0.000 A 
ATOM     20  C   UNL     1      -4.497  12.587  24.280  0.00  0.00    +0.000 A 
ATOM     21  N   UNL     1      -5.453  12.671  23.327  0.00  0.00    +0.000 NA
ATOM     22  C   UNL     1      -5.044  12.753  22.036  0.00  0.00    +0.000 A 
BRANCH  22  23
ATOM     23  N   UNL     1      -6.026  12.843  21.056  0.00  0.00    +0.000 N 
ATOM     24  C   UNL     1      -6.500  14.162  20.631  0.00  0.00    +0.000 C 
ATOM     25  C   UNL     1      -6.142  14.456  19.175  0.00  0.00    +0.000 C 
ATOM     26  C   UNL     1      -6.503  13.307  18.236  0.00  0.00    +0.000 C 
ATOM     27  C   UNL     1      -5.910  12.004  18.733  0.00  0.00    +0.000 C 
ATOM     28  C   UNL     1      -6.300  11.721  20.172  0.00  0.00    +0.000 C 
BRANCH  26  29
ATOM     29  O   UNL     1      -7.916  13.186  18.078  0.00  0.00    +0.000 OA
ATOM     30  H   UNL     1      -8.275  14.028  17.752  0.00  0.00    +0.000 HD
ENDBRANCH  26  29
ENDBRANCH  22  23
ENDBRANCH   5  17
TORSDOF 4
ENDMDL
MODEL 8
REMARK VINA RESULT:      -7.1      0.856      1.598
REMARK  Name = 
REMARK  5 active torsions:
REMARK  status: ('A' for Active; 'I' for Inactive)
REMARK    1  A    between atoms: C_1  and  N_2
REMARK    2  A    between atoms: C_3  and  C_4
REMARK    3  A    between atoms: C_8  and  C_9
REMARK    4  A    between atoms: C_14  and  N_15
REMARK    5  A    between atoms: C_18  and  O_19
REMARK                            x       y       z     vdW  Elec       q    Type
REMARK                         _______ _______ _______ _____ _____    ______ ____
ROOT
ATOM      1  C   UNL     1       0.983   9.037  18.623  0.00  0.00    +0.000 C 
ATOM      2  O   UNL     1       0.337   8.857  17.588  0.00  0.00    +0.000 OA
ATOM      3  N   UNL     1       2.213   8.438  18.803  0.00  0.00    +0.000 N 
ATOM      4  C   UNL     1       2.811   7.490  17.901  0.00  0.00    +0.000 C 
ATOM      5  C   UNL     1       3.229   6.643  19.121  0.00  0.00    +0.000 C 
ATOM      6  C   UNL     1       2.725   7.798  20.011  0.00  0.00    +0.000 C 
ENDROOT
BRANCH   1   9
ATOM      7  C   UNL     1      -0.437   8.276  21.291  0.00  0.00    +0.000 C 
ATOM      8  N   UNL     1      -0.093   9.604  20.843  0.00  0.00    +0.000 N 
ATOM      9  C   UNL     1       0.568   9.942  19.680  0.00  0.00    +0.000 A 
ATOM     10  N   UNL     1       0.722  11.255  19.606  0.00  0.00    +0.000 NA
ATOM     11  C   UNL     1       0.128  11.772  20.719  0.00  0.00    +0.000 A 
ATOM     12  C   UNL     1       0.011  13.109  21.113  0.00  0.00    +0.000 A 
ATOM     13  C   UNL     1      -0.656  13.395  22.308  0.00  0.00    +0.000 A 
ATOM     14  C   UNL     1      -1.206  12.370  23.081  0.00  0.00    +0.000 A 
ATOM     15  C   UNL     1      -1.100  11.028  22.697  0.00  0.00    +0.000 A 
ATOM     16  C   UNL     1      -0.409  10.764  21.510  0.00  0.00    +0.000 A 
ENDBRANCH   1   9
BRANCH   5  17
ATOM     17  C   UNL     1       2.593   5.195  19.237  0.00  0.00    +0.000 A 
ATOM     18  N   UNL     1       1.388   5.204  19.882  0.00  0.00    +0.000 NA
ATOM     19  C   UNL     1       0.804   4.009  20.089  0.00  0.00    +0.000 A 
ATOM     20  C   UNL     1       1.390   2.837  19.680  0.00  0.00    +0.000 A 
ATOM     21  N   UNL     1       2.577   2.800  19.033  0.00  0.00    +0.000 NA
ATOM     22  C   UNL     1       3.191   3.983  18.783  0.00  0.00    +0.000 A 
BRANCH  22  23
ATOM     23  N   UNL     1       4.410   3.946  18.115  0.00  0.00    +0.000 N 
ATOM     24  C   UNL     1       4.436   4.079  16.656  0.00  0.00    +0.000 C 
ATOM     25  C   UNL     1       5.136   5.362  16.212  0.00  0.00    +0.000 C 
ATOM     26  C   UNL     1       6.482   5.568  16.903  0.00  0.00    +0.000 C 
ATOM     27  C   UNL     1       6.331   5.476  18.408  0.00  0.00    +0.000 C 
ATOM     28  C   UNL     1       5.656   4.183  18.826  0.00  0.00    +0.000 C 
BRANCH  26  29
ATOM     29  O   UNL     1       7.456   4.634  16.440  0.00  0.00    +0.000 OA
ATOM     30  H   UNL     1       7.290   4.436  15.503  0.00  0.00    +0.000 HD
ENDBRANCH  26  29
ENDBRANCH  22  23
ENDBRANCH   5  17
TORSDOF 4
ENDMDL
MODEL 9
REMARK VINA RESULT:      -7.1      4.812     10.415
REMARK  Name = 
REMARK  5 active torsions:
REMARK  status: ('A' for Active; 'I' for Inactive)
REMARK    1  A    between atoms: C_1  and  N_2
REMARK    2  A    between atoms: C_3  and  C_4
REMARK    3  A    between atoms: C_8  and  C_9
REMARK    4  A    between atoms: C_14  and  N_15
REMARK    5  A    between atoms: C_18  and  O_19
REMARK                            x       y       z     vdW  Elec       q    Type
REMARK                         _______ _______ _______ _____ _____    ______ ____
ROOT
ATOM      1  C   UNL     1      -0.145  12.799  21.250  0.00  0.00    +0.000 C 
ATOM      2  O   UNL     1       0.366  13.432  22.176  0.00  0.00    +0.000 OA
ATOM      3  N   UNL     1      -1.338  13.206  20.687  0.00  0.00    +0.000 N 
ATOM      4  C   UNL     1      -2.146  14.297  21.161  0.00  0.00    +0.000 C 
ATOM      5  C   UNL     1      -3.396  13.413  20.966  0.00  0.00    +0.000 C 
ATOM      6  C   UNL     1      -2.472  12.372  20.301  0.00  0.00    +0.000 C 
ENDROOT
BRANCH   1   9
ATOM      7  C   UNL     1       1.034  12.660  18.368  0.00  0.00    +0.000 C 
ATOM      8  N   UNL     1       0.971  11.585  19.330  0.00  0.00    +0.000 N 
ATOM      9  C   UNL     1       0.484  11.653  20.618  0.00  0.00    +0.000 A 
ATOM     10  N   UNL     1       0.597  10.474  21.213  0.00  0.00    +0.000 NA
ATOM     11  C   UNL     1       1.138   9.631  20.288  0.00  0.00    +0.000 A 
ATOM     12  C   UNL     1       1.453   8.274  20.414  0.00  0.00    +0.000 A 
ATOM     13  C   UNL     1       1.999   7.613  19.309  0.00  0.00    +0.000 A 
ATOM     14  C   UNL     1       2.208   8.288  18.105  0.00  0.00    +0.000 A 
ATOM     15  C   UNL     1       1.893   9.644  17.963  0.00  0.00    +0.000 A 
ATOM     16  C   UNL     1       1.369  10.292  19.088  0.00  0.00    +0.000 A 
ENDBRANCH   1   9
BRANCH   5  17
ATOM     17  C   UNL     1      -4.223  13.048  22.268  0.00  0.00    +0.000 A 
ATOM     18  N   UNL     1      -3.437  12.982  23.384  0.00  0.00    +0.000 NA
ATOM     19  C   UNL     1      -4.042  12.609  24.527  0.00  0.00    +0.000 A 
ATOM     20  C   UNL     1      -5.380  12.304  24.572  0.00  0.00    +0.000 A 
ATOM     21  N   UNL     1      -6.181  12.370  23.486  0.00  0.00    +0.000 NA
ATOM     22  C   UNL     1      -5.619  12.762  22.315  0.00  0.00    +0.000 A 
BRANCH  22  23
ATOM     23  N   UNL     1      -6.444  12.833  21.198  0.00  0.00    +0.000 N 
ATOM     24  C   UNL     1      -6.904  14.141  20.724  0.00  0.00    +0.000 C 
ATOM     25  C   UNL     1      -6.341  14.477  19.343  0.00  0.00    +0.000 C 
ATOM     26  C   UNL     1      -6.506  13.334  18.345  0.00  0.00    +0.000 C 
ATOM     27  C   UNL     1      -5.941  12.046  18.908  0.00  0.00    +0.000 C 
ATOM     28  C   UNL     1      -6.532  11.719  20.267  0.00  0.00    +0.000 C 
BRANCH  26  29
ATOM     29  O   UNL     1      -7.873  13.160  17.971  0.00  0.00    +0.000 OA
ATOM     30  H   UNL     1      -8.438  13.664  18.580  0.00  0.00    +0.000 HD
ENDBRANCH  26  29
ENDBRANCH  22  23
ENDBRANCH   5  17
TORSDOF 4
ENDMDL
