MODEL 1
REMARK VINA RESULT:      -7.5      0.000      0.000
REMARK  Name = 
REMARK  9 active torsions:
REMARK  status: ('A' for Active; 'I' for Inactive)
REMARK    1  A    between atoms: C_1  and  C_2
REMARK    2  A    between atoms: C_2  and  C_3
REMARK    3  A    between atoms: C_2  and  C_4
REMARK    4  A    between atoms: C_2  and  C_12
REMARK    5  A    between atoms: C_4  and  C_5
REMARK    6  A    between atoms: N_14  and  C_15
REMARK    7  A    between atoms: C_15  and  C_16
REMARK    8  A    between atoms: C_16  and  O_17
REMARK    9  A    between atoms: C_16  and  C_18
REMARK                            x       y       z     vdW  Elec       q    Type
REMARK                         _______ _______ _______ _____ _____    ______ ____
ROOT
ATOM      1  C   UNL     1       5.304   5.157  17.993  0.00  0.00    +0.000 C 
ATOM      2  O   UNL     1       4.351   5.767  18.481  0.00  0.00    +0.000 OA
ATOM      3  N   UNL     1       5.719   3.957  18.531  0.00  0.00    +0.000 N 
ATOM      4  H   UNL     1       6.421   3.408  18.053  0.00  0.00    +0.000 HD
ENDROOT
BRANCH   1   6
ATOM      5  C   UNL     1       7.091   6.754  17.297  0.00  0.00    +0.000 C 
ATOM      6  C   UNL     1       6.101   5.694  16.770  0.00  0.00    +0.000 C 
ATOM      7  C   UNL     1       5.127   6.375  15.796  0.00  0.00    +0.000 C 
BRANCH   6   8
ATOM      8  C   UNL     1       6.866   4.520  16.091  0.00  0.00    +0.000 C 
BRANCH   8   9
ATOM      9  C   UNL     1       6.914   4.493  14.570  0.00  0.00    +0.000 A 
ATOM     10  C   UNL     1       7.782   5.342  13.863  0.00  0.00    +0.000 A 
ATOM     11  C   UNL     1       7.852   5.301  12.464  0.00  0.00    +0.000 A 
ATOM     12  C   UNL     1       7.059   4.405  11.752  0.00  0.00    +0.000 A 
ATOM     13  C   UNL     1       6.196   3.557  12.441  0.00  0.00    +0.000 A 
ATOM     14 CL   UNL     1       5.218   2.442  11.565  0.00  0.00    +0.000 Cl
ATOM     15  C   UNL     1       6.120   3.597  13.837  0.00  0.00    +0.000 A 
ENDBRANCH   8   9
ENDBRANCH   6   8
ENDBRANCH   1   6
BRANCH   3  16
ATOM     16  C   UNL     1       5.005   3.337  19.655  0.00  0.00    +0.000 C 
BRANCH  16  17
ATOM     17  C   UNL     1       3.991   2.252  19.226  0.00  0.00    +0.000 C 
BRANCH  17  18
ATOM     18  C   UNL     1       2.559   2.654  19.387  0.00  0.00    +0.000 A 
ATOM     19  C   UNL     1       1.388   2.166  18.836  0.00  0.00    +0.000 A 
ATOM     20  C   UNL     1       0.334   2.957  19.349  0.00  0.00    +0.000 A 
ATOM     21  C   UNL     1       0.923   3.877  20.183  0.00  0.00    +0.000 A 
ATOM     22  O   UNL     1       2.267   3.699  20.216  0.00  0.00    +0.000 OA
ENDBRANCH  17  18
BRANCH  17  23
ATOM     23  O   UNL     1       4.150   1.893  17.852  0.00  0.00    +0.000 OA
ATOM     24  H   UNL     1       3.320   2.137  17.398  0.00  0.00    +0.000 HD
ENDBRANCH  17  23
ENDBRANCH  16  17
ENDBRANCH   3  16
TORSDOF 7
ENDMDL
MODEL 2
REMARK VINA RESULT:      -7.4      3.108      6.867
REMARK  Name = 
REMARK  9 active torsions:
REMARK  status: ('A' for Active; 'I' for Inactive)
REMARK    1  A    between atoms: C_1  and  C_2
REMARK    2  A    between atoms: C_2  and  C_3
REMARK    3  A    between atoms: C_2  and  C_4
REMARK    4  A    between atoms: C_2  and  C_12
REMARK    5  A    between atoms: C_4  and  C_5
REMARK    6  A    between atoms: N_14  and  C_15
REMARK    7  A    between atoms: C_15  and  C_16
REMARK    8  A    between atoms: C_16  and  O_17
REMARK    9  A    between atoms: C_16  and  C_18
REMARK                            x       y       z     vdW  Elec       q    Type
REMARK                         _______ _______ _______ _____ _____    ______ ____
ROOT
ATOM      1  C   UNL     1       4.753   3.460  18.574  0.00  0.00    +0.000 C 
ATOM      2  O   UNL     1       5.505   4.005  19.383  0.00  0.00    +0.000 OA
ATOM      3  N   UNL     1       5.005   3.533  17.220  0.00  0.00    +0.000 N 
ATOM      4  H   UNL     1       4.453   2.984  16.575  0.00  0.00    +0.000 HD
ENDROOT
BRANCH   1   6
ATOM      5  C   UNL     1       3.550   2.508  20.543  0.00  0.00    +0.000 C 
ATOM      6  C   UNL     1       3.481   2.678  19.011  0.00  0.00    +0.000 C 
ATOM      7  C   UNL     1       3.501   1.284  18.363  0.00  0.00    +0.000 C 
BRANCH   6   8
ATOM      8  C   UNL     1       2.211   3.482  18.605  0.00  0.00    +0.000 C 
BRANCH   8   9
ATOM      9  C   UNL     1       2.103   4.924  19.081  0.00  0.00    +0.000 A 
ATOM     10  C   UNL     1       1.745   5.218  20.407  0.00  0.00    +0.000 A 
ATOM     11  C   UNL     1       1.673   6.542  20.859  0.00  0.00    +0.000 A 
ATOM     12  C   UNL     1       1.965   7.592  19.991  0.00  0.00    +0.000 A 
ATOM     13  C   UNL     1       2.322   7.313  18.675  0.00  0.00    +0.000 A 
ATOM     14 CL   UNL     1       2.691   8.607  17.601  0.00  0.00    +0.000 Cl
ATOM     15  C   UNL     1       2.392   5.993  18.219  0.00  0.00    +0.000 A 
ENDBRANCH   8   9
ENDBRANCH   6   8
ENDBRANCH   1   6
BRANCH   3  16
ATOM     16  C   UNL     1       6.205   4.204  16.703  0.00  0.00    +0.000 C 
BRANCH  16  17
ATOM     17  C   UNL     1       6.003   5.711  16.421  0.00  0.00    +0.000 C 
BRANCH  17  18
ATOM     18  C   UNL     1       6.906   6.608  17.207  0.00  0.00    +0.000 A 
ATOM     19  C   UNL     1       7.698   6.388  18.321  0.00  0.00    +0.000 A 
ATOM     20  C   UNL     1       8.321   7.620  18.629  0.00  0.00    +0.000 A 
ATOM     21  C   UNL     1       7.876   8.516  17.686  0.00  0.00    +0.000 A 
ATOM     22  O   UNL     1       7.023   7.913  16.820  0.00  0.00    +0.000 OA
ENDBRANCH  17  18
BRANCH  17  23
ATOM     23  O   UNL     1       6.229   6.027  15.046  0.00  0.00    +0.000 OA
ATOM     24  H   UNL     1       5.820   6.899  14.886  0.00  0.00    +0.000 HD
ENDBRANCH  17  23
ENDBRANCH  16  17
ENDBRANCH   3  16
TORSDOF 7
ENDMDL
MODEL 3
REMARK VINA RESULT:      -7.4      3.891      6.916
REMARK  Name = 
REMARK  9 active torsions:
REMARK  status: ('A' for Active; 'I' for Inactive)
REMARK    1  A    between atoms: C_1  and  C_2
REMARK    2  A    between atoms: C_2  and  C_3
REMARK    3  A    between atoms: C_2  and  C_4
REMARK    4  A    between atoms: C_2  and  C_12
REMARK    5  A    between atoms: C_4  and  C_5
REMARK    6  A    between atoms: N_14  and  C_15
REMARK    7  A    between atoms: C_15  and  C_16
REMARK    8  A    between atoms: C_16  and  O_17
REMARK    9  A    between atoms: C_16  and  C_18
REMARK                            x       y       z     vdW  Elec       q    Type
REMARK                         _______ _______ _______ _____ _____    ______ ____
ROOT
ATOM      1  C   UNL     1       3.201   3.843  17.775  0.00  0.00    +0.000 C 
ATOM      2  O   UNL     1       2.434   3.343  16.952  0.00  0.00    +0.000 OA
ATOM      3  N   UNL     1       4.476   4.222  17.409  0.00  0.00    +0.000 N 
ATOM      4  H   UNL     1       5.053   4.739  18.059  0.00  0.00    +0.000 HD
ENDROOT
BRANCH   1   6
ATOM      5  C   UNL     1       3.323   2.853  20.063  0.00  0.00    +0.000 C 
ATOM      6  C   UNL     1       2.801   4.064  19.262  0.00  0.00    +0.000 C 
ATOM      7  C   UNL     1       1.268   4.098  19.369  0.00  0.00    +0.000 C 
BRANCH   6   8
ATOM      8  C   UNL     1       3.442   5.384  19.783  0.00  0.00    +0.000 C 
BRANCH   8   9
ATOM      9  C   UNL     1       2.765   6.695  19.410  0.00  0.00    +0.000 A 
ATOM     10  C   UNL     1       2.911   7.238  18.122  0.00  0.00    +0.000 A 
ATOM     11  C   UNL     1       2.267   8.429  17.764  0.00  0.00    +0.000 A 
ATOM     12  C   UNL     1       1.462   9.092  18.688  0.00  0.00    +0.000 A 
ATOM     13  C   UNL     1       1.310   8.564  19.966  0.00  0.00    +0.000 A 
ATOM     14 CL   UNL     1       0.309   9.376  21.109  0.00  0.00    +0.000 Cl
ATOM     15  C   UNL     1       1.953   7.376  20.330  0.00  0.00    +0.000 A 
ENDBRANCH   8   9
ENDBRANCH   6   8
ENDBRANCH   1   6
BRANCH   3  16
ATOM     16  C   UNL     1       4.937   4.102  16.020  0.00  0.00    +0.000 C 
BRANCH  16  17
ATOM     17  C   UNL     1       6.098   5.060  15.665  0.00  0.00    +0.000 C 
BRANCH  17  18
ATOM     18  C   UNL     1       6.814   5.622  16.853  0.00  0.00    +0.000 A 
ATOM     19  C   UNL     1       7.135   6.917  17.219  0.00  0.00    +0.000 A 
ATOM     20  C   UNL     1       7.833   6.833  18.446  0.00  0.00    +0.000 A 
ATOM     21  C   UNL     1       7.894   5.495  18.757  0.00  0.00    +0.000 A 
ATOM     22  O   UNL     1       7.277   4.755  17.801  0.00  0.00    +0.000 OA
ENDBRANCH  17  18
BRANCH  17  23
ATOM     23  O   UNL     1       7.094   4.412  14.871  0.00  0.00    +0.000 OA
ATOM     24  H   UNL     1       6.664   4.155  14.033  0.00  0.00    +0.000 HD
ENDBRANCH  17  23
ENDBRANCH  16  17
ENDBRANCH   3  16
TORSDOF 7
ENDMDL
MODEL 4
REMARK VINA RESULT:      -7.3      3.971      7.039
REMARK  Name = 
REMARK  9 active torsions:
REMARK  status: ('A' for Active; 'I' for Inactive)
REMARK    1  A    between atoms: C_1  and  C_2
REMARK    2  A    between atoms: C_2  and  C_3
REMARK    3  A    between atoms: C_2  and  C_4
REMARK    4  A    between atoms: C_2  and  C_12
REMARK    5  A    between atoms: C_4  and  C_5
REMARK    6  A    between atoms: N_14  and  C_15
REMARK    7  A    between atoms: C_15  and  C_16
REMARK    8  A    between atoms: C_16  and  O_17
REMARK    9  A    between atoms: C_16  and  C_18
REMARK                            x       y       z     vdW  Elec       q    Type
REMARK                         _______ _______ _______ _____ _____    ______ ____
ROOT
ATOM      1  C   UNL     1       4.264   3.993  18.479  0.00  0.00    +0.000 C 
ATOM      2  O   UNL     1       5.204   3.592  19.166  0.00  0.00    +0.000 OA
ATOM      3  N   UNL     1       4.431   4.234  17.131  0.00  0.00    +0.000 N 
ATOM      4  H   UNL     1       3.629   4.446  16.555  0.00  0.00    +0.000 HD
ENDROOT
BRANCH   1   6
ATOM      5  C   UNL     1       2.415   2.994  19.825  0.00  0.00    +0.000 C 
ATOM      6  C   UNL     1       2.853   4.268  19.072  0.00  0.00    +0.000 C 
ATOM      7  C   UNL     1       1.865   4.520  17.922  0.00  0.00    +0.000 C 
BRANCH   6   8
ATOM      8  C   UNL     1       2.924   5.482  20.044  0.00  0.00    +0.000 C 
BRANCH   8   9
ATOM      9  C   UNL     1       2.479   6.838  19.516  0.00  0.00    +0.000 A 
ATOM     10  C   UNL     1       2.844   7.263  18.227  0.00  0.00    +0.000 A 
ATOM     11  C   UNL     1       2.413   8.497  17.725  0.00  0.00    +0.000 A 
ATOM     12  C   UNL     1       1.606   9.324  18.503  0.00  0.00    +0.000 A 
ATOM     13  C   UNL     1       1.237   8.914  19.781  0.00  0.00    +0.000 A 
ATOM     14 CL   UNL     1       0.232   9.929  20.743  0.00  0.00    +0.000 Cl
ATOM     15  C   UNL     1       1.667   7.683  20.288  0.00  0.00    +0.000 A 
ENDBRANCH   8   9
ENDBRANCH   6   8
ENDBRANCH   1   6
BRANCH   3  16
ATOM     16  C   UNL     1       5.709   3.961  16.461  0.00  0.00    +0.000 C 
BRANCH  16  17
ATOM     17  C   UNL     1       6.401   5.224  15.898  0.00  0.00    +0.000 C 
BRANCH  17  18
ATOM     18  C   UNL     1       7.069   6.070  16.936  0.00  0.00    +0.000 A 
ATOM     19  C   UNL     1       7.591   5.775  18.182  0.00  0.00    +0.000 A 
ATOM     20  C   UNL     1       8.085   6.988  18.716  0.00  0.00    +0.000 A 
ATOM     21  C   UNL     1       7.838   7.949  17.764  0.00  0.00    +0.000 A 
ATOM     22  O   UNL     1       7.228   7.403  16.683  0.00  0.00    +0.000 OA
ENDBRANCH  17  18
BRANCH  17  23
ATOM     23  O   UNL     1       7.412   4.894  14.944  0.00  0.00    +0.000 OA
ATOM     24  H   UNL     1       7.345   3.933  14.784  0.00  0.00    +0.000 HD
ENDBRANCH  17  23
ENDBRANCH  16  17
ENDBRANCH   3  16
TORSDOF 7
ENDMDL
MODEL 5
REMARK VINA RESULT:      -7.3      1.281      1.881
REMARK  Name = 
REMARK  9 active torsions:
REMARK  status: ('A' for Active; 'I' for Inactive)
REMARK    1  A    between atoms: C_1  and  C_2
REMARK    2  A    between atoms: C_2  and  C_3
REMARK    3  A    between atoms: C_2  and  C_4
REMARK    4  A    between atoms: C_2  and  C_12
REMARK    5  A    between atoms: C_4  and  C_5
REMARK    6  A    between atoms: N_14  and  C_15
REMARK    7  A    between atoms: C_15  and  C_16
REMARK    8  A    between atoms: C_16  and  O_17
REMARK    9  A    between atoms: C_16  and  C_18
REMARK                            x       y       z     vdW  Elec       q    Type
REMARK                         _______ _______ _______ _____ _____    ______ ____
ROOT
ATOM      1  C   UNL     1       5.857   5.550  18.310  0.00  0.00    +0.000 C 
ATOM      2  O   UNL     1       6.588   5.093  19.189  0.00  0.00    +0.000 OA
ATOM      3  N   UNL     1       4.513   5.749  18.545  0.00  0.00    +0.000 N 
ATOM      4  H   UNL     1       3.949   6.235  17.861  0.00  0.00    +0.000 HD
ENDROOT
BRANCH   1   6
ATOM      5  C   UNL     1       7.470   6.996  17.069  0.00  0.00    +0.000 C 
ATOM      6  C   UNL     1       6.385   5.914  16.892  0.00  0.00    +0.000 C 
ATOM      7  C   UNL     1       5.232   6.507  16.065  0.00  0.00    +0.000 C 
BRANCH   6   8
ATOM      8  C   UNL     1       6.981   4.644  16.217  0.00  0.00    +0.000 C 
BRANCH   8   9
ATOM      9  C   UNL     1       6.999   4.594  14.695  0.00  0.00    +0.000 A 
ATOM     10  C   UNL     1       7.877   5.407  13.959  0.00  0.00    +0.000 A 
ATOM     11  C   UNL     1       7.919   5.344  12.561  0.00  0.00    +0.000 A 
ATOM     12  C   UNL     1       7.086   4.461  11.877  0.00  0.00    +0.000 A 
ATOM     13  C   UNL     1       6.213   3.649  12.595  0.00  0.00    +0.000 A 
ATOM     14 CL   UNL     1       5.187   2.550  11.755  0.00  0.00    +0.000 Cl
ATOM     15  C   UNL     1       6.165   3.711  13.992  0.00  0.00    +0.000 A 
ENDBRANCH   8   9
ENDBRANCH   6   8
ENDBRANCH   1   6
BRANCH   3  16
ATOM     16  C   UNL     1       3.923   5.485  19.863  0.00  0.00    +0.000 C 
BRANCH  16  17
ATOM     17  C   UNL     1       2.380   5.385  19.846  0.00  0.00    +0.000 C 
BRANCH  17  18
ATOM     18  C   UNL     1       1.856   4.082  19.329  0.00  0.00    +0.000 A 
ATOM     19  C   UNL     1       0.744   3.329  19.660  0.00  0.00    +0.000 A 
ATOM     20  C   UNL     1       0.773   2.177  18.841  0.00  0.00    +0.000 A 
ATOM     21  C   UNL     1       1.897   2.295  18.060  0.00  0.00    +0.000 A 
ATOM     22  O   UNL     1       2.557   3.446  18.344  0.00  0.00    +0.000 OA
ENDBRANCH  17  18
BRANCH  17  23
ATOM     23  O   UNL     1       1.825   5.545  21.154  0.00  0.00    +0.000 OA
ATOM     24  H   UNL     1       2.032   6.456  21.438  0.00  0.00    +0.000 HD
ENDBRANCH  17  23
ENDBRANCH  16  17
ENDBRANCH   3  16
TORSDOF 7
ENDMDL
MODEL 6
REMARK VINA RESULT:      -7.3      3.143      4.991
REMARK  Name = 
REMARK  9 active torsions:
REMARK  status: ('A' for Active; 'I' for Inactive)
REMARK    1  A    between atoms: C_1  and  C_2
REMARK    2  A    between atoms: C_2  and  C_3
REMARK    3  A    between atoms: C_2  and  C_4
REMARK    4  A    between atoms: C_2  and  C_12
REMARK    5  A    between atoms: C_4  and  C_5
REMARK    6  A    between atoms: N_14  and  C_15
REMARK    7  A    between atoms: C_15  and  C_16
REMARK    8  A    between atoms: C_16  and  O_17
REMARK    9  A    between atoms: C_16  and  C_18
REMARK                            x       y       z     vdW  Elec       q    Type
REMARK                         _______ _______ _______ _____ _____    ______ ____
ROOT
ATOM      1  C   UNL     1       5.505   4.211  17.824  0.00  0.00    +0.000 C 
ATOM      2  O   UNL     1       5.864   3.916  18.965  0.00  0.00    +0.000 OA
ATOM      3  N   UNL     1       4.669   3.378  17.112  0.00  0.00    +0.000 N 
ATOM      4  H   UNL     1       4.286   3.685  16.228  0.00  0.00    +0.000 HD
ENDROOT
BRANCH   1   6
ATOM      5  C   UNL     1       6.884   5.093  15.939  0.00  0.00    +0.000 C 
ATOM      6  C   UNL     1       5.974   5.513  17.113  0.00  0.00    +0.000 C 
ATOM      7  C   UNL     1       6.803   6.353  18.098  0.00  0.00    +0.000 C 
BRANCH   6   8
ATOM      8  C   UNL     1       4.734   6.297  16.592  0.00  0.00    +0.000 C 
BRANCH   8   9
ATOM      9  C   UNL     1       3.736   6.808  17.621  0.00  0.00    +0.000 A 
ATOM     10  C   UNL     1       3.407   6.036  18.748  0.00  0.00    +0.000 A 
ATOM     11  C   UNL     1       2.511   6.513  19.713  0.00  0.00    +0.000 A 
ATOM     12  C   UNL     1       1.936   7.773  19.569  0.00  0.00    +0.000 A 
ATOM     13  C   UNL     1       2.255   8.548  18.458  0.00  0.00    +0.000 A 
ATOM     14 CL   UNL     1       1.552  10.110  18.279  0.00  0.00    +0.000 Cl
ATOM     15  C   UNL     1       3.146   8.074  17.489  0.00  0.00    +0.000 A 
ENDBRANCH   8   9
ENDBRANCH   6   8
ENDBRANCH   1   6
BRANCH   3  16
ATOM     16  C   UNL     1       4.129   2.149  17.708  0.00  0.00    +0.000 C 
BRANCH  16  17
ATOM     17  C   UNL     1       2.604   2.197  17.959  0.00  0.00    +0.000 C 
BRANCH  17  18
ATOM     18  C   UNL     1       2.225   2.551  19.363  0.00  0.00    +0.000 A 
ATOM     19  C   UNL     1       1.031   2.963  19.928  0.00  0.00    +0.000 A 
ATOM     20  C   UNL     1       1.281   3.165  21.305  0.00  0.00    +0.000 A 
ATOM     21  C   UNL     1       2.608   2.863  21.499  0.00  0.00    +0.000 A 
ATOM     22  O   UNL     1       3.186   2.487  20.331  0.00  0.00    +0.000 OA
ENDBRANCH  17  18
BRANCH  17  23
ATOM     23  O   UNL     1       1.960   3.157  17.120  0.00  0.00    +0.000 OA
ATOM     24  H   UNL     1       1.045   2.845  16.983  0.00  0.00    +0.000 HD
ENDBRANCH  17  23
ENDBRANCH  16  17
ENDBRANCH   3  16
TORSDOF 7
ENDMDL
MODEL 7
REMARK VINA RESULT:      -7.2      3.070      6.969
REMARK  Name = 
REMARK  9 active torsions:
REMARK  status: ('A' for Active; 'I' for Inactive)
REMARK    1  A    between atoms: C_1  and  C_2
REMARK    2  A    between atoms: C_2  and  C_3
REMARK    3  A    between atoms: C_2  and  C_4
REMARK    4  A    between atoms: C_2  and  C_12
REMARK    5  A    between atoms: C_4  and  C_5
REMARK    6  A    between atoms: N_14  and  C_15
REMARK    7  A    between atoms: C_15  and  C_16
REMARK    8  A    between atoms: C_16  and  O_17
REMARK    9  A    between atoms: C_16  and  C_18
REMARK                            x       y       z     vdW  Elec       q    Type
REMARK                         _______ _______ _______ _____ _____    ______ ____
ROOT
ATOM      1  C   UNL     1       4.940   3.677  18.585  0.00  0.00    +0.000 C 
ATOM      2  O   UNL     1       5.602   4.082  19.541  0.00  0.00    +0.000 OA
ATOM      3  N   UNL     1       5.370   3.889  17.291  0.00  0.00    +0.000 N 
ATOM      4  H   UNL     1       4.884   3.450  16.522  0.00  0.00    +0.000 HD
ENDROOT
BRANCH   1   6
ATOM      5  C   UNL     1       3.408   2.658  20.271  0.00  0.00    +0.000 C 
ATOM      6  C   UNL     1       3.589   2.925  18.762  0.00  0.00    +0.000 C 
ATOM      7  C   UNL     1       3.666   1.575  18.031  0.00  0.00    +0.000 C 
BRANCH   6   8
ATOM      8  C   UNL     1       2.427   3.807  18.218  0.00  0.00    +0.000 C 
BRANCH   8   9
ATOM      9  C   UNL     1       2.233   5.184  18.839  0.00  0.00    +0.000 A 
ATOM     10  C   UNL     1       1.862   5.319  20.187  0.00  0.00    +0.000 A 
ATOM     11  C   UNL     1       1.710   6.583  20.771  0.00  0.00    +0.000 A 
ATOM     12  C   UNL     1       1.933   7.731  20.016  0.00  0.00    +0.000 A 
ATOM     13  C   UNL     1       2.301   7.611  18.679  0.00  0.00    +0.000 A 
ATOM     14 CL   UNL     1       2.585   9.028  17.743  0.00  0.00    +0.000 Cl
ATOM     15  C   UNL     1       2.451   6.351  18.091  0.00  0.00    +0.000 A 
ENDBRANCH   8   9
ENDBRANCH   6   8
ENDBRANCH   1   6
BRANCH   3  16
ATOM     16  C   UNL     1       6.654   4.544  17.013  0.00  0.00    +0.000 C 
BRANCH  16  17
ATOM     17  C   UNL     1       6.603   5.538  15.830  0.00  0.00    +0.000 C 
BRANCH  17  18
ATOM     18  C   UNL     1       6.645   4.889  14.482  0.00  0.00    +0.000 A 
ATOM     19  C   UNL     1       5.935   3.838  13.933  0.00  0.00    +0.000 A 
ATOM     20  C   UNL     1       6.419   3.661  12.616  0.00  0.00    +0.000 A 
ATOM     21  C   UNL     1       7.393   4.614  12.440  0.00  0.00    +0.000 A 
ATOM     22  O   UNL     1       7.534   5.365  13.561  0.00  0.00    +0.000 OA
ENDBRANCH  17  18
BRANCH  17  23
ATOM     23  O   UNL     1       5.412   6.327  15.854  0.00  0.00    +0.000 OA
ATOM     24  H   UNL     1       4.760   5.870  15.288  0.00  0.00    +0.000 HD
ENDBRANCH  17  23
ENDBRANCH  16  17
ENDBRANCH   3  16
TORSDOF 7
ENDMDL
MODEL 8
REMARK VINA RESULT:      -7.2      3.251      6.744
REMARK  Name = 
REMARK  9 active torsions:
REMARK  status: ('A' for Active; 'I' for Inactive)
REMARK    1  A    between atoms: C_1  and  C_2
REMARK    2  A    between atoms: C_2  and  C_3
REMARK    3  A    between atoms: C_2  and  C_4
REMARK    4  A    between atoms: C_2  and  C_12
REMARK    5  A    between atoms: C_4  and  C_5
REMARK    6  A    between atoms: N_14  and  C_15
REMARK    7  A    between atoms: C_15  and  C_16
REMARK    8  A    between atoms: C_16  and  O_17
REMARK    9  A    between atoms: C_16  and  C_18
REMARK                            x       y       z     vdW  Elec       q    Type
REMARK                         _______ _______ _______ _____ _____    ______ ____
ROOT
ATOM      1  C   UNL     1       4.293   5.951  18.545  0.00  0.00    +0.000 C 
ATOM      2  O   UNL     1       4.755   5.727  19.664  0.00  0.00    +0.000 OA
ATOM      3  N   UNL     1       4.957   5.529  17.412  0.00  0.00    +0.000 N 
ATOM      4  H   UNL     1       4.512   5.612  16.508  0.00  0.00    +0.000 HD
ENDROOT
BRANCH   1   6
ATOM      5  C   UNL     1       3.242   7.848  17.308  0.00  0.00    +0.000 C 
ATOM      6  C   UNL     1       2.962   6.727  18.331  0.00  0.00    +0.000 C 
ATOM      7  C   UNL     1       2.539   7.373  19.661  0.00  0.00    +0.000 C 
BRANCH   6   8
ATOM      8  C   UNL     1       1.872   5.754  17.794  0.00  0.00    +0.000 C 
BRANCH   8   9
ATOM      9  C   UNL     1       1.861   4.333  18.340  0.00  0.00    +0.000 A 
ATOM     10  C   UNL     1       2.200   3.245  17.517  0.00  0.00    +0.000 A 
ATOM     11  C   UNL     1       2.219   1.938  18.021  0.00  0.00    +0.000 A 
ATOM     12  C   UNL     1       1.907   1.701  19.358  0.00  0.00    +0.000 A 
ATOM     13  C   UNL     1       1.572   2.770  20.182  0.00  0.00    +0.000 A 
ATOM     14 CL   UNL     1       1.192   2.483  21.837  0.00  0.00    +0.000 Cl
ATOM     15  C   UNL     1       1.547   4.077  19.683  0.00  0.00    +0.000 A 
ENDBRANCH   8   9
ENDBRANCH   6   8
ENDBRANCH   1   6
BRANCH   3  16
ATOM     16  C   UNL     1       6.196   4.746  17.503  0.00  0.00    +0.000 C 
BRANCH  16  17
ATOM     17  C   UNL     1       7.289   5.191  16.503  0.00  0.00    +0.000 C 
BRANCH  17  18
ATOM     18  C   UNL     1       7.025   4.787  15.087  0.00  0.00    +0.000 A 
ATOM     19  C   UNL     1       6.165   3.859  14.529  0.00  0.00    +0.000 A 
ATOM     20  C   UNL     1       6.364   3.907  13.129  0.00  0.00    +0.000 A 
ATOM     21  C   UNL     1       7.329   4.862  12.917  0.00  0.00    +0.000 A 
ATOM     22  O   UNL     1       7.732   5.403  14.093  0.00  0.00    +0.000 OA
ENDBRANCH  17  18
BRANCH  17  23
ATOM     23  O   UNL     1       7.444   6.612  16.488  0.00  0.00    +0.000 OA
ATOM     24  H   UNL     1       6.653   6.978  16.048  0.00  0.00    +0.000 HD
ENDBRANCH  17  23
ENDBRANCH  16  17
ENDBRANCH   3  16
TORSDOF 7
ENDMDL
MODEL 9
REMARK VINA RESULT:      -7.1      1.636      2.181
REMARK  Name = 
REMARK  9 active torsions:
REMARK  status: ('A' for Active; 'I' for Inactive)
REMARK    1  A    between atoms: C_1  and  C_2
REMARK    2  A    between atoms: C_2  and  C_3
REMARK    3  A    between atoms: C_2  and  C_4
REMARK    4  A    between atoms: C_2  and  C_12
REMARK    5  A    between atoms: C_4  and  C_5
REMARK    6  A    between atoms: N_14  and  C_15
REMARK    7  A    between atoms: C_15  and  C_16
REMARK    8  A    between atoms: C_16  and  O_17
REMARK    9  A    between atoms: C_16  and  C_18
REMARK                            x       y       z     vdW  Elec       q    Type
REMARK                         _______ _______ _______ _____ _____    ______ ____
ROOT
ATOM      1  C   UNL     1       5.398   4.094  18.080  0.00  0.00    +0.000 C 
ATOM      2  O   UNL     1       5.716   4.000  19.266  0.00  0.00    +0.000 OA
ATOM      3  N   UNL     1       4.347   3.360  17.573  0.00  0.00    +0.000 N 
ATOM      4  H   UNL     1       4.019   3.534  16.633  0.00  0.00    +0.000 HD
ENDROOT
BRANCH   1   6
ATOM      5  C   UNL     1       7.518   4.357  16.789  0.00  0.00    +0.000 C 
ATOM      6  C   UNL     1       6.156   5.018  17.084  0.00  0.00    +0.000 C 
ATOM      7  C   UNL     1       6.407   6.379  17.754  0.00  0.00    +0.000 C 
BRANCH   6   8
ATOM      8  C   UNL     1       5.324   5.168  15.776  0.00  0.00    +0.000 C 
BRANCH   8   9
ATOM      9  C   UNL     1       5.993   4.783  14.464  0.00  0.00    +0.000 A 
ATOM     10  C   UNL     1       7.162   5.433  14.035  0.00  0.00    +0.000 A 
ATOM     11  C   UNL     1       7.798   5.063  12.843  0.00  0.00    +0.000 A 
ATOM     12  C   UNL     1       7.278   4.032  12.065  0.00  0.00    +0.000 A 
ATOM     13  C   UNL     1       6.120   3.380  12.480  0.00  0.00    +0.000 A 
ATOM     14 CL   UNL     1       5.477   2.099  11.525  0.00  0.00    +0.000 Cl
ATOM     15  C   UNL     1       5.479   3.747  13.668  0.00  0.00    +0.000 A 
ENDBRANCH   8   9
ENDBRANCH   6   8
ENDBRANCH   1   6
BRANCH   3  16
ATOM     16  C   UNL     1       3.534   2.495  18.438  0.00  0.00    +0.000 C 
BRANCH  16  17
ATOM     17  C   UNL     1       2.220   3.153  18.919  0.00  0.00    +0.000 C 
BRANCH  17  18
ATOM     18  C   UNL     1       2.294   4.642  19.054  0.00  0.00    +0.000 A 
ATOM     19  C   UNL     1       2.304   5.477  20.157  0.00  0.00    +0.000 A 
ATOM     20  C   UNL     1       2.373   6.801  19.666  0.00  0.00    +0.000 A 
ATOM     21  C   UNL     1       2.403   6.696  18.296  0.00  0.00    +0.000 A 
ATOM     22  O   UNL     1       2.360   5.394  17.916  0.00  0.00    +0.000 OA
ENDBRANCH  17  18
BRANCH  17  23
ATOM     23  O   UNL     1       1.138   2.889  18.024  0.00  0.00    +0.000 OA
ATOM     24  H   UNL     1       1.285   1.995  17.660  0.00  0.00    +0.000 HD
ENDBRANCH  17  23
ENDBRANCH  16  17
ENDBRANCH   3  16
TORSDOF 7
ENDMDL
