MODEL 1
REMARK VINA RESULT:      -7.6      0.000      0.000
REMARK  Name = 
REMARK  4 active torsions:
REMARK  status: ('A' for Active; 'I' for Inactive)
REMARK    1  A    between atoms: N_2  and  C_4
REMARK    2  A    between atoms: C_7  and  N_8
REMARK    3  A    between atoms: N_8  and  C_9
REMARK    4  A    between atoms: C_9  and  N_11
REMARK                            x       y       z     vdW  Elec       q    Type
REMARK                         _______ _______ _______ _____ _____    ______ ____
ROOT
ATOM      1  C   UNL     1       5.401   4.049  16.648  0.00  0.00    +0.000 C 
ATOM      2  S   UNL     1       5.733   3.866  15.003  0.00  0.00    +0.000 S 
ENDROOT
BRANCH   1   3
ATOM      3  N   UNL     1       4.131   3.767  17.201  0.00  0.00    +0.000 N 
ATOM      4  C   UNL     1       3.123   4.849  17.347  0.00  0.00    +0.000 C 
ATOM      5  C   UNL     1       1.727   4.338  17.710  0.00  0.00    +0.000 C 
ATOM      6  C   UNL     1       1.883   3.647  19.036  0.00  0.00    +0.000 A 
ATOM      7  C   UNL     1       1.097   3.979  20.140  0.00  0.00    +0.000 A 
ATOM      8  C   UNL     1       1.442   3.488  21.396  0.00  0.00    +0.000 A 
ATOM      9  C   UNL     1       2.542   2.639  21.539  0.00  0.00    +0.000 A 
ATOM     10  C   UNL     1       3.300   2.263  20.426  0.00  0.00    +0.000 A 
ATOM     11  C   UNL     1       2.985   2.777  19.167  0.00  0.00    +0.000 A 
ATOM     12  C   UNL     1       3.833   2.516  17.938  0.00  0.00    +0.000 C 
ENDBRANCH   1   3
BRANCH   1  13
ATOM     13  N   UNL     1       6.347   4.416  17.603  0.00  0.00    +0.000 N 
ATOM     14  H   UNL     1       6.826   3.625  18.014  0.00  0.00    +0.000 HD
BRANCH  13  18
ATOM     15  C   UNL     1       8.060   8.234  18.249  0.00  0.00    +0.000 A 
ATOM     16  C   UNL     1       8.438   7.173  19.072  0.00  0.00    +0.000 A 
ATOM     17  C   UNL     1       7.891   5.902  18.856  0.00  0.00    +0.000 A 
ATOM     18  C   UNL     1       6.938   5.681  17.855  0.00  0.00    +0.000 A 
ATOM     19  C   UNL     1       6.591   6.750  17.016  0.00  0.00    +0.000 A 
ATOM     20  C   UNL     1       7.144   8.026  17.210  0.00  0.00    +0.000 A 
BRANCH  15  22
ATOM     21  O   UNL     1       9.350   9.734  19.472  0.00  0.00    +0.000 OA
ATOM     22  N   UNL     1       8.638   9.570  18.469  0.00  0.00    +0.000 N 
ATOM     23  O   UNL     1       8.379  10.450  17.637  0.00  0.00    +0.000 OA
ENDBRANCH  15  22
ENDBRANCH  13  18
ENDBRANCH   1  13
TORSDOF 4
ENDMDL
MODEL 2
REMARK VINA RESULT:      -7.5      4.392      6.259
REMARK  Name = 
REMARK  4 active torsions:
REMARK  status: ('A' for Active; 'I' for Inactive)
REMARK    1  A    between atoms: N_2  and  C_4
REMARK    2  A    between atoms: C_7  and  N_8
REMARK    3  A    between atoms: N_8  and  C_9
REMARK    4  A    between atoms: C_9  and  N_11
REMARK                            x       y       z     vdW  Elec       q    Type
REMARK                         _______ _______ _______ _____ _____    ______ ____
ROOT
ATOM      1  C   UNL     1       2.796   4.925  19.643  0.00  0.00    +0.000 C 
ATOM      2  S   UNL     1       1.444   3.928  19.477  0.00  0.00    +0.000 S 
ENDROOT
BRANCH   1   3
ATOM      3  N   UNL     1       4.048   4.605  19.070  0.00  0.00    +0.000 N 
ATOM      4  C   UNL     1       5.207   5.516  19.252  0.00  0.00    +0.000 C 
ATOM      5  C   UNL     1       6.538   4.908  18.802  0.00  0.00    +0.000 C 
ATOM      6  C   UNL     1       6.377   4.626  17.334  0.00  0.00    +0.000 A 
ATOM      7  C   UNL     1       7.277   5.111  16.385  0.00  0.00    +0.000 A 
ATOM      8  C   UNL     1       6.953   5.029  15.034  0.00  0.00    +0.000 A 
ATOM      9  C   UNL     1       5.755   4.431  14.635  0.00  0.00    +0.000 A 
ATOM     10  C   UNL     1       4.877   3.896  15.582  0.00  0.00    +0.000 A 
ATOM     11  C   UNL     1       5.174   4.004  16.942  0.00  0.00    +0.000 A 
ATOM     12  C   UNL     1       4.215   3.563  18.029  0.00  0.00    +0.000 C 
ENDBRANCH   1   3
BRANCH   1  13
ATOM     13  N   UNL     1       2.785   6.163  20.281  0.00  0.00    +0.000 N 
ATOM     14  H   UNL     1       3.512   6.260  20.978  0.00  0.00    +0.000 HD
BRANCH  13  18
ATOM     15  C   UNL     1       0.917   9.761  19.059  0.00  0.00    +0.000 A 
ATOM     16  C   UNL     1       0.762   9.330  20.376  0.00  0.00    +0.000 A 
ATOM     17  C   UNL     1       1.389   8.152  20.796  0.00  0.00    +0.000 A 
ATOM     18  C   UNL     1       2.139   7.370  19.908  0.00  0.00    +0.000 A 
ATOM     19  C   UNL     1       2.311   7.832  18.595  0.00  0.00    +0.000 A 
ATOM     20  C   UNL     1       1.702   9.021  18.165  0.00  0.00    +0.000 A 
BRANCH  15  22
ATOM     21  O   UNL     1      -0.916  10.935  18.238  0.00  0.00    +0.000 OA
ATOM     22  N   UNL     1       0.264  11.004  18.616  0.00  0.00    +0.000 N 
ATOM     23  O   UNL     1       0.933  12.046  18.649  0.00  0.00    +0.000 OA
ENDBRANCH  15  22
ENDBRANCH  13  18
ENDBRANCH   1  13
TORSDOF 4
ENDMDL
MODEL 3
REMARK VINA RESULT:      -7.4      4.437      6.363
REMARK  Name = 
REMARK  4 active torsions:
REMARK  status: ('A' for Active; 'I' for Inactive)
REMARK    1  A    between atoms: N_2  and  C_4
REMARK    2  A    between atoms: C_7  and  N_8
REMARK    3  A    between atoms: N_8  and  C_9
REMARK    4  A    between atoms: C_9  and  N_11
REMARK                            x       y       z     vdW  Elec       q    Type
REMARK                         _______ _______ _______ _____ _____    ______ ____
ROOT
ATOM      1  C   UNL     1       2.884   5.008  19.423  0.00  0.00    +0.000 C 
ATOM      2  S   UNL     1       1.501   4.044  19.326  0.00  0.00    +0.000 S 
ENDROOT
BRANCH   1   3
ATOM      3  N   UNL     1       4.116   4.627  18.844  0.00  0.00    +0.000 N 
ATOM      4  C   UNL     1       5.315   5.489  19.003  0.00  0.00    +0.000 C 
ATOM      5  C   UNL     1       6.614   4.818  18.551  0.00  0.00    +0.000 C 
ATOM      6  C   UNL     1       6.427   4.523  17.088  0.00  0.00    +0.000 A 
ATOM      7  C   UNL     1       7.339   4.957  16.125  0.00  0.00    +0.000 A 
ATOM      8  C   UNL     1       6.999   4.871  14.778  0.00  0.00    +0.000 A 
ATOM      9  C   UNL     1       5.774   4.319  14.397  0.00  0.00    +0.000 A 
ATOM     10  C   UNL     1       4.881   3.836  15.359  0.00  0.00    +0.000 A 
ATOM     11  C   UNL     1       5.196   3.949  16.714  0.00  0.00    +0.000 A 
ATOM     12  C   UNL     1       4.228   3.564  17.816  0.00  0.00    +0.000 C 
ENDBRANCH   1   3
BRANCH   1  13
ATOM     13  N   UNL     1       2.919   6.273  20.004  0.00  0.00    +0.000 N 
ATOM     14  H   UNL     1       3.701   6.402  20.633  0.00  0.00    +0.000 HD
BRANCH  13  18
ATOM     15  C   UNL     1       0.828   9.818  19.010  0.00  0.00    +0.000 A 
ATOM     16  C   UNL     1       1.565   9.166  18.022  0.00  0.00    +0.000 A 
ATOM     17  C   UNL     1       2.245   7.983  18.335  0.00  0.00    +0.000 A 
ATOM     18  C   UNL     1       2.237   7.461  19.634  0.00  0.00    +0.000 A 
ATOM     19  C   UNL     1       1.466   8.111  20.610  0.00  0.00    +0.000 A 
ATOM     20  C   UNL     1       0.765   9.288  20.306  0.00  0.00    +0.000 A 
BRANCH  15  22
ATOM     21  O   UNL     1      -0.968  10.957  18.068  0.00  0.00    +0.000 OA
ATOM     22  N   UNL     1       0.105  11.058  18.683  0.00  0.00    +0.000 N 
ATOM     23  O   UNL     1       0.613  12.129  19.042  0.00  0.00    +0.000 OA
ENDBRANCH  15  22
ENDBRANCH  13  18
ENDBRANCH   1  13
TORSDOF 4
ENDMDL
MODEL 4
REMARK VINA RESULT:      -7.3      6.868      8.235
REMARK  Name = 
REMARK  4 active torsions:
REMARK  status: ('A' for Active; 'I' for Inactive)
REMARK    1  A    between atoms: N_2  and  C_4
REMARK    2  A    between atoms: C_7  and  N_8
REMARK    3  A    between atoms: N_8  and  C_9
REMARK    4  A    between atoms: C_9  and  N_11
REMARK                            x       y       z     vdW  Elec       q    Type
REMARK                         _______ _______ _______ _____ _____    ______ ____
ROOT
ATOM      1  C   UNL     1       1.279   8.943  20.275  0.00  0.00    +0.000 C 
ATOM      2  S   UNL     1       0.898   9.182  21.903  0.00  0.00    +0.000 S 
ENDROOT
BRANCH   1   3
ATOM      3  N   UNL     1       1.933   7.779  19.813  0.00  0.00    +0.000 N 
ATOM      4  C   UNL     1       2.165   7.580  18.359  0.00  0.00    +0.000 C 
ATOM      5  C   UNL     1       3.107   6.415  18.045  0.00  0.00    +0.000 C 
ATOM      6  C   UNL     1       2.430   5.190  18.594  0.00  0.00    +0.000 A 
ATOM      7  C   UNL     1       2.187   4.064  17.806  0.00  0.00    +0.000 A 
ATOM      8  C   UNL     1       1.349   3.063  18.289  0.00  0.00    +0.000 A 
ATOM      9  C   UNL     1       0.791   3.170  19.565  0.00  0.00    +0.000 A 
ATOM     10  C   UNL     1       1.077   4.272  20.377  0.00  0.00    +0.000 A 
ATOM     11  C   UNL     1       1.887   5.299  19.891  0.00  0.00    +0.000 A 
ATOM     12  C   UNL     1       2.138   6.580  20.660  0.00  0.00    +0.000 C 
ENDBRANCH   1   3
BRANCH   1  13
ATOM     13  N   UNL     1       0.925   9.818  19.251  0.00  0.00    +0.000 N 
ATOM     14  H   UNL     1       1.659   9.951  18.567  0.00  0.00    +0.000 HD
BRANCH  13  18
ATOM     15  C   UNL     1      -2.884  11.165  17.983  0.00  0.00    +0.000 A 
ATOM     16  C   UNL     1      -2.341  11.678  19.161  0.00  0.00    +0.000 A 
ATOM     17  C   UNL     1      -1.075  11.253  19.580  0.00  0.00    +0.000 A 
ATOM     18  C   UNL     1      -0.356  10.289  18.862  0.00  0.00    +0.000 A 
ATOM     19  C   UNL     1      -0.902   9.805  17.664  0.00  0.00    +0.000 A 
ATOM     20  C   UNL     1      -2.163  10.235  17.222  0.00  0.00    +0.000 A 
BRANCH  15  22
ATOM     21  O   UNL     1      -4.520  11.421  16.349  0.00  0.00    +0.000 OA
ATOM     22  N   UNL     1      -4.213  11.615  17.535  0.00  0.00    +0.000 N 
ATOM     23  O   UNL     1      -4.945  12.160  18.373  0.00  0.00    +0.000 OA
ENDBRANCH  15  22
ENDBRANCH  13  18
ENDBRANCH   1  13
TORSDOF 4
ENDMDL
MODEL 5
REMARK VINA RESULT:      -7.3      3.686      5.064
REMARK  Name = 
REMARK  4 active torsions:
REMARK  status: ('A' for Active; 'I' for Inactive)
REMARK    1  A    between atoms: N_2  and  C_4
REMARK    2  A    between atoms: C_7  and  N_8
REMARK    3  A    between atoms: N_8  and  C_9
REMARK    4  A    between atoms: C_9  and  N_11
REMARK                            x       y       z     vdW  Elec       q    Type
REMARK                         _______ _______ _______ _____ _____    ______ ____
ROOT
ATOM      1  C   UNL     1       3.455   3.797  18.075  0.00  0.00    +0.000 C 
ATOM      2  S   UNL     1       2.221   2.709  17.696  0.00  0.00    +0.000 S 
ENDROOT
BRANCH   1   3
ATOM      3  N   UNL     1       3.228   4.966  18.836  0.00  0.00    +0.000 N 
ATOM      4  C   UNL     1       2.083   5.031  19.780  0.00  0.00    +0.000 C 
ATOM      5  C   UNL     1       2.127   6.246  20.711  0.00  0.00    +0.000 C 
ATOM      6  C   UNL     1       2.073   7.447  19.808  0.00  0.00    +0.000 A 
ATOM      7  C   UNL     1       1.118   8.451  19.972  0.00  0.00    +0.000 A 
ATOM      8  C   UNL     1       0.958   9.408  18.973  0.00  0.00    +0.000 A 
ATOM      9  C   UNL     1       1.773   9.382  17.840  0.00  0.00    +0.000 A 
ATOM     10  C   UNL     1       2.766   8.408  17.699  0.00  0.00    +0.000 A 
ATOM     11  C   UNL     1       2.913   7.422  18.677  0.00  0.00    +0.000 A 
ATOM     12  C   UNL     1       3.879   6.263  18.535  0.00  0.00    +0.000 C 
ENDBRANCH   1   3
BRANCH   1  13
ATOM     13  N   UNL     1       4.795   3.609  17.744  0.00  0.00    +0.000 N 
ATOM     14  H   UNL     1       5.260   2.929  18.330  0.00  0.00    +0.000 HD
BRANCH  13  18
ATOM     15  C   UNL     1       6.979   4.759  14.303  0.00  0.00    +0.000 A 
ATOM     16  C   UNL     1       5.726   4.167  14.144  0.00  0.00    +0.000 A 
ATOM     17  C   UNL     1       4.988   3.799  15.275  0.00  0.00    +0.000 A 
ATOM     18  C   UNL     1       5.498   3.975  16.567  0.00  0.00    +0.000 A 
ATOM     19  C   UNL     1       6.746   4.600  16.711  0.00  0.00    +0.000 A 
ATOM     20  C   UNL     1       7.490   4.990  15.587  0.00  0.00    +0.000 A 
BRANCH  15  22
ATOM     21  O   UNL     1       7.410   4.689  12.018  0.00  0.00    +0.000 OA
ATOM     22  N   UNL     1       7.755   5.154  13.116  0.00  0.00    +0.000 N 
ATOM     23  O   UNL     1       8.707   5.929  13.285  0.00  0.00    +0.000 OA
ENDBRANCH  15  22
ENDBRANCH  13  18
ENDBRANCH   1  13
TORSDOF 4
ENDMDL
MODEL 6
REMARK VINA RESULT:      -7.2      6.965      8.368
REMARK  Name = 
REMARK  4 active torsions:
REMARK  status: ('A' for Active; 'I' for Inactive)
REMARK    1  A    between atoms: N_2  and  C_4
REMARK    2  A    between atoms: C_7  and  N_8
REMARK    3  A    between atoms: N_8  and  C_9
REMARK    4  A    between atoms: C_9  and  N_11
REMARK                            x       y       z     vdW  Elec       q    Type
REMARK                         _______ _______ _______ _____ _____    ______ ____
ROOT
ATOM      1  C   UNL     1       1.133   9.067  20.372  0.00  0.00    +0.000 C 
ATOM      2  S   UNL     1       0.650   9.210  21.984  0.00  0.00    +0.000 S 
ENDROOT
BRANCH   1   3
ATOM      3  N   UNL     1       1.843   7.944  19.890  0.00  0.00    +0.000 N 
ATOM      4  C   UNL     1       2.098   7.790  18.435  0.00  0.00    +0.000 C 
ATOM      5  C   UNL     1       3.093   6.675  18.105  0.00  0.00    +0.000 C 
ATOM      6  C   UNL     1       2.465   5.409  18.617  0.00  0.00    +0.000 A 
ATOM      7  C   UNL     1       2.279   4.293  17.800  0.00  0.00    +0.000 A 
ATOM      8  C   UNL     1       1.481   3.245  18.249  0.00  0.00    +0.000 A 
ATOM      9  C   UNL     1       0.905   3.297  19.521  0.00  0.00    +0.000 A 
ATOM     10  C   UNL     1       1.134   4.390  20.361  0.00  0.00    +0.000 A 
ATOM     11  C   UNL     1       1.904   5.463  19.909  0.00  0.00    +0.000 A 
ATOM     12  C   UNL     1       2.091   6.735  20.711  0.00  0.00    +0.000 C 
ENDBRANCH   1   3
BRANCH   1  13
ATOM     13  N   UNL     1       0.819   9.988  19.375  0.00  0.00    +0.000 N 
ATOM     14  H   UNL     1       1.612  10.238  18.798  0.00  0.00    +0.000 HD
BRANCH  13  18
ATOM     15  C   UNL     1      -2.976  11.221  17.959  0.00  0.00    +0.000 A 
ATOM     16  C   UNL     1      -2.289  10.219  17.273  0.00  0.00    +0.000 A 
ATOM     17  C   UNL     1      -1.042   9.791  17.743  0.00  0.00    +0.000 A 
ATOM     18  C   UNL     1      -0.447  10.378  18.866  0.00  0.00    +0.000 A 
ATOM     19  C   UNL     1      -1.163  11.362  19.563  0.00  0.00    +0.000 A 
ATOM     20  C   UNL     1      -2.422  11.789  19.113  0.00  0.00    +0.000 A 
BRANCH  15  22
ATOM     21  O   UNL     1      -4.556  11.488  16.272  0.00  0.00    +0.000 OA
ATOM     22  N   UNL     1      -4.291  11.668  17.472  0.00  0.00    +0.000 N 
ATOM     23  O   UNL     1      -5.056  12.196  18.291  0.00  0.00    +0.000 OA
ENDBRANCH  15  22
ENDBRANCH  13  18
ENDBRANCH   1  13
TORSDOF 4
ENDMDL
MODEL 7
REMARK VINA RESULT:      -7.2      4.343      5.095
REMARK  Name = 
REMARK  4 active torsions:
REMARK  status: ('A' for Active; 'I' for Inactive)
REMARK    1  A    between atoms: N_2  and  C_4
REMARK    2  A    between atoms: C_7  and  N_8
REMARK    3  A    between atoms: N_8  and  C_9
REMARK    4  A    between atoms: C_9  and  N_11
REMARK                            x       y       z     vdW  Elec       q    Type
REMARK                         _______ _______ _______ _____ _____    ______ ____
ROOT
ATOM      1  C   UNL     1       4.608   6.512  17.474  0.00  0.00    +0.000 C 
ATOM      2  S   UNL     1       6.179   7.113  17.321  0.00  0.00    +0.000 S 
ENDROOT
BRANCH   1   3
ATOM      3  N   UNL     1       4.338   5.212  17.956  0.00  0.00    +0.000 N 
ATOM      4  C   UNL     1       3.632   4.227  17.096  0.00  0.00    +0.000 C 
ATOM      5  C   UNL     1       3.651   2.803  17.656  0.00  0.00    +0.000 C 
ATOM      6  C   UNL     1       2.939   2.880  18.978  0.00  0.00    +0.000 A 
ATOM      7  C   UNL     1       1.857   2.054  19.285  0.00  0.00    +0.000 A 
ATOM      8  C   UNL     1       1.088   2.329  20.412  0.00  0.00    +0.000 A 
ATOM      9  C   UNL     1       1.421   3.398  21.245  0.00  0.00    +0.000 A 
ATOM     10  C   UNL     1       2.536   4.196  20.969  0.00  0.00    +0.000 A 
ATOM     11  C   UNL     1       3.295   3.952  19.823  0.00  0.00    +0.000 A 
ATOM     12  C   UNL     1       4.438   4.847  19.390  0.00  0.00    +0.000 C 
ENDBRANCH   1   3
BRANCH   1  13
ATOM     13  N   UNL     1       3.457   7.252  17.214  0.00  0.00    +0.000 N 
ATOM     14  H   UNL     1       3.018   7.013  16.334  0.00  0.00    +0.000 HD
BRANCH  13  18
ATOM     15  C   UNL     1       1.084   9.488  19.916  0.00  0.00    +0.000 A 
ATOM     16  C   UNL     1       1.367  10.023  18.660  0.00  0.00    +0.000 A 
ATOM     17  C   UNL     1       2.136   9.285  17.752  0.00  0.00    +0.000 A 
ATOM     18  C   UNL     1       2.664   8.034  18.093  0.00  0.00    +0.000 A 
ATOM     19  C   UNL     1       2.344   7.495  19.349  0.00  0.00    +0.000 A 
ATOM     20  C   UNL     1       1.560   8.216  20.263  0.00  0.00    +0.000 A 
BRANCH  15  22
ATOM     21  O   UNL     1       0.759  10.500  21.985  0.00  0.00    +0.000 OA
ATOM     22  N   UNL     1       0.270  10.258  20.871  0.00  0.00    +0.000 N 
ATOM     23  O   UNL     1      -0.857  10.620  20.502  0.00  0.00    +0.000 OA
ENDBRANCH  15  22
ENDBRANCH  13  18
ENDBRANCH   1  13
TORSDOF 4
ENDMDL
MODEL 8
REMARK VINA RESULT:      -7.2      4.940      6.152
REMARK  Name = 
REMARK  4 active torsions:
REMARK  status: ('A' for Active; 'I' for Inactive)
REMARK    1  A    between atoms: N_2  and  C_4
REMARK    2  A    between atoms: C_7  and  N_8
REMARK    3  A    between atoms: N_8  and  C_9
REMARK    4  A    between atoms: C_9  and  N_11
REMARK                            x       y       z     vdW  Elec       q    Type
REMARK                         _______ _______ _______ _____ _____    ______ ____
ROOT
ATOM      1  C   UNL     1       1.952   6.302  19.726  0.00  0.00    +0.000 C 
ATOM      2  S   UNL     1       1.928   5.059  20.868  0.00  0.00    +0.000 S 
ENDROOT
BRANCH   1   3
ATOM      3  N   UNL     1       1.709   7.651  20.068  0.00  0.00    +0.000 N 
ATOM      4  C   UNL     1       1.049   7.987  21.356  0.00  0.00    +0.000 C 
ATOM      5  C   UNL     1       1.096   9.479  21.694  0.00  0.00    +0.000 C 
ATOM      6  C   UNL     1       0.354  10.169  20.583  0.00  0.00    +0.000 A 
ATOM      7  C   UNL     1      -0.710  11.037  20.830  0.00  0.00    +0.000 A 
ATOM      8  C   UNL     1      -1.510  11.453  19.770  0.00  0.00    +0.000 A 
ATOM      9  C   UNL     1      -1.223  11.036  18.469  0.00  0.00    +0.000 A 
ATOM     10  C   UNL     1      -0.126  10.209  18.212  0.00  0.00    +0.000 A 
ATOM     11  C   UNL     1       0.663   9.756  19.270  0.00  0.00    +0.000 A 
ATOM     12  C   UNL     1       1.790   8.759  19.086  0.00  0.00    +0.000 C 
ENDBRANCH   1   3
BRANCH   1  13
ATOM     13  N   UNL     1       2.281   6.127  18.383  0.00  0.00    +0.000 N 
ATOM     14  H   UNL     1       1.596   6.518  17.750  0.00  0.00    +0.000 HD
BRANCH  13  18
ATOM     15  C   UNL     1       5.994   5.198  16.572  0.00  0.00    +0.000 A 
ATOM     16  C   UNL     1       5.241   4.170  17.140  0.00  0.00    +0.000 A 
ATOM     17  C   UNL     1       4.004   4.463  17.726  0.00  0.00    +0.000 A 
ATOM     18  C   UNL     1       3.522   5.776  17.791  0.00  0.00    +0.000 A 
ATOM     19  C   UNL     1       4.276   6.794  17.189  0.00  0.00    +0.000 A 
ATOM     20  C   UNL     1       5.510   6.513  16.582  0.00  0.00    +0.000 A 
BRANCH  15  22
ATOM     21  O   UNL     1       8.087   4.183  16.586  0.00  0.00    +0.000 OA
ATOM     22  N   UNL     1       7.292   4.892  15.949  0.00  0.00    +0.000 N 
ATOM     23  O   UNL     1       7.512   5.360  14.823  0.00  0.00    +0.000 OA
ENDBRANCH  15  22
ENDBRANCH  13  18
ENDBRANCH   1  13
TORSDOF 4
ENDMDL
MODEL 9
REMARK VINA RESULT:      -7.2      4.608      5.875
REMARK  Name = 
REMARK  4 active torsions:
REMARK  status: ('A' for Active; 'I' for Inactive)
REMARK    1  A    between atoms: N_2  and  C_4
REMARK    2  A    between atoms: C_7  and  N_8
REMARK    3  A    between atoms: N_8  and  C_9
REMARK    4  A    between atoms: C_9  and  N_11
REMARK                            x       y       z     vdW  Elec       q    Type
REMARK                         _______ _______ _______ _____ _____    ______ ____
ROOT
ATOM      1  C   UNL     1       2.585   5.796  19.802  0.00  0.00    +0.000 C 
ATOM      2  S   UNL     1       1.503   4.508  19.947  0.00  0.00    +0.000 S 
ENDROOT
BRANCH   1   3
ATOM      3  N   UNL     1       2.195   7.139  20.002  0.00  0.00    +0.000 N 
ATOM      4  C   UNL     1       1.351   7.506  21.168  0.00  0.00    +0.000 C 
ATOM      5  C   UNL     1       1.238   9.017  21.387  0.00  0.00    +0.000 C 
ATOM      6  C   UNL     1       0.594   9.558  20.141  0.00  0.00    +0.000 A 
ATOM      7  C   UNL     1      -0.558  10.345  20.186  0.00  0.00    +0.000 A 
ATOM      8  C   UNL     1      -1.245  10.614  19.006  0.00  0.00    +0.000 A 
ATOM      9  C   UNL     1      -0.762  10.133  17.787  0.00  0.00    +0.000 A 
ATOM     10  C   UNL     1       0.420   9.389  17.734  0.00  0.00    +0.000 A 
ATOM     11  C   UNL     1       1.100   9.083  18.914  0.00  0.00    +0.000 A 
ATOM     12  C   UNL     1       2.315   8.178  18.951  0.00  0.00    +0.000 C 
ENDBRANCH   1   3
BRANCH   1  13
ATOM     13  N   UNL     1       3.948   5.651  19.552  0.00  0.00    +0.000 N 
ATOM     14  H   UNL     1       4.495   5.502  20.390  0.00  0.00    +0.000 HD
BRANCH  13  18
ATOM     15  C   UNL     1       6.031   4.944  15.933  0.00  0.00    +0.000 A 
ATOM     16  C   UNL     1       4.911   4.168  16.234  0.00  0.00    +0.000 A 
ATOM     17  C   UNL     1       4.205   4.405  17.419  0.00  0.00    +0.000 A 
ATOM     18  C   UNL     1       4.622   5.380  18.333  0.00  0.00    +0.000 A 
ATOM     19  C   UNL     1       5.732   6.172  18.003  0.00  0.00    +0.000 A 
ATOM     20  C   UNL     1       6.440   5.958  16.810  0.00  0.00    +0.000 A 
BRANCH  15  22
ATOM     21  O   UNL     1       7.759   5.417  14.450  0.00  0.00    +0.000 OA
ATOM     22  N   UNL     1       6.772   4.702  14.685  0.00  0.00    +0.000 N 
ATOM     23  O   UNL     1       6.366   3.796  13.943  0.00  0.00    +0.000 OA
ENDBRANCH  15  22
ENDBRANCH  13  18
ENDBRANCH   1  13
TORSDOF 4
ENDMDL
