MODEL 1
REMARK VINA RESULT:      -6.8      0.000      0.000
REMARK  Name = 
REMARK  3 active torsions:
REMARK  status: ('A' for Active; 'I' for Inactive)
REMARK    1  A    between atoms: C_4  and  C_5
REMARK    2  A    between atoms: N_9  and  C_10
REMARK    3  A    between atoms: C_10  and  C_11
REMARK                            x       y       z     vdW  Elec       q    Type
REMARK                         _______ _______ _______ _____ _____    ______ ____
ROOT
ATOM      1  O   UNL     1       5.850   3.936  19.208  0.00  0.00    +0.000 OA
ATOM      2  C   UNL     1       5.613   4.602  18.202  0.00  0.00    +0.000 A 
ATOM      3  C   UNL     1       6.451   4.384  17.002  0.00  0.00    +0.000 A 
ATOM      4  C   UNL     1       6.245   5.066  15.871  0.00  0.00    +0.000 A 
ATOM      5  C   UNL     1       5.131   6.033  15.912  0.00  0.00    +0.000 A 
ATOM      6  N   UNL     1       4.372   6.278  16.931  0.00  0.00    +0.000 NA
ATOM      7  N   UNL     1       4.622   5.564  18.090  0.00  0.00    +0.000 N 
ENDROOT
BRANCH   4   8
ATOM      8  C   UNL     1       7.091   4.963  14.654  0.00  0.00    +0.000 C 
ATOM      9 BR   UNL     1       6.221   3.841  13.327  0.00  0.00    +0.000 Br
ENDBRANCH   4   8
BRANCH   7  10
ATOM     10  C   UNL     1       3.803   5.894  19.253  0.00  0.00    +0.000 C 
BRANCH  10  11
ATOM     11  C   UNL     1       2.693   4.889  19.477  0.00  0.00    +0.000 A 
ATOM     12  C   UNL     1       2.344   4.495  20.776  0.00  0.00    +0.000 A 
ATOM     13  C   UNL     1       1.364   3.523  20.984  0.00  0.00    +0.000 A 
ATOM     14  C   UNL     1       0.723   2.934  19.896  0.00  0.00    +0.000 A 
ATOM     15  C   UNL     1       1.051   3.327  18.599  0.00  0.00    +0.000 A 
ATOM     16  C   UNL     1       2.031   4.299  18.389  0.00  0.00    +0.000 A 
ENDBRANCH  10  11
ENDBRANCH   7  10
TORSDOF 3
ENDMDL
MODEL 2
REMARK VINA RESULT:      -6.8      0.169      1.214
REMARK  Name = 
REMARK  3 active torsions:
REMARK  status: ('A' for Active; 'I' for Inactive)
REMARK    1  A    between atoms: C_4  and  C_5
REMARK    2  A    between atoms: N_9  and  C_10
REMARK    3  A    between atoms: C_10  and  C_11
REMARK                            x       y       z     vdW  Elec       q    Type
REMARK                         _______ _______ _______ _____ _____    ______ ____
ROOT
ATOM      1  O   UNL     1       5.910   3.975  19.071  0.00  0.00    +0.000 OA
ATOM      2  C   UNL     1       5.672   4.626  18.054  0.00  0.00    +0.000 A 
ATOM      3  C   UNL     1       6.508   4.390  16.857  0.00  0.00    +0.000 A 
ATOM      4  C   UNL     1       6.302   5.055  15.716  0.00  0.00    +0.000 A 
ATOM      5  C   UNL     1       5.189   6.023  15.744  0.00  0.00    +0.000 A 
ATOM      6  N   UNL     1       4.431   6.284  16.760  0.00  0.00    +0.000 NA
ATOM      7  N   UNL     1       4.681   5.587  17.929  0.00  0.00    +0.000 N 
ENDROOT
BRANCH   4   8
ATOM      8  C   UNL     1       7.147   4.933  14.500  0.00  0.00    +0.000 C 
ATOM      9 BR   UNL     1       6.260   3.819  13.177  0.00  0.00    +0.000 Br
ENDBRANCH   4   8
BRANCH   7  10
ATOM     10  C   UNL     1       3.863   5.934  19.088  0.00  0.00    +0.000 C 
BRANCH  10  11
ATOM     11  C   UNL     1       2.800   4.895  19.371  0.00  0.00    +0.000 A 
ATOM     12  C   UNL     1       2.192   4.197  18.319  0.00  0.00    +0.000 A 
ATOM     13  C   UNL     1       1.168   3.282  18.571  0.00  0.00    +0.000 A 
ATOM     14  C   UNL     1       0.740   3.056  19.878  0.00  0.00    +0.000 A 
ATOM     15  C   UNL     1       1.346   3.734  20.935  0.00  0.00    +0.000 A 
ATOM     16  C   UNL     1       2.371   4.648  20.684  0.00  0.00    +0.000 A 
ENDBRANCH  10  11
ENDBRANCH   7  10
TORSDOF 3
ENDMDL
MODEL 3
REMARK VINA RESULT:      -6.8      1.273      1.670
REMARK  Name = 
REMARK  3 active torsions:
REMARK  status: ('A' for Active; 'I' for Inactive)
REMARK    1  A    between atoms: C_4  and  C_5
REMARK    2  A    between atoms: N_9  and  C_10
REMARK    3  A    between atoms: C_10  and  C_11
REMARK                            x       y       z     vdW  Elec       q    Type
REMARK                         _______ _______ _______ _____ _____    ______ ____
ROOT
ATOM      1  O   UNL     1       3.709   7.400  17.250  0.00  0.00    +0.000 OA
ATOM      2  C   UNL     1       4.520   6.474  17.254  0.00  0.00    +0.000 A 
ATOM      3  C   UNL     1       5.329   6.244  16.037  0.00  0.00    +0.000 A 
ATOM      4  C   UNL     1       6.234   5.262  15.973  0.00  0.00    +0.000 A 
ATOM      5  C   UNL     1       6.362   4.444  17.194  0.00  0.00    +0.000 A 
ATOM      6  N   UNL     1       5.677   4.586  18.282  0.00  0.00    +0.000 NA
ATOM      7  N   UNL     1       4.740   5.603  18.309  0.00  0.00    +0.000 N 
ENDROOT
BRANCH   4   8
ATOM      8  C   UNL     1       7.026   4.918  14.764  0.00  0.00    +0.000 C 
ATOM      9 BR   UNL     1       5.955   3.855  13.540  0.00  0.00    +0.000 Br
ENDBRANCH   4   8
BRANCH   7  10
ATOM     10  C   UNL     1       3.926   5.714  19.517  0.00  0.00    +0.000 C 
BRANCH  10  11
ATOM     11  C   UNL     1       2.779   4.727  19.528  0.00  0.00    +0.000 A 
ATOM     12  C   UNL     1       2.237   4.284  20.743  0.00  0.00    +0.000 A 
ATOM     13  C   UNL     1       1.220   3.328  20.759  0.00  0.00    +0.000 A 
ATOM     14  C   UNL     1       0.735   2.803  19.562  0.00  0.00    +0.000 A 
ATOM     15  C   UNL     1       1.256   3.246  18.348  0.00  0.00    +0.000 A 
ATOM     16  C   UNL     1       2.272   4.203  18.329  0.00  0.00    +0.000 A 
ENDBRANCH  10  11
ENDBRANCH   7  10
TORSDOF 3
ENDMDL
MODEL 4
REMARK VINA RESULT:      -6.7      1.123      1.348
REMARK  Name = 
REMARK  3 active torsions:
REMARK  status: ('A' for Active; 'I' for Inactive)
REMARK    1  A    between atoms: C_4  and  C_5
REMARK    2  A    between atoms: N_9  and  C_10
REMARK    3  A    between atoms: C_10  and  C_11
REMARK                            x       y       z     vdW  Elec       q    Type
REMARK                         _______ _______ _______ _____ _____    ______ ____
ROOT
ATOM      1  O   UNL     1       7.418   4.500  18.762  0.00  0.00    +0.000 OA
ATOM      2  C   UNL     1       6.675   4.751  17.814  0.00  0.00    +0.000 A 
ATOM      3  C   UNL     1       7.223   4.646  16.444  0.00  0.00    +0.000 A 
ATOM      4  C   UNL     1       6.472   4.896  15.367  0.00  0.00    +0.000 A 
ATOM      5  C   UNL     1       5.074   5.275  15.650  0.00  0.00    +0.000 A 
ATOM      6  N   UNL     1       4.539   5.397  16.821  0.00  0.00    +0.000 NA
ATOM      7  N   UNL     1       5.350   5.144  17.914  0.00  0.00    +0.000 N 
ENDROOT
BRANCH   4   8
ATOM      8  C   UNL     1       6.969   4.889  13.967  0.00  0.00    +0.000 C 
ATOM      9 BR   UNL     1       6.015   3.555  12.924  0.00  0.00    +0.000 Br
ENDBRANCH   4   8
BRANCH   7  10
ATOM     10  C   UNL     1       4.756   5.348  19.233  0.00  0.00    +0.000 C 
BRANCH  10  11
ATOM     11  C   UNL     1       3.562   4.449  19.469  0.00  0.00    +0.000 A 
ATOM     12  C   UNL     1       3.629   3.084  19.157  0.00  0.00    +0.000 A 
ATOM     13  C   UNL     1       2.510   2.263  19.315  0.00  0.00    +0.000 A 
ATOM     14  C   UNL     1       1.313   2.798  19.786  0.00  0.00    +0.000 A 
ATOM     15  C   UNL     1       1.237   4.151  20.113  0.00  0.00    +0.000 A 
ATOM     16  C   UNL     1       2.355   4.973  19.956  0.00  0.00    +0.000 A 
ENDBRANCH  10  11
ENDBRANCH   7  10
TORSDOF 3
ENDMDL
MODEL 5
REMARK VINA RESULT:      -6.6      2.880      3.452
REMARK  Name = 
REMARK  3 active torsions:
REMARK  status: ('A' for Active; 'I' for Inactive)
REMARK    1  A    between atoms: C_4  and  C_5
REMARK    2  A    between atoms: N_9  and  C_10
REMARK    3  A    between atoms: C_10  and  C_11
REMARK                            x       y       z     vdW  Elec       q    Type
REMARK                         _______ _______ _______ _____ _____    ______ ____
ROOT
ATOM      1  O   UNL     1       5.778   5.793  15.114  0.00  0.00    +0.000 OA
ATOM      2  C   UNL     1       6.115   5.659  16.289  0.00  0.00    +0.000 A 
ATOM      3  C   UNL     1       7.033   6.658  16.876  0.00  0.00    +0.000 A 
ATOM      4  C   UNL     1       7.435   6.580  18.148  0.00  0.00    +0.000 A 
ATOM      5  C   UNL     1       6.893   5.437  18.910  0.00  0.00    +0.000 A 
ATOM      6  N   UNL     1       6.098   4.525  18.452  0.00  0.00    +0.000 NA
ATOM      7  N   UNL     1       5.714   4.630  17.127  0.00  0.00    +0.000 N 
ENDROOT
BRANCH   4   8
ATOM      8  C   UNL     1       8.415   7.496  18.786  0.00  0.00    +0.000 C 
ATOM      9 BR   UNL     1       8.288   9.267  17.997  0.00  0.00    +0.000 Br
ENDBRANCH   4   8
BRANCH   7  10
ATOM     10  C   UNL     1       4.870   3.560  16.601  0.00  0.00    +0.000 C 
BRANCH  10  11
ATOM     11  C   UNL     1       3.619   3.358  17.428  0.00  0.00    +0.000 A 
ATOM     12  C   UNL     1       3.389   2.139  18.082  0.00  0.00    +0.000 A 
ATOM     13  C   UNL     1       2.208   1.928  18.795  0.00  0.00    +0.000 A 
ATOM     14  C   UNL     1       1.243   2.932  18.862  0.00  0.00    +0.000 A 
ATOM     15  C   UNL     1       1.466   4.153  18.228  0.00  0.00    +0.000 A 
ATOM     16  C   UNL     1       2.647   4.367  17.515  0.00  0.00    +0.000 A 
ENDBRANCH  10  11
ENDBRANCH   7  10
TORSDOF 3
ENDMDL
MODEL 6
REMARK VINA RESULT:      -6.6      1.452      1.935
REMARK  Name = 
REMARK  3 active torsions:
REMARK  status: ('A' for Active; 'I' for Inactive)
REMARK    1  A    between atoms: C_4  and  C_5
REMARK    2  A    between atoms: N_9  and  C_10
REMARK    3  A    between atoms: C_10  and  C_11
REMARK                            x       y       z     vdW  Elec       q    Type
REMARK                         _______ _______ _______ _____ _____    ______ ____
ROOT
ATOM      1  O   UNL     1       3.457   6.376  17.342  0.00  0.00    +0.000 OA
ATOM      2  C   UNL     1       4.536   5.787  17.310  0.00  0.00    +0.000 A 
ATOM      3  C   UNL     1       5.239   5.676  16.013  0.00  0.00    +0.000 A 
ATOM      4  C   UNL     1       6.418   5.057  15.906  0.00  0.00    +0.000 A 
ATOM      5  C   UNL     1       6.957   4.505  17.164  0.00  0.00    +0.000 A 
ATOM      6  N   UNL     1       6.387   4.557  18.324  0.00  0.00    +0.000 NA
ATOM      7  N   UNL     1       5.160   5.194  18.396  0.00  0.00    +0.000 N 
ENDROOT
BRANCH   4   8
ATOM      8  C   UNL     1       7.146   4.836  14.629  0.00  0.00    +0.000 C 
ATOM      9 BR   UNL     1       6.050   3.800  13.403  0.00  0.00    +0.000 Br
ENDBRANCH   4   8
BRANCH   7  10
ATOM     10  C   UNL     1       4.494   5.191  19.697  0.00  0.00    +0.000 C 
BRANCH  10  11
ATOM     11  C   UNL     1       3.291   4.274  19.722  0.00  0.00    +0.000 A 
ATOM     12  C   UNL     1       3.377   2.976  19.198  0.00  0.00    +0.000 A 
ATOM     13  C   UNL     1       2.254   2.148  19.164  0.00  0.00    +0.000 A 
ATOM     14  C   UNL     1       1.032   2.608  19.652  0.00  0.00    +0.000 A 
ATOM     15  C   UNL     1       0.936   3.892  20.188  0.00  0.00    +0.000 A 
ATOM     16  C   UNL     1       2.059   4.721  20.224  0.00  0.00    +0.000 A 
ENDBRANCH  10  11
ENDBRANCH   7  10
TORSDOF 3
ENDMDL
MODEL 7
REMARK VINA RESULT:      -6.5      1.571      2.180
REMARK  Name = 
REMARK  3 active torsions:
REMARK  status: ('A' for Active; 'I' for Inactive)
REMARK    1  A    between atoms: C_4  and  C_5
REMARK    2  A    between atoms: N_9  and  C_10
REMARK    3  A    between atoms: C_10  and  C_11
REMARK                            x       y       z     vdW  Elec       q    Type
REMARK                         _______ _______ _______ _____ _____    ______ ____
ROOT
ATOM      1  O   UNL     1       3.845   7.590  17.645  0.00  0.00    +0.000 OA
ATOM      2  C   UNL     1       4.122   6.457  17.255  0.00  0.00    +0.000 A 
ATOM      3  C   UNL     1       5.372   6.264  16.489  0.00  0.00    +0.000 A 
ATOM      4  C   UNL     1       5.740   5.059  16.040  0.00  0.00    +0.000 A 
ATOM      5  C   UNL     1       4.817   3.956  16.369  0.00  0.00    +0.000 A 
ATOM      6  N   UNL     1       3.705   4.061  17.022  0.00  0.00    +0.000 NA
ATOM      7  N   UNL     1       3.349   5.325  17.460  0.00  0.00    +0.000 N 
ENDROOT
BRANCH   4   8
ATOM      8  C   UNL     1       6.936   4.798  15.199  0.00  0.00    +0.000 C 
ATOM      9 BR   UNL     1       6.415   3.910  13.550  0.00  0.00    +0.000 Br
ENDBRANCH   4   8
BRANCH   7  10
ATOM     10  C   UNL     1       2.061   5.445  18.139  0.00  0.00    +0.000 C 
BRANCH  10  11
ATOM     11  C   UNL     1       1.936   4.487  19.304  0.00  0.00    +0.000 A 
ATOM     12  C   UNL     1       1.144   3.335  19.193  0.00  0.00    +0.000 A 
ATOM     13  C   UNL     1       0.977   2.481  20.285  0.00  0.00    +0.000 A 
ATOM     14  C   UNL     1       1.598   2.769  21.498  0.00  0.00    +0.000 A 
ATOM     15  C   UNL     1       2.400   3.903  21.617  0.00  0.00    +0.000 A 
ATOM     16  C   UNL     1       2.569   4.759  20.526  0.00  0.00    +0.000 A 
ENDBRANCH  10  11
ENDBRANCH   7  10
TORSDOF 3
ENDMDL
MODEL 8
REMARK VINA RESULT:      -6.5      2.750      3.325
REMARK  Name = 
REMARK  3 active torsions:
REMARK  status: ('A' for Active; 'I' for Inactive)
REMARK    1  A    between atoms: C_4  and  C_5
REMARK    2  A    between atoms: N_9  and  C_10
REMARK    3  A    between atoms: C_10  and  C_11
REMARK                            x       y       z     vdW  Elec       q    Type
REMARK                         _______ _______ _______ _____ _____    ______ ____
ROOT
ATOM      1  O   UNL     1       5.363   5.582  15.258  0.00  0.00    +0.000 OA
ATOM      2  C   UNL     1       5.795   5.460  16.403  0.00  0.00    +0.000 A 
ATOM      3  C   UNL     1       6.751   6.472  16.904  0.00  0.00    +0.000 A 
ATOM      4  C   UNL     1       7.256   6.407  18.140  0.00  0.00    +0.000 A 
ATOM      5  C   UNL     1       6.787   5.268  18.952  0.00  0.00    +0.000 A 
ATOM      6  N   UNL     1       5.966   4.345  18.569  0.00  0.00    +0.000 NA
ATOM      7  N   UNL     1       5.474   4.436  17.278  0.00  0.00    +0.000 N 
ENDROOT
BRANCH   4   8
ATOM      8  C   UNL     1       8.277   7.336  18.688  0.00  0.00    +0.000 C 
ATOM      9 BR   UNL     1       8.137   9.072  17.824  0.00  0.00    +0.000 Br
ENDBRANCH   4   8
BRANCH   7  10
ATOM     10  C   UNL     1       4.598   3.355  16.833  0.00  0.00    +0.000 C 
BRANCH  10  11
ATOM     11  C   UNL     1       3.351   3.239  17.682  0.00  0.00    +0.000 A 
ATOM     12  C   UNL     1       2.512   4.348  17.865  0.00  0.00    +0.000 A 
ATOM     13  C   UNL     1       1.395   4.263  18.697  0.00  0.00    +0.000 A 
ATOM     14  C   UNL     1       1.104   3.070  19.357  0.00  0.00    +0.000 A 
ATOM     15  C   UNL     1       1.922   1.957  19.173  0.00  0.00    +0.000 A 
ATOM     16  C   UNL     1       3.040   2.039  18.340  0.00  0.00    +0.000 A 
ENDBRANCH  10  11
ENDBRANCH   7  10
TORSDOF 3
ENDMDL
MODEL 9
REMARK VINA RESULT:      -6.5      3.202      5.716
REMARK  Name = 
REMARK  3 active torsions:
REMARK  status: ('A' for Active; 'I' for Inactive)
REMARK    1  A    between atoms: C_4  and  C_5
REMARK    2  A    between atoms: N_9  and  C_10
REMARK    3  A    between atoms: C_10  and  C_11
REMARK                            x       y       z     vdW  Elec       q    Type
REMARK                         _______ _______ _______ _____ _____    ______ ____
ROOT
ATOM      1  O   UNL     1       2.719   6.794  18.112  0.00  0.00    +0.000 OA
ATOM      2  C   UNL     1       2.894   5.582  18.001  0.00  0.00    +0.000 A 
ATOM      3  C   UNL     1       2.025   4.672  18.780  0.00  0.00    +0.000 A 
ATOM      4  C   UNL     1       2.153   3.344  18.703  0.00  0.00    +0.000 A 
ATOM      5  C   UNL     1       3.209   2.866  17.789  0.00  0.00    +0.000 A 
ATOM      6  N   UNL     1       4.007   3.607  17.092  0.00  0.00    +0.000 NA
ATOM      7  N   UNL     1       3.856   4.978  17.207  0.00  0.00    +0.000 N 
ENDROOT
BRANCH   4   8
ATOM      8  C   UNL     1       1.375   2.369  19.510  0.00  0.00    +0.000 C 
ATOM      9 BR   UNL     1       1.549   2.777  21.402  0.00  0.00    +0.000 Br
ENDBRANCH   4   8
BRANCH   7  10
ATOM     10  C   UNL     1       4.804   5.807  16.467  0.00  0.00    +0.000 C 
BRANCH  10  11
ATOM     11  C   UNL     1       6.031   6.145  17.286  0.00  0.00    +0.000 A 
ATOM     12  C   UNL     1       6.466   5.282  18.301  0.00  0.00    +0.000 A 
ATOM     13  C   UNL     1       7.560   5.619  19.100  0.00  0.00    +0.000 A 
ATOM     14  C   UNL     1       8.231   6.823  18.893  0.00  0.00    +0.000 A 
ATOM     15  C   UNL     1       7.817   7.684  17.878  0.00  0.00    +0.000 A 
ATOM     16  C   UNL     1       6.723   7.348  17.078  0.00  0.00    +0.000 A 
ENDBRANCH  10  11
ENDBRANCH   7  10
TORSDOF 3
ENDMDL
