MODEL 1
REMARK VINA RESULT:      -8.3      0.000      0.000
REMARK  Name = 
REMARK  5 active torsions:
REMARK  status: ('A' for Active; 'I' for Inactive)
REMARK    1  A    between atoms: C_1  and  N_2
REMARK    2  A    between atoms: C_6  and  C_7
REMARK    3  A    between atoms: C_7  and  C_8
REMARK    4  A    between atoms: C_8  and  C_9
REMARK    5  A    between atoms: C_13  and  C_14
REMARK                            x       y       z     vdW  Elec       q    Type
REMARK                         _______ _______ _______ _____ _____    ______ ____
ROOT
ATOM      1  C   UNL     1       1.656   9.464  17.934  0.00  0.00    +0.000 C 
ENDROOT
BRANCH   1   2
ATOM      2  C   UNL     1       2.299   8.153  18.344  0.00  0.00    +0.000 A 
ATOM      3  C   UNL     1       1.954   7.527  19.543  0.00  0.00    +0.000 A 
ATOM      4  C   UNL     1       2.586   6.352  19.932  0.00  0.00    +0.000 A 
ATOM      5  C   UNL     1       3.571   5.785  19.119  0.00  0.00    +0.000 A 
ATOM      6  C   UNL     1       3.928   6.363  17.890  0.00  0.00    +0.000 A 
ATOM      7  C   UNL     1       3.263   7.548  17.517  0.00  0.00    +0.000 A 
BRANCH   6   8
ATOM      8  C   UNL     1       4.984   5.770  17.038  0.00  0.00    +0.000 A 
ATOM      9  C   UNL     1       4.818   4.548  16.367  0.00  0.00    +0.000 A 
ATOM     10  C   UNL     1       5.844   4.020  15.583  0.00  0.00    +0.000 A 
ATOM     11  C   UNL     1       7.023   4.732  15.475  0.00  0.00    +0.000 A 
ATOM     12  N   UNL     1       7.238   5.910  16.089  0.00  0.00    +0.000 NA
ATOM     13  C   UNL     1       6.223   6.390  16.851  0.00  0.00    +0.000 A 
ENDBRANCH   6   8
ENDBRANCH   1   2
BRANCH   1  14
ATOM     14  C   UNL     1       0.715  10.009  19.020  0.00  0.00    +0.000 C 
BRANCH  14  20
ATOM     15  C   UNL     1      -4.455  11.564  17.263  0.00  0.00    +0.000 C 
ATOM     16  N   UNL     1      -3.139  11.167  17.733  0.00  0.00    +0.000 N 
ATOM     17  C   UNL     1      -2.492  11.750  18.804  0.00  0.00    +0.000 A 
ATOM     18  N   UNL     1      -3.091  12.738  19.527  0.00  0.00    +0.000 N 
ATOM     19  N   UNL     1      -1.299  11.402  19.191  0.00  0.00    +0.000 NA
ATOM     20  C   UNL     1      -0.644  10.421  18.495  0.00  0.00    +0.000 A 
ATOM     21  C   UNL     1      -1.164   9.810  17.426  0.00  0.00    +0.000 A 
ATOM     22  C   UNL     1      -2.505  10.198  16.978  0.00  0.00    +0.000 A 
ATOM     23  O   UNL     1      -2.981   9.658  15.981  0.00  0.00    +0.000 OA
ATOM     24  H   UNL     1      -4.088  12.676  19.667  0.00  0.00    +0.000 HD
ATOM     25  H   UNL     1      -2.592  12.909  20.394  0.00  0.00    +0.000 HD
ENDBRANCH  14  20
ENDBRANCH   1  14
TORSDOF 4
ENDMDL
MODEL 2
REMARK VINA RESULT:      -8.1      6.786      9.873
REMARK  Name = 
REMARK  5 active torsions:
REMARK  status: ('A' for Active; 'I' for Inactive)
REMARK    1  A    between atoms: C_1  and  N_2
REMARK    2  A    between atoms: C_6  and  C_7
REMARK    3  A    between atoms: C_7  and  C_8
REMARK    4  A    between atoms: C_8  and  C_9
REMARK    5  A    between atoms: C_13  and  C_14
REMARK                            x       y       z     vdW  Elec       q    Type
REMARK                         _______ _______ _______ _____ _____    ______ ____
ROOT
ATOM      1  C   UNL     1       8.196   9.471  17.866  0.00  0.00    +0.000 C 
ENDROOT
BRANCH   1   2
ATOM      2  C   UNL     1       8.966  10.541  18.615  0.00  0.00    +0.000 A 
ATOM      3  C   UNL     1       9.445  10.310  19.906  0.00  0.00    +0.000 A 
ATOM      4  C   UNL     1      10.107  11.315  20.602  0.00  0.00    +0.000 A 
ATOM      5  C   UNL     1      10.303  12.565  20.009  0.00  0.00    +0.000 A 
ATOM      6  C   UNL     1       9.865  12.832  18.701  0.00  0.00    +0.000 A 
ATOM      7  C   UNL     1       9.207  11.790  18.017  0.00  0.00    +0.000 A 
BRANCH   6   8
ATOM      8  C   UNL     1      10.058  14.162  18.080  0.00  0.00    +0.000 A 
ATOM      9  C   UNL     1      11.274  14.558  17.500  0.00  0.00    +0.000 A 
ATOM     10  C   UNL     1      11.415  15.826  16.936  0.00  0.00    +0.000 A 
ATOM     11  C   UNL     1      10.329  16.679  16.954  0.00  0.00    +0.000 A 
ATOM     12  N   UNL     1       9.138  16.354  17.489  0.00  0.00    +0.000 NA
ATOM     13  C   UNL     1       9.038  15.117  18.037  0.00  0.00    +0.000 A 
ENDBRANCH   6   8
ENDBRANCH   1   2
BRANCH   1  14
ATOM     14  C   UNL     1       8.511   8.060  18.388  0.00  0.00    +0.000 C 
BRANCH  14  20
ATOM     15  C   UNL     1       4.478   4.350  16.902  0.00  0.00    +0.000 C 
ATOM     16  N   UNL     1       5.497   5.316  17.277  0.00  0.00    +0.000 N 
ATOM     17  C   UNL     1       5.843   6.411  16.511  0.00  0.00    +0.000 A 
ATOM     18  N   UNL     1       5.198   6.675  15.340  0.00  0.00    +0.000 N 
ATOM     19  N   UNL     1       6.782   7.248  16.847  0.00  0.00    +0.000 NA
ATOM     20  C   UNL     1       7.472   7.026  18.010  0.00  0.00    +0.000 A 
ATOM     21  C   UNL     1       7.240   5.982  18.812  0.00  0.00    +0.000 A 
ATOM     22  C   UNL     1       6.189   5.030  18.439  0.00  0.00    +0.000 A 
ATOM     23  O   UNL     1       5.984   4.054  19.159  0.00  0.00    +0.000 OA
ATOM     24  H   UNL     1       4.211   6.469  15.293  0.00  0.00    +0.000 HD
ATOM     25  H   UNL     1       5.410   7.611  15.010  0.00  0.00    +0.000 HD
ENDBRANCH  14  20
ENDBRANCH   1  14
TORSDOF 4
ENDMDL
MODEL 3
REMARK VINA RESULT:      -8.0      3.511      7.935
REMARK  Name = 
REMARK  5 active torsions:
REMARK  status: ('A' for Active; 'I' for Inactive)
REMARK    1  A    between atoms: C_1  and  N_2
REMARK    2  A    between atoms: C_6  and  C_7
REMARK    3  A    between atoms: C_7  and  C_8
REMARK    4  A    between atoms: C_8  and  C_9
REMARK    5  A    between atoms: C_13  and  C_14
REMARK                            x       y       z     vdW  Elec       q    Type
REMARK                         _______ _______ _______ _____ _____    ______ ____
ROOT
ATOM      1  C   UNL     1       2.560   3.096  17.731  0.00  0.00    +0.000 C 
ENDROOT
BRANCH   1   2
ATOM      2  C   UNL     1       2.349   4.107  18.841  0.00  0.00    +0.000 A 
ATOM      3  C   UNL     1       2.267   3.702  20.175  0.00  0.00    +0.000 A 
ATOM      4  C   UNL     1       2.024   4.632  21.180  0.00  0.00    +0.000 A 
ATOM      5  C   UNL     1       1.864   5.983  20.859  0.00  0.00    +0.000 A 
ATOM      6  C   UNL     1       1.969   6.439  19.535  0.00  0.00    +0.000 A 
ATOM      7  C   UNL     1       2.227   5.475  18.540  0.00  0.00    +0.000 A 
BRANCH   6   8
ATOM      8  C   UNL     1       1.783   7.868  19.196  0.00  0.00    +0.000 A 
ATOM      9  C   UNL     1       1.155   8.776  20.062  0.00  0.00    +0.000 A 
ATOM     10  C   UNL     1       0.991  10.113  19.697  0.00  0.00    +0.000 A 
ATOM     11  C   UNL     1       1.468  10.523  18.467  0.00  0.00    +0.000 A 
ATOM     12  N   UNL     1       2.084   9.701  17.597  0.00  0.00    +0.000 NA
ATOM     13  C   UNL     1       2.219   8.406  17.981  0.00  0.00    +0.000 A 
ENDBRANCH   6   8
ENDBRANCH   1   2
BRANCH   1  14
ATOM     14  C   UNL     1       4.034   2.677  17.604  0.00  0.00    +0.000 C 
BRANCH  14  20
ATOM     15  C   UNL     1       7.573   7.116  17.552  0.00  0.00    +0.000 C 
ATOM     16  N   UNL     1       6.661   5.985  17.586  0.00  0.00    +0.000 N 
ATOM     17  C   UNL     1       6.526   5.133  18.663  0.00  0.00    +0.000 A 
ATOM     18  N   UNL     1       7.237   5.336  19.807  0.00  0.00    +0.000 N 
ATOM     19  N   UNL     1       5.726   4.106  18.662  0.00  0.00    +0.000 NA
ATOM     20  C   UNL     1       4.994   3.845  17.535  0.00  0.00    +0.000 A 
ATOM     21  C   UNL     1       5.069   4.587  16.425  0.00  0.00    +0.000 A 
ATOM     22  C   UNL     1       5.971   5.743  16.413  0.00  0.00    +0.000 A 
ATOM     23  O   UNL     1       6.063   6.417  15.388  0.00  0.00    +0.000 OA
ATOM     24  H   UNL     1       7.405   6.291  20.090  0.00  0.00    +0.000 HD
ATOM     25  H   UNL     1       6.875   4.769  20.567  0.00  0.00    +0.000 HD
ENDBRANCH  14  20
ENDBRANCH   1  14
TORSDOF 4
ENDMDL
MODEL 4
REMARK VINA RESULT:      -7.9      2.996      4.052
REMARK  Name = 
REMARK  5 active torsions:
REMARK  status: ('A' for Active; 'I' for Inactive)
REMARK    1  A    between atoms: C_1  and  N_2
REMARK    2  A    between atoms: C_6  and  C_7
REMARK    3  A    between atoms: C_7  and  C_8
REMARK    4  A    between atoms: C_8  and  C_9
REMARK    5  A    between atoms: C_13  and  C_14
REMARK                            x       y       z     vdW  Elec       q    Type
REMARK                         _______ _______ _______ _____ _____    ______ ____
ROOT
ATOM      1  C   UNL     1       1.180   5.398  20.334  0.00  0.00    +0.000 C 
ENDROOT
BRANCH   1   2
ATOM      2  C   UNL     1       1.795   4.387  19.385  0.00  0.00    +0.000 A 
ATOM      3  C   UNL     1       1.240   3.115  19.232  0.00  0.00    +0.000 A 
ATOM      4  C   UNL     1       1.840   2.180  18.397  0.00  0.00    +0.000 A 
ATOM      5  C   UNL     1       3.006   2.511  17.700  0.00  0.00    +0.000 A 
ATOM      6  C   UNL     1       3.582   3.788  17.800  0.00  0.00    +0.000 A 
ATOM      7  C   UNL     1       2.944   4.718  18.645  0.00  0.00    +0.000 A 
BRANCH   6   8
ATOM      8  C   UNL     1       4.826   4.131  17.074  0.00  0.00    +0.000 A 
ATOM      9  C   UNL     1       4.883   4.229  15.675  0.00  0.00    +0.000 A 
ATOM     10  C   UNL     1       6.080   4.544  15.031  0.00  0.00    +0.000 A 
ATOM     11  C   UNL     1       7.205   4.765  15.802  0.00  0.00    +0.000 A 
ATOM     12  N   UNL     1       7.210   4.691  17.146  0.00  0.00    +0.000 NA
ATOM     13  C   UNL     1       6.032   4.374  17.739  0.00  0.00    +0.000 A 
ENDBRANCH   6   8
ENDBRANCH   1   2
BRANCH   1  14
ATOM     14  C   UNL     1       2.180   6.493  20.739  0.00  0.00    +0.000 C 
BRANCH  14  20
ATOM     15  C   UNL     1       0.417  11.800  19.763  0.00  0.00    +0.000 C 
ATOM     16  N   UNL     1       0.885  10.446  19.999  0.00  0.00    +0.000 N 
ATOM     17  C   UNL     1       1.333   9.598  19.006  0.00  0.00    +0.000 A 
ATOM     18  N   UNL     1       1.399  10.015  17.711  0.00  0.00    +0.000 N 
ATOM     19  N   UNL     1       1.719   8.376  19.233  0.00  0.00    +0.000 NA
ATOM     20  C   UNL     1       1.664   7.898  20.516  0.00  0.00    +0.000 A 
ATOM     21  C   UNL     1       1.220   8.622  21.549  0.00  0.00    +0.000 A 
ATOM     22  C   UNL     1       0.778   9.998  21.303  0.00  0.00    +0.000 A 
ATOM     23  O   UNL     1       0.345  10.663  22.243  0.00  0.00    +0.000 OA
ATOM     24  H   UNL     1       1.656  10.976  17.541  0.00  0.00    +0.000 HD
ATOM     25  H   UNL     1       1.941   9.368  17.147  0.00  0.00    +0.000 HD
ENDBRANCH  14  20
ENDBRANCH   1  14
TORSDOF 4
ENDMDL
MODEL 5
REMARK VINA RESULT:      -7.9      2.539      8.901
REMARK  Name = 
REMARK  5 active torsions:
REMARK  status: ('A' for Active; 'I' for Inactive)
REMARK    1  A    between atoms: C_1  and  N_2
REMARK    2  A    between atoms: C_6  and  C_7
REMARK    3  A    between atoms: C_7  and  C_8
REMARK    4  A    between atoms: C_8  and  C_9
REMARK    5  A    between atoms: C_13  and  C_14
REMARK                            x       y       z     vdW  Elec       q    Type
REMARK                         _______ _______ _______ _____ _____    ______ ____
ROOT
ATOM      1  C   UNL     1       2.018   8.399  17.814  0.00  0.00    +0.000 C 
ENDROOT
BRANCH   1   2
ATOM      2  C   UNL     1       1.005   9.262  18.538  0.00  0.00    +0.000 A 
ATOM      3  C   UNL     1       1.203   9.643  19.867  0.00  0.00    +0.000 A 
ATOM      4  C   UNL     1       0.244  10.394  20.535  0.00  0.00    +0.000 A 
ATOM      5  C   UNL     1      -0.929  10.777  19.878  0.00  0.00    +0.000 A 
ATOM      6  C   UNL     1      -1.157  10.443  18.533  0.00  0.00    +0.000 A 
ATOM      7  C   UNL     1      -0.161   9.691  17.878  0.00  0.00    +0.000 A 
BRANCH   6   8
ATOM      8  C   UNL     1      -2.407  10.836  17.844  0.00  0.00    +0.000 A 
ATOM      9  C   UNL     1      -2.637  10.571  16.485  0.00  0.00    +0.000 A 
ATOM     10  C   UNL     1      -3.826  10.969  15.872  0.00  0.00    +0.000 A 
ATOM     11  C   UNL     1      -4.774  11.621  16.636  0.00  0.00    +0.000 A 
ATOM     12  N   UNL     1      -4.613  11.897  17.944  0.00  0.00    +0.000 NA
ATOM     13  C   UNL     1      -3.441  11.504  18.505  0.00  0.00    +0.000 A 
ENDBRANCH   6   8
ENDBRANCH   1   2
BRANCH   1  14
ATOM     14  C   UNL     1       2.611   7.314  18.728  0.00  0.00    +0.000 C 
BRANCH  14  20
ATOM     15  C   UNL     1       6.923   4.349  16.526  0.00  0.00    +0.000 C 
ATOM     16  N   UNL     1       5.830   5.107  17.109  0.00  0.00    +0.000 N 
ATOM     17  C   UNL     1       5.221   4.789  18.307  0.00  0.00    +0.000 A 
ATOM     18  N   UNL     1       5.654   3.734  19.051  0.00  0.00    +0.000 N 
ATOM     19  N   UNL     1       4.220   5.462  18.798  0.00  0.00    +0.000 NA
ATOM     20  C   UNL     1       3.734   6.528  18.087  0.00  0.00    +0.000 A 
ATOM     21  C   UNL     1       4.229   6.905  16.903  0.00  0.00    +0.000 A 
ATOM     22  C   UNL     1       5.352   6.151  16.339  0.00  0.00    +0.000 A 
ATOM     23  O   UNL     1       5.797   6.477  15.240  0.00  0.00    +0.000 OA
ATOM     24  H   UNL     1       6.646   3.545  19.061  0.00  0.00    +0.000 HD
ATOM     25  H   UNL     1       5.260   3.761  19.986  0.00  0.00    +0.000 HD
ENDBRANCH  14  20
ENDBRANCH   1  14
TORSDOF 4
ENDMDL
MODEL 6
REMARK VINA RESULT:      -7.9      2.591      3.468
REMARK  Name = 
REMARK  5 active torsions:
REMARK  status: ('A' for Active; 'I' for Inactive)
REMARK    1  A    between atoms: C_1  and  N_2
REMARK    2  A    between atoms: C_6  and  C_7
REMARK    3  A    between atoms: C_7  and  C_8
REMARK    4  A    between atoms: C_8  and  C_9
REMARK    5  A    between atoms: C_13  and  C_14
REMARK                            x       y       z     vdW  Elec       q    Type
REMARK                         _______ _______ _______ _____ _____    ______ ____
ROOT
ATOM      1  C   UNL     1       1.972   6.484  20.199  0.00  0.00    +0.000 C 
ENDROOT
BRANCH   1   2
ATOM      2  C   UNL     1       2.272   5.395  19.187  0.00  0.00    +0.000 A 
ATOM      3  C   UNL     1       1.444   4.277  19.068  0.00  0.00    +0.000 A 
ATOM      4  C   UNL     1       1.756   3.261  18.172  0.00  0.00    +0.000 A 
ATOM      5  C   UNL     1       2.903   3.355  17.379  0.00  0.00    +0.000 A 
ATOM      6  C   UNL     1       3.748   4.475  17.443  0.00  0.00    +0.000 A 
ATOM      7  C   UNL     1       3.400   5.494  18.353  0.00  0.00    +0.000 A 
BRANCH   6   8
ATOM      8  C   UNL     1       4.971   4.565  16.614  0.00  0.00    +0.000 A 
ATOM      9  C   UNL     1       4.951   4.424  15.218  0.00  0.00    +0.000 A 
ATOM     10  C   UNL     1       6.130   4.506  14.476  0.00  0.00    +0.000 A 
ATOM     11  C   UNL     1       7.315   4.737  15.146  0.00  0.00    +0.000 A 
ATOM     12  N   UNL     1       7.396   4.887  16.482  0.00  0.00    +0.000 NA
ATOM     13  C   UNL     1       6.232   4.793  17.173  0.00  0.00    +0.000 A 
ENDBRANCH   6   8
ENDBRANCH   1   2
BRANCH   1  14
ATOM     14  C   UNL     1       2.018   7.885  19.569  0.00  0.00    +0.000 C 
BRANCH  14  20
ATOM     15  C   UNL     1      -1.316  11.528  22.370  0.00  0.00    +0.000 C 
ATOM     16  N   UNL     1      -0.473  10.579  21.664  0.00  0.00    +0.000 N 
ATOM     17  C   UNL     1       0.150   9.503  22.263  0.00  0.00    +0.000 A 
ATOM     18  N   UNL     1      -0.030   9.241  23.588  0.00  0.00    +0.000 N 
ATOM     19  N   UNL     1       0.929   8.681  21.619  0.00  0.00    +0.000 NA
ATOM     20  C   UNL     1       1.156   8.901  20.286  0.00  0.00    +0.000 A 
ATOM     21  C   UNL     1       0.628   9.929  19.613  0.00  0.00    +0.000 A 
ATOM     22  C   UNL     1      -0.246  10.863  20.330  0.00  0.00    +0.000 A 
ATOM     23  O   UNL     1      -0.717  11.824  19.724  0.00  0.00    +0.000 OA
ATOM     24  H   UNL     1      -0.941   9.426  23.981  0.00  0.00    +0.000 HD
ATOM     25  H   UNL     1       0.309   8.315  23.826  0.00  0.00    +0.000 HD
ENDBRANCH  14  20
ENDBRANCH   1  14
TORSDOF 4
ENDMDL
MODEL 7
REMARK VINA RESULT:      -7.8      3.643      7.963
REMARK  Name = 
REMARK  5 active torsions:
REMARK  status: ('A' for Active; 'I' for Inactive)
REMARK    1  A    between atoms: C_1  and  N_2
REMARK    2  A    between atoms: C_6  and  C_7
REMARK    3  A    between atoms: C_7  and  C_8
REMARK    4  A    between atoms: C_8  and  C_9
REMARK    5  A    between atoms: C_13  and  C_14
REMARK                            x       y       z     vdW  Elec       q    Type
REMARK                         _______ _______ _______ _____ _____    ______ ____
ROOT
ATOM      1  C   UNL     1       2.404   3.016  17.665  0.00  0.00    +0.000 C 
ENDROOT
BRANCH   1   2
ATOM      2  C   UNL     1       2.205   3.991  18.810  0.00  0.00    +0.000 A 
ATOM      3  C   UNL     1       2.095   3.540  20.127  0.00  0.00    +0.000 A 
ATOM      4  C   UNL     1       1.864   4.438  21.162  0.00  0.00    +0.000 A 
ATOM      5  C   UNL     1       1.743   5.804  20.890  0.00  0.00    +0.000 A 
ATOM      6  C   UNL     1       1.877   6.305  19.585  0.00  0.00    +0.000 A 
ATOM      7  C   UNL     1       2.123   5.372  18.558  0.00  0.00    +0.000 A 
BRANCH   6   8
ATOM      8  C   UNL     1       1.733   7.751  19.297  0.00  0.00    +0.000 A 
ATOM      9  C   UNL     1       2.078   8.314  18.059  0.00  0.00    +0.000 A 
ATOM     10  C   UNL     1       1.936   9.683  17.834  0.00  0.00    +0.000 A 
ATOM     11  C   UNL     1       1.440  10.470  18.855  0.00  0.00    +0.000 A 
ATOM     12  N   UNL     1       1.087   9.987  20.061  0.00  0.00    +0.000 NA
ATOM     13  C   UNL     1       1.246   8.652  20.248  0.00  0.00    +0.000 A 
ENDBRANCH   6   8
ENDBRANCH   1   2
BRANCH   1  14
ATOM     14  C   UNL     1       3.888   2.681  17.443  0.00  0.00    +0.000 C 
BRANCH  14  20
ATOM     15  C   UNL     1       7.391   7.144  17.648  0.00  0.00    +0.000 C 
ATOM     16  N   UNL     1       6.501   5.998  17.575  0.00  0.00    +0.000 N 
ATOM     17  C   UNL     1       5.696   5.712  16.491  0.00  0.00    +0.000 A 
ATOM     18  N   UNL     1       5.721   6.496  15.377  0.00  0.00    +0.000 N 
ATOM     19  N   UNL     1       4.880   4.698  16.457  0.00  0.00    +0.000 NA
ATOM     20  C   UNL     1       4.804   3.881  17.554  0.00  0.00    +0.000 A 
ATOM     21  C   UNL     1       5.516   4.081  18.668  0.00  0.00    +0.000 A 
ATOM     22  C   UNL     1       6.434   5.224  18.718  0.00  0.00    +0.000 A 
ATOM     23  O   UNL     1       7.075   5.429  19.747  0.00  0.00    +0.000 OA
ATOM     24  H   UNL     1       6.609   6.890  15.103  0.00  0.00    +0.000 HD
ATOM     25  H   UNL     1       5.247   6.044  14.602  0.00  0.00    +0.000 HD
ENDBRANCH  14  20
ENDBRANCH   1  14
TORSDOF 4
ENDMDL
MODEL 8
REMARK VINA RESULT:      -7.8      0.794      1.030
REMARK  Name = 
REMARK  5 active torsions:
REMARK  status: ('A' for Active; 'I' for Inactive)
REMARK    1  A    between atoms: C_1  and  N_2
REMARK    2  A    between atoms: C_6  and  C_7
REMARK    3  A    between atoms: C_7  and  C_8
REMARK    4  A    between atoms: C_8  and  C_9
REMARK    5  A    between atoms: C_13  and  C_14
REMARK                            x       y       z     vdW  Elec       q    Type
REMARK                         _______ _______ _______ _____ _____    ______ ____
ROOT
ATOM      1  C   UNL     1       1.636   9.702  17.997  0.00  0.00    +0.000 C 
ENDROOT
BRANCH   1   2
ATOM      2  C   UNL     1       2.170   8.344  18.409  0.00  0.00    +0.000 A 
ATOM      3  C   UNL     1       1.879   7.808  19.665  0.00  0.00    +0.000 A 
ATOM      4  C   UNL     1       2.414   6.584  20.050  0.00  0.00    +0.000 A 
ATOM      5  C   UNL     1       3.247   5.879  19.177  0.00  0.00    +0.000 A 
ATOM      6  C   UNL     1       3.543   6.365  17.893  0.00  0.00    +0.000 A 
ATOM      7  C   UNL     1       2.976   7.602  17.527  0.00  0.00    +0.000 A 
BRANCH   6   8
ATOM      8  C   UNL     1       4.438   5.624  16.976  0.00  0.00    +0.000 A 
ATOM      9  C   UNL     1       5.136   6.248  15.930  0.00  0.00    +0.000 A 
ATOM     10  C   UNL     1       5.961   5.509  15.083  0.00  0.00    +0.000 A 
ATOM     11  C   UNL     1       6.083   4.151  15.302  0.00  0.00    +0.000 A 
ATOM     12  N   UNL     1       5.446   3.498  16.292  0.00  0.00    +0.000 NA
ATOM     13  C   UNL     1       4.644   4.246  17.091  0.00  0.00    +0.000 A 
ENDBRANCH   6   8
ENDBRANCH   1   2
BRANCH   1  14
ATOM     14  C   UNL     1       0.687  10.293  19.052  0.00  0.00    +0.000 C 
BRANCH  14  20
ATOM     15  C   UNL     1      -4.567  11.481  17.256  0.00  0.00    +0.000 C 
ATOM     16  N   UNL     1      -3.230  11.178  17.737  0.00  0.00    +0.000 N 
ATOM     17  C   UNL     1      -2.631  11.808  18.808  0.00  0.00    +0.000 A 
ATOM     18  N   UNL     1      -3.300  12.756  19.523  0.00  0.00    +0.000 N 
ATOM     19  N   UNL     1      -1.419  11.545  19.204  0.00  0.00    +0.000 NA
ATOM     20  C   UNL     1      -0.694  10.608  18.517  0.00  0.00    +0.000 A 
ATOM     21  C   UNL     1      -1.164   9.958  17.447  0.00  0.00    +0.000 A 
ATOM     22  C   UNL     1      -2.526  10.251  16.989  0.00  0.00    +0.000 A 
ATOM     23  O   UNL     1      -2.957   9.675  15.992  0.00  0.00    +0.000 OA
ATOM     24  H   UNL     1      -4.292  12.626  19.658  0.00  0.00    +0.000 HD
ATOM     25  H   UNL     1      -2.820  12.964  20.392  0.00  0.00    +0.000 HD
ENDBRANCH  14  20
ENDBRANCH   1  14
TORSDOF 4
ENDMDL
MODEL 9
REMARK VINA RESULT:      -7.8      2.636      3.873
REMARK  Name = 
REMARK  5 active torsions:
REMARK  status: ('A' for Active; 'I' for Inactive)
REMARK    1  A    between atoms: C_1  and  N_2
REMARK    2  A    between atoms: C_6  and  C_7
REMARK    3  A    between atoms: C_7  and  C_8
REMARK    4  A    between atoms: C_8  and  C_9
REMARK    5  A    between atoms: C_13  and  C_14
REMARK                            x       y       z     vdW  Elec       q    Type
REMARK                         _______ _______ _______ _____ _____    ______ ____
ROOT
ATOM      1  C   UNL     1       1.136   5.126  20.379  0.00  0.00    +0.000 C 
ENDROOT
BRANCH   1   2
ATOM      2  C   UNL     1       1.800   4.163  19.415  0.00  0.00    +0.000 A 
ATOM      3  C   UNL     1       1.264   2.895  19.182  0.00  0.00    +0.000 A 
ATOM      4  C   UNL     1       1.909   2.002  18.334  0.00  0.00    +0.000 A 
ATOM      5  C   UNL     1       3.101   2.371  17.704  0.00  0.00    +0.000 A 
ATOM      6  C   UNL     1       3.660   3.647  17.886  0.00  0.00    +0.000 A 
ATOM      7  C   UNL     1       2.978   4.534  18.742  0.00  0.00    +0.000 A 
BRANCH   6   8
ATOM      8  C   UNL     1       4.932   4.030  17.230  0.00  0.00    +0.000 A 
ATOM      9  C   UNL     1       6.066   4.430  17.954  0.00  0.00    +0.000 A 
ATOM     10  C   UNL     1       7.240   4.794  17.295  0.00  0.00    +0.000 A 
ATOM     11  C   UNL     1       7.264   4.742  15.915  0.00  0.00    +0.000 A 
ATOM     12  N   UNL     1       6.211   4.361  15.168  0.00  0.00    +0.000 NA
ATOM     13  C   UNL     1       5.083   4.023  15.840  0.00  0.00    +0.000 A 
ENDBRANCH   6   8
ENDBRANCH   1   2
BRANCH   1  14
ATOM     14  C   UNL     1       2.089   6.247  20.825  0.00  0.00    +0.000 C 
BRANCH  14  20
ATOM     15  C   UNL     1       0.497  11.338  18.882  0.00  0.00    +0.000 C 
ATOM     16  N   UNL     1       0.884  10.033  19.388  0.00  0.00    +0.000 N 
ATOM     17  C   UNL     1       0.595   9.579  20.659  0.00  0.00    +0.000 A 
ATOM     18  N   UNL     1      -0.128  10.343  21.524  0.00  0.00    +0.000 N 
ATOM     19  N   UNL     1       0.979   8.418  21.106  0.00  0.00    +0.000 NA
ATOM     20  C   UNL     1       1.719   7.610  20.283  0.00  0.00    +0.000 A 
ATOM     21  C   UNL     1       2.081   7.962  19.045  0.00  0.00    +0.000 A 
ATOM     22  C   UNL     1       1.659   9.270  18.534  0.00  0.00    +0.000 A 
ATOM     23  O   UNL     1       2.008   9.610  17.405  0.00  0.00    +0.000 OA
ATOM     24  H   UNL     1      -0.870  10.910  21.140  0.00  0.00    +0.000 HD
ATOM     25  H   UNL     1      -0.438   9.797  22.322  0.00  0.00    +0.000 HD
ENDBRANCH  14  20
ENDBRANCH   1  14
TORSDOF 4
ENDMDL
