MODEL 1
REMARK VINA RESULT:      -8.6      0.000      0.000
REMARK  Name = 
REMARK  7 active torsions:
REMARK  status: ('A' for Active; 'I' for Inactive)
REMARK    1  A    between atoms: C_1  and  C_2
REMARK    2  A    between atoms: C_2  and  N_3
REMARK    3  A    between atoms: C_4  and  C_6
REMARK    4  A    between atoms: C_8  and  C_9
REMARK    5  A    between atoms: C_9  and  C_10
REMARK    6  A    between atoms: C_20  and  C_21
REMARK    7  A    between atoms: N_23  and  C_24
REMARK                            x       y       z     vdW  Elec       q    Type
REMARK                         _______ _______ _______ _____ _____    ______ ____
ROOT
ATOM      1  C   UNL     1       6.219   4.367  14.627  0.00  0.00    +0.000 A 
ATOM      2  C   UNL     1       5.053   3.813  15.156  0.00  0.00    +0.000 A 
ATOM      3  C   UNL     1       4.692   4.130  16.461  0.00  0.00    +0.000 A 
ATOM      4  N   UNL     1       5.418   4.992  17.217  0.00  0.00    +0.000 NA
ATOM      5  C   UNL     1       6.531   5.546  16.671  0.00  0.00    +0.000 A 
ATOM      6  C   UNL     1       6.969   5.256  15.391  0.00  0.00    +0.000 A 
ENDROOT
BRANCH   5   7
ATOM      7  C   UNL     1       7.244   6.513  17.477  0.00  0.00    +0.000 A 
ATOM      8  C   UNL     1       7.363   7.859  17.216  0.00  0.00    +0.000 A 
ATOM      9  N   UNL     1       8.179   8.309  18.205  0.00  0.00    +0.000 N 
ATOM     10  C   UNL     1       8.712   9.632  18.377  0.00  0.00    +0.000 C 
ATOM     11  N   UNL     1       8.517   7.327  19.058  0.00  0.00    +0.000 NA
ATOM     12  N   UNL     1       7.946   6.212  18.619  0.00  0.00    +0.000 NA
ENDBRANCH   5   7
BRANCH   1  14
ATOM     13  N   UNL     1       6.008   2.919  12.685  0.00  0.00    +0.000 N 
ATOM     14  C   UNL     1       6.624   4.024  13.240  0.00  0.00    +0.000 C 
ATOM     15  O   UNL     1       7.447   4.716  12.656  0.00  0.00    +0.000 OA
ATOM     16  H   UNL     1       5.206   2.511  13.146  0.00  0.00    +0.000 HD
BRANCH  13  18
ATOM     17  C   UNL     1       6.365   0.969  11.246  0.00  0.00    +0.000 C 
ATOM     18  C   UNL     1       6.289   2.483  11.336  0.00  0.00    +0.000 C 
ENDBRANCH  13  18
ENDBRANCH   1  14
BRANCH   3  19
ATOM     19  C   UNL     1       3.492   3.481  17.119  0.00  0.00    +0.000 C 
BRANCH  19  20
ATOM     20  C   UNL     1       2.920   4.327  18.239  0.00  0.00    +0.000 A 
ATOM     21  C   UNL     1       2.649   5.693  18.001  0.00  0.00    +0.000 A 
ATOM     22  C   UNL     1       2.221   6.544  19.019  0.00  0.00    +0.000 A 
ATOM     23  C   UNL     1       2.052   6.075  20.321  0.00  0.00    +0.000 A 
ATOM     24  C   UNL     1       2.286   4.715  20.551  0.00  0.00    +0.000 A 
ATOM     25  N   UNL     1       2.184   3.990  21.717  0.00  0.00    +0.000 N 
ATOM     26  C   UNL     1       2.483   2.676  21.486  0.00  0.00    +0.000 A 
ATOM     27  C   UNL     1       2.810   2.549  20.156  0.00  0.00    +0.000 A 
ATOM     28  C   UNL     1       2.699   3.834  19.549  0.00  0.00    +0.000 A 
ATOM     29  H   UNL     1       1.917   4.380  22.611  0.00  0.00    +0.000 HD
ENDBRANCH  19  20
ENDBRANCH   3  19
TORSDOF 5
ENDMDL
MODEL 2
REMARK VINA RESULT:      -8.5      1.882      5.481
REMARK  Name = 
REMARK  7 active torsions:
REMARK  status: ('A' for Active; 'I' for Inactive)
REMARK    1  A    between atoms: C_1  and  C_2
REMARK    2  A    between atoms: C_2  and  N_3
REMARK    3  A    between atoms: C_4  and  C_6
REMARK    4  A    between atoms: C_8  and  C_9
REMARK    5  A    between atoms: C_9  and  C_10
REMARK    6  A    between atoms: C_20  and  C_21
REMARK    7  A    between atoms: N_23  and  C_24
REMARK                            x       y       z     vdW  Elec       q    Type
REMARK                         _______ _______ _______ _____ _____    ______ ____
ROOT
ATOM      1  C   UNL     1       6.753   6.711  17.460  0.00  0.00    +0.000 A 
ATOM      2  C   UNL     1       5.448   6.684  17.951  0.00  0.00    +0.000 A 
ATOM      3  C   UNL     1       4.451   6.104  17.174  0.00  0.00    +0.000 A 
ATOM      4  N   UNL     1       4.720   5.529  15.974  0.00  0.00    +0.000 NA
ATOM      5  C   UNL     1       6.002   5.537  15.530  0.00  0.00    +0.000 A 
ATOM      6  C   UNL     1       7.041   6.121  16.233  0.00  0.00    +0.000 A 
ENDROOT
BRANCH   5   7
ATOM      7  C   UNL     1       6.268   4.857  14.281  0.00  0.00    +0.000 A 
ATOM      8  C   UNL     1       5.546   3.811  13.755  0.00  0.00    +0.000 A 
ATOM      9  N   UNL     1       6.230   3.479  12.629  0.00  0.00    +0.000 N 
ATOM     10  C   UNL     1       5.972   2.392  11.727  0.00  0.00    +0.000 C 
ATOM     11  N   UNL     1       7.286   4.287  12.431  0.00  0.00    +0.000 NA
ATOM     12  N   UNL     1       7.321   5.143  13.445  0.00  0.00    +0.000 NA
ENDBRANCH   5   7
BRANCH   1  14
ATOM     13  N   UNL     1       8.053   8.684  18.036  0.00  0.00    +0.000 N 
ATOM     14  C   UNL     1       7.824   7.342  18.273  0.00  0.00    +0.000 C 
ATOM     15  O   UNL     1       8.431   6.679  19.103  0.00  0.00    +0.000 OA
ATOM     16  H   UNL     1       7.393   9.212  17.480  0.00  0.00    +0.000 HD
BRANCH  13  18
ATOM     17  C   UNL     1       9.168  10.854  18.251  0.00  0.00    +0.000 C 
ATOM     18  C   UNL     1       9.049   9.432  18.770  0.00  0.00    +0.000 C 
ENDBRANCH  13  18
ENDBRANCH   1  14
BRANCH   3  19
ATOM     19  C   UNL     1       3.001   6.134  17.612  0.00  0.00    +0.000 C 
BRANCH  19  20
ATOM     20  C   UNL     1       2.720   5.164  18.742  0.00  0.00    +0.000 A 
ATOM     21  C   UNL     1       2.271   5.663  19.984  0.00  0.00    +0.000 A 
ATOM     22  C   UNL     1       2.096   4.830  21.090  0.00  0.00    +0.000 A 
ATOM     23  C   UNL     1       2.367   3.465  21.008  0.00  0.00    +0.000 A 
ATOM     24  C   UNL     1       2.777   2.963  19.768  0.00  0.00    +0.000 A 
ATOM     25  N   UNL     1       3.094   1.674  19.404  0.00  0.00    +0.000 N 
ATOM     26  C   UNL     1       3.424   1.624  18.078  0.00  0.00    +0.000 A 
ATOM     27  C   UNL     1       3.346   2.903  17.579  0.00  0.00    +0.000 A 
ATOM     28  C   UNL     1       2.946   3.768  18.640  0.00  0.00    +0.000 A 
ATOM     29  H   UNL     1       3.074   0.881  20.031  0.00  0.00    +0.000 HD
ENDBRANCH  19  20
ENDBRANCH   3  19
TORSDOF 5
ENDMDL
MODEL 3
REMARK VINA RESULT:      -8.3      1.464      1.755
REMARK  Name = 
REMARK  7 active torsions:
REMARK  status: ('A' for Active; 'I' for Inactive)
REMARK    1  A    between atoms: C_1  and  C_2
REMARK    2  A    between atoms: C_2  and  N_3
REMARK    3  A    between atoms: C_4  and  C_6
REMARK    4  A    between atoms: C_8  and  C_9
REMARK    5  A    between atoms: C_9  and  C_10
REMARK    6  A    between atoms: C_20  and  C_21
REMARK    7  A    between atoms: N_23  and  C_24
REMARK                            x       y       z     vdW  Elec       q    Type
REMARK                         _______ _______ _______ _____ _____    ______ ____
ROOT
ATOM      1  C   UNL     1       6.760   5.063  15.634  0.00  0.00    +0.000 A 
ATOM      2  C   UNL     1       6.040   4.260  16.519  0.00  0.00    +0.000 A 
ATOM      3  C   UNL     1       5.991   4.619  17.862  0.00  0.00    +0.000 A 
ATOM      4  N   UNL     1       6.586   5.748  18.325  0.00  0.00    +0.000 NA
ATOM      5  C   UNL     1       7.253   6.533  17.441  0.00  0.00    +0.000 A 
ATOM      6  C   UNL     1       7.370   6.225  16.097  0.00  0.00    +0.000 A 
ENDROOT
BRANCH   5   7
ATOM      7  C   UNL     1       7.817   7.763  17.952  0.00  0.00    +0.000 A 
ATOM      8  C   UNL     1       7.644   9.020  17.421  0.00  0.00    +0.000 A 
ATOM      9  N   UNL     1       8.427   9.811  18.200  0.00  0.00    +0.000 N 
ATOM     10  C   UNL     1       8.695  11.214  18.045  0.00  0.00    +0.000 C 
ATOM     11  N   UNL     1       9.020   9.113  19.184  0.00  0.00    +0.000 NA
ATOM     12  N   UNL     1       8.651   7.845  19.041  0.00  0.00    +0.000 NA
ENDBRANCH   5   7
BRANCH   1  14
ATOM     13  N   UNL     1       6.063   3.600  13.821  0.00  0.00    +0.000 N 
ATOM     14  C   UNL     1       6.834   4.682  14.201  0.00  0.00    +0.000 C 
ATOM     15  O   UNL     1       7.538   5.326  13.434  0.00  0.00    +0.000 OA
ATOM     16  H   UNL     1       5.365   3.238  14.457  0.00  0.00    +0.000 HD
BRANCH  13  18
ATOM     17  C   UNL     1       4.643   3.326  11.845  0.00  0.00    +0.000 C 
ATOM     18  C   UNL     1       6.020   3.133  12.454  0.00  0.00    +0.000 C 
ENDBRANCH  13  18
ENDBRANCH   1  14
BRANCH   3  19
ATOM     19  C   UNL     1       5.309   3.733  18.883  0.00  0.00    +0.000 C 
BRANCH  19  20
ATOM     20  C   UNL     1       3.804   3.704  18.709  0.00  0.00    +0.000 A 
ATOM     21  C   UNL     1       3.241   4.161  17.496  0.00  0.00    +0.000 A 
ATOM     22  C   UNL     1       1.861   4.256  17.317  0.00  0.00    +0.000 A 
ATOM     23  C   UNL     1       0.981   3.907  18.341  0.00  0.00    +0.000 A 
ATOM     24  C   UNL     1       1.536   3.421  19.529  0.00  0.00    +0.000 A 
ATOM     25  N   UNL     1       0.912   2.996  20.681  0.00  0.00    +0.000 N 
ATOM     26  C   UNL     1       1.838   2.577  21.595  0.00  0.00    +0.000 A 
ATOM     27  C   UNL     1       3.084   2.755  21.039  0.00  0.00    +0.000 A 
ATOM     28  C   UNL     1       2.911   3.299  19.733  0.00  0.00    +0.000 A 
ATOM     29  H   UNL     1      -0.090   2.991  20.820  0.00  0.00    +0.000 HD
ENDBRANCH  19  20
ENDBRANCH   3  19
TORSDOF 5
ENDMDL
MODEL 4
REMARK VINA RESULT:      -8.2      0.804      1.853
REMARK  Name = 
REMARK  7 active torsions:
REMARK  status: ('A' for Active; 'I' for Inactive)
REMARK    1  A    between atoms: C_1  and  C_2
REMARK    2  A    between atoms: C_2  and  N_3
REMARK    3  A    between atoms: C_4  and  C_6
REMARK    4  A    between atoms: C_8  and  C_9
REMARK    5  A    between atoms: C_9  and  C_10
REMARK    6  A    between atoms: C_20  and  C_21
REMARK    7  A    between atoms: N_23  and  C_24
REMARK                            x       y       z     vdW  Elec       q    Type
REMARK                         _______ _______ _______ _____ _____    ______ ____
ROOT
ATOM      1  C   UNL     1       6.205   4.351  14.595  0.00  0.00    +0.000 A 
ATOM      2  C   UNL     1       4.984   3.858  15.057  0.00  0.00    +0.000 A 
ATOM      3  C   UNL     1       4.578   4.177  16.348  0.00  0.00    +0.000 A 
ATOM      4  N   UNL     1       5.312   4.985  17.153  0.00  0.00    +0.000 NA
ATOM      5  C   UNL     1       6.481   5.482  16.672  0.00  0.00    +0.000 A 
ATOM      6  C   UNL     1       6.965   5.185  15.410  0.00  0.00    +0.000 A 
ENDROOT
BRANCH   5   7
ATOM      7  C   UNL     1       7.207   6.395  17.527  0.00  0.00    +0.000 A 
ATOM      8  C   UNL     1       7.380   7.744  17.317  0.00  0.00    +0.000 A 
ATOM      9  N   UNL     1       8.186   8.130  18.339  0.00  0.00    +0.000 N 
ATOM     10  C   UNL     1       8.760   9.427  18.570  0.00  0.00    +0.000 C 
ATOM     11  N   UNL     1       8.468   7.108  19.166  0.00  0.00    +0.000 NA
ATOM     12  N   UNL     1       7.869   6.030  18.674  0.00  0.00    +0.000 NA
ENDBRANCH   5   7
BRANCH   1  14
ATOM     13  N   UNL     1       6.103   2.866  12.672  0.00  0.00    +0.000 N 
ATOM     14  C   UNL     1       6.658   4.005  13.224  0.00  0.00    +0.000 C 
ATOM     15  O   UNL     1       7.465   4.722  12.649  0.00  0.00    +0.000 OA
ATOM     16  H   UNL     1       5.308   2.432  13.121  0.00  0.00    +0.000 HD
BRANCH  13  18
ATOM     17  C   UNL     1       6.289   0.918  11.201  0.00  0.00    +0.000 C 
ATOM     18  C   UNL     1       6.435   2.423  11.337  0.00  0.00    +0.000 C 
ENDBRANCH  13  18
ENDBRANCH   1  14
BRANCH   3  19
ATOM     19  C   UNL     1       3.312   3.589  16.936  0.00  0.00    +0.000 C 
BRANCH  19  20
ATOM     20  C   UNL     1       3.088   4.020  18.372  0.00  0.00    +0.000 A 
ATOM     21  C   UNL     1       3.123   3.049  19.397  0.00  0.00    +0.000 A 
ATOM     22  C   UNL     1       2.822   3.369  20.721  0.00  0.00    +0.000 A 
ATOM     23  C   UNL     1       2.465   4.668  21.081  0.00  0.00    +0.000 A 
ATOM     24  C   UNL     1       2.465   5.638  20.073  0.00  0.00    +0.000 A 
ATOM     25  N   UNL     1       2.172   6.981  20.146  0.00  0.00    +0.000 N 
ATOM     26  C   UNL     1       2.321   7.566  18.919  0.00  0.00    +0.000 A 
ATOM     27  C   UNL     1       2.690   6.585  18.030  0.00  0.00    +0.000 A 
ATOM     28  C   UNL     1       2.778   5.353  18.742  0.00  0.00    +0.000 A 
ATOM     29  H   UNL     1       1.896   7.461  20.992  0.00  0.00    +0.000 HD
ENDBRANCH  19  20
ENDBRANCH   3  19
TORSDOF 5
ENDMDL
MODEL 5
REMARK VINA RESULT:      -8.1      1.451      1.671
REMARK  Name = 
REMARK  7 active torsions:
REMARK  status: ('A' for Active; 'I' for Inactive)
REMARK    1  A    between atoms: C_1  and  C_2
REMARK    2  A    between atoms: C_2  and  N_3
REMARK    3  A    between atoms: C_4  and  C_6
REMARK    4  A    between atoms: C_8  and  C_9
REMARK    5  A    between atoms: C_9  and  C_10
REMARK    6  A    between atoms: C_20  and  C_21
REMARK    7  A    between atoms: N_23  and  C_24
REMARK                            x       y       z     vdW  Elec       q    Type
REMARK                         _______ _______ _______ _____ _____    ______ ____
ROOT
ATOM      1  C   UNL     1       6.689   5.057  15.570  0.00  0.00    +0.000 A 
ATOM      2  C   UNL     1       5.937   4.267  16.440  0.00  0.00    +0.000 A 
ATOM      3  C   UNL     1       5.878   4.620  17.784  0.00  0.00    +0.000 A 
ATOM      4  N   UNL     1       6.496   5.729  18.263  0.00  0.00    +0.000 NA
ATOM      5  C   UNL     1       7.195   6.502  17.393  0.00  0.00    +0.000 A 
ATOM      6  C   UNL     1       7.323   6.200  16.049  0.00  0.00    +0.000 A 
ENDROOT
BRANCH   5   7
ATOM      7  C   UNL     1       7.784   7.714  17.920  0.00  0.00    +0.000 A 
ATOM      8  C   UNL     1       7.613   8.985  17.422  0.00  0.00    +0.000 A 
ATOM      9  N   UNL     1       8.421   9.750  18.201  0.00  0.00    +0.000 N 
ATOM     10  C   UNL     1       8.702  11.153  18.073  0.00  0.00    +0.000 C 
ATOM     11  N   UNL     1       9.028   9.022  19.155  0.00  0.00    +0.000 NA
ATOM     12  N   UNL     1       8.643   7.762  18.991  0.00  0.00    +0.000 NA
ENDBRANCH   5   7
BRANCH   1  14
ATOM     13  N   UNL     1       6.027   3.586  13.751  0.00  0.00    +0.000 N 
ATOM     14  C   UNL     1       6.773   4.683  14.136  0.00  0.00    +0.000 C 
ATOM     15  O   UNL     1       7.463   5.345  13.371  0.00  0.00    +0.000 OA
ATOM     16  H   UNL     1       5.336   3.206  14.385  0.00  0.00    +0.000 HD
BRANCH  13  18
ATOM     17  C   UNL     1       4.646   3.389  11.738  0.00  0.00    +0.000 C 
ATOM     18  C   UNL     1       5.995   3.123  12.382  0.00  0.00    +0.000 C 
ENDBRANCH  13  18
ENDBRANCH   1  14
BRANCH   3  19
ATOM     19  C   UNL     1       5.160   3.745  18.790  0.00  0.00    +0.000 C 
BRANCH  19  20
ATOM     20  C   UNL     1       3.811   4.311  19.187  0.00  0.00    +0.000 A 
ATOM     21  C   UNL     1       3.723   5.659  19.600  0.00  0.00    +0.000 A 
ATOM     22  C   UNL     1       2.530   6.205  20.075  0.00  0.00    +0.000 A 
ATOM     23  C   UNL     1       1.375   5.430  20.167  0.00  0.00    +0.000 A 
ATOM     24  C   UNL     1       1.451   4.105  19.725  0.00  0.00    +0.000 A 
ATOM     25  N   UNL     1       0.476   3.133  19.688  0.00  0.00    +0.000 N 
ATOM     26  C   UNL     1       0.978   1.978  19.156  0.00  0.00    +0.000 A 
ATOM     27  C   UNL     1       2.306   2.194  18.866  0.00  0.00    +0.000 A 
ATOM     28  C   UNL     1       2.625   3.535  19.230  0.00  0.00    +0.000 A 
ATOM     29  H   UNL     1      -0.475   3.265  20.004  0.00  0.00    +0.000 HD
ENDBRANCH  19  20
ENDBRANCH   3  19
TORSDOF 5
ENDMDL
MODEL 6
REMARK VINA RESULT:      -8.1      1.803      5.425
REMARK  Name = 
REMARK  7 active torsions:
REMARK  status: ('A' for Active; 'I' for Inactive)
REMARK    1  A    between atoms: C_1  and  C_2
REMARK    2  A    between atoms: C_2  and  N_3
REMARK    3  A    between atoms: C_4  and  C_6
REMARK    4  A    between atoms: C_8  and  C_9
REMARK    5  A    between atoms: C_9  and  C_10
REMARK    6  A    between atoms: C_20  and  C_21
REMARK    7  A    between atoms: N_23  and  C_24
REMARK                            x       y       z     vdW  Elec       q    Type
REMARK                         _______ _______ _______ _____ _____    ______ ____
ROOT
ATOM      1  C   UNL     1       6.522   5.595  17.347  0.00  0.00    +0.000 A 
ATOM      2  C   UNL     1       5.305   5.073  17.784  0.00  0.00    +0.000 A 
ATOM      3  C   UNL     1       4.512   4.373  16.881  0.00  0.00    +0.000 A 
ATOM      4  N   UNL     1       4.908   4.149  15.602  0.00  0.00    +0.000 NA
ATOM      5  C   UNL     1       6.111   4.638  15.206  0.00  0.00    +0.000 A 
ATOM      6  C   UNL     1       6.940   5.369  16.039  0.00  0.00    +0.000 A 
ENDROOT
BRANCH   5   7
ATOM      7  C   UNL     1       6.535   4.324  13.859  0.00  0.00    +0.000 A 
ATOM      8  C   UNL     1       6.253   3.170  13.165  0.00  0.00    +0.000 A 
ATOM      9  N   UNL     1       6.929   3.321  11.997  0.00  0.00    +0.000 N 
ATOM     10  C   UNL     1       7.061   2.375  10.924  0.00  0.00    +0.000 C 
ATOM     11  N   UNL     1       7.559   4.507  11.935  0.00  0.00    +0.000 NA
ATOM     12  N   UNL     1       7.323   5.136  13.080  0.00  0.00    +0.000 NA
ENDBRANCH   5   7
BRANCH   1  14
ATOM     13  N   UNL     1       7.812   7.593  17.857  0.00  0.00    +0.000 N 
ATOM     14  C   UNL     1       7.370   6.359  18.296  0.00  0.00    +0.000 C 
ATOM     15  O   UNL     1       7.626   5.892  19.398  0.00  0.00    +0.000 OA
ATOM     16  H   UNL     1       7.410   7.997  17.022  0.00  0.00    +0.000 HD
BRANCH  13  18
ATOM     17  C   UNL     1       8.611   9.885  18.179  0.00  0.00    +0.000 C 
ATOM     18  C   UNL     1       8.625   8.454  18.685  0.00  0.00    +0.000 C 
ENDBRANCH  13  18
ENDBRANCH   1  14
BRANCH   3  19
ATOM     19  C   UNL     1       3.139   3.870  17.274  0.00  0.00    +0.000 C 
BRANCH  19  20
ATOM     20  C   UNL     1       2.873   4.018  18.758  0.00  0.00    +0.000 A 
ATOM     21  C   UNL     1       2.912   2.873  19.584  0.00  0.00    +0.000 A 
ATOM     22  C   UNL     1       2.574   2.931  20.936  0.00  0.00    +0.000 A 
ATOM     23  C   UNL     1       2.175   4.130  21.523  0.00  0.00    +0.000 A 
ATOM     24  C   UNL     1       2.170   5.273  20.715  0.00  0.00    +0.000 A 
ATOM     25  N   UNL     1       1.840   6.571  21.032  0.00  0.00    +0.000 N 
ATOM     26  C   UNL     1       1.998   7.380  19.941  0.00  0.00    +0.000 A 
ATOM     27  C   UNL     1       2.413   6.591  18.893  0.00  0.00    +0.000 A 
ATOM     28  C   UNL     1       2.518   5.250  19.364  0.00  0.00    +0.000 A 
ATOM     29  H   UNL     1       1.532   6.877  21.945  0.00  0.00    +0.000 HD
ENDBRANCH  19  20
ENDBRANCH   3  19
TORSDOF 5
ENDMDL
MODEL 7
REMARK VINA RESULT:      -8.0      1.668      5.145
REMARK  Name = 
REMARK  7 active torsions:
REMARK  status: ('A' for Active; 'I' for Inactive)
REMARK    1  A    between atoms: C_1  and  C_2
REMARK    2  A    between atoms: C_2  and  N_3
REMARK    3  A    between atoms: C_4  and  C_6
REMARK    4  A    between atoms: C_8  and  C_9
REMARK    5  A    between atoms: C_9  and  C_10
REMARK    6  A    between atoms: C_20  and  C_21
REMARK    7  A    between atoms: N_23  and  C_24
REMARK                            x       y       z     vdW  Elec       q    Type
REMARK                         _______ _______ _______ _____ _____    ______ ____
ROOT
ATOM      1  C   UNL     1       6.595   5.665  17.317  0.00  0.00    +0.000 A 
ATOM      2  C   UNL     1       5.366   5.177  17.760  0.00  0.00    +0.000 A 
ATOM      3  C   UNL     1       4.555   4.488  16.864  0.00  0.00    +0.000 A 
ATOM      4  N   UNL     1       4.945   4.242  15.587  0.00  0.00    +0.000 NA
ATOM      5  C   UNL     1       6.159   4.697  15.186  0.00  0.00    +0.000 A 
ATOM      6  C   UNL     1       7.007   5.415  16.011  0.00  0.00    +0.000 A 
ENDROOT
BRANCH   5   7
ATOM      7  C   UNL     1       6.574   4.360  13.842  0.00  0.00    +0.000 A 
ATOM      8  C   UNL     1       6.274   3.201  13.164  0.00  0.00    +0.000 A 
ATOM      9  N   UNL     1       6.949   3.327  11.992  0.00  0.00    +0.000 N 
ATOM     10  C   UNL     1       7.064   2.365  10.931  0.00  0.00    +0.000 C 
ATOM     11  N   UNL     1       7.596   4.503  11.913  0.00  0.00    +0.000 NA
ATOM     12  N   UNL     1       7.372   5.150  13.050  0.00  0.00    +0.000 NA
ENDBRANCH   5   7
BRANCH   1  14
ATOM     13  N   UNL     1       7.824   7.691  17.864  0.00  0.00    +0.000 N 
ATOM     14  C   UNL     1       7.462   6.417  18.259  0.00  0.00    +0.000 C 
ATOM     15  O   UNL     1       7.800   5.906  19.318  0.00  0.00    +0.000 OA
ATOM     16  H   UNL     1       7.358   8.119  17.075  0.00  0.00    +0.000 HD
BRANCH  13  18
ATOM     17  C   UNL     1       8.645   9.975  18.184  0.00  0.00    +0.000 C 
ATOM     18  C   UNL     1       8.646   8.545  18.692  0.00  0.00    +0.000 C 
ENDBRANCH  13  18
ENDBRANCH   1  14
BRANCH   3  19
ATOM     19  C   UNL     1       3.170   4.023  17.262  0.00  0.00    +0.000 C 
BRANCH  19  20
ATOM     20  C   UNL     1       2.690   4.671  18.545  0.00  0.00    +0.000 A 
ATOM     21  C   UNL     1       2.424   6.058  18.559  0.00  0.00    +0.000 A 
ATOM     22  C   UNL     1       2.081   6.727  19.734  0.00  0.00    +0.000 A 
ATOM     23  C   UNL     1       1.995   6.046  20.947  0.00  0.00    +0.000 A 
ATOM     24  C   UNL     1       2.223   4.666  20.928  0.00  0.00    +0.000 A 
ATOM     25  N   UNL     1       2.191   3.756  21.961  0.00  0.00    +0.000 N 
ATOM     26  C   UNL     1       2.452   2.498  21.492  0.00  0.00    +0.000 A 
ATOM     27  C   UNL     1       2.684   2.596  20.140  0.00  0.00    +0.000 A 
ATOM     28  C   UNL     1       2.552   3.965  19.767  0.00  0.00    +0.000 A 
ATOM     29  H   UNL     1       1.992   3.990  22.924  0.00  0.00    +0.000 HD
ENDBRANCH  19  20
ENDBRANCH   3  19
TORSDOF 5
ENDMDL
MODEL 8
REMARK VINA RESULT:      -8.0      3.394      7.611
REMARK  Name = 
REMARK  7 active torsions:
REMARK  status: ('A' for Active; 'I' for Inactive)
REMARK    1  A    between atoms: C_1  and  C_2
REMARK    2  A    between atoms: C_2  and  N_3
REMARK    3  A    between atoms: C_4  and  C_6
REMARK    4  A    between atoms: C_8  and  C_9
REMARK    5  A    between atoms: C_9  and  C_10
REMARK    6  A    between atoms: C_20  and  C_21
REMARK    7  A    between atoms: N_23  and  C_24
REMARK                            x       y       z     vdW  Elec       q    Type
REMARK                         _______ _______ _______ _____ _____    ______ ____
ROOT
ATOM      1  C   UNL     1       1.990   8.319  18.875  0.00  0.00    +0.000 A 
ATOM      2  C   UNL     1       2.854   8.455  17.789  0.00  0.00    +0.000 A 
ATOM      3  C   UNL     1       3.685   7.391  17.456  0.00  0.00    +0.000 A 
ATOM      4  N   UNL     1       3.649   6.214  18.130  0.00  0.00    +0.000 NA
ATOM      5  C   UNL     1       2.776   6.091  19.162  0.00  0.00    +0.000 A 
ATOM      6  C   UNL     1       1.940   7.115  19.571  0.00  0.00    +0.000 A 
ENDROOT
BRANCH   5   7
ATOM      7  C   UNL     1       2.712   4.802  19.817  0.00  0.00    +0.000 A 
ATOM      8  C   UNL     1       1.730   4.377  20.683  0.00  0.00    +0.000 A 
ATOM      9  N   UNL     1       2.157   3.150  21.079  0.00  0.00    +0.000 N 
ATOM     10  C   UNL     1       1.560   2.279  22.053  0.00  0.00    +0.000 C 
ATOM     11  N   UNL     1       3.306   2.802  20.473  0.00  0.00    +0.000 NA
ATOM     12  N   UNL     1       3.658   3.814  19.691  0.00  0.00    +0.000 NA
ENDBRANCH   5   7
BRANCH   1  14
ATOM     13  N   UNL     1       0.489  10.112  18.205  0.00  0.00    +0.000 N 
ATOM     14  C   UNL     1       1.108   9.454  19.251  0.00  0.00    +0.000 C 
ATOM     15  O   UNL     1       0.956   9.744  20.430  0.00  0.00    +0.000 OA
ATOM     16  H   UNL     1       0.507   9.704  17.280  0.00  0.00    +0.000 HD
BRANCH  13  18
ATOM     17  C   UNL     1      -1.854  10.821  18.159  0.00  0.00    +0.000 C 
ATOM     18  C   UNL     1      -0.413  11.219  18.425  0.00  0.00    +0.000 C 
ENDBRANCH  13  18
ENDBRANCH   1  14
BRANCH   3  19
ATOM     19  C   UNL     1       4.713   7.518  16.351  0.00  0.00    +0.000 C 
BRANCH  19  20
ATOM     20  C   UNL     1       5.504   6.241  16.149  0.00  0.00    +0.000 A 
ATOM     21  C   UNL     1       5.209   5.414  15.042  0.00  0.00    +0.000 A 
ATOM     22  C   UNL     1       5.830   4.179  14.863  0.00  0.00    +0.000 A 
ATOM     23  C   UNL     1       6.768   3.709  15.781  0.00  0.00    +0.000 A 
ATOM     24  C   UNL     1       7.088   4.542  16.859  0.00  0.00    +0.000 A 
ATOM     25  N   UNL     1       7.976   4.341  17.892  0.00  0.00    +0.000 N 
ATOM     26  C   UNL     1       7.994   5.429  18.719  0.00  0.00    +0.000 A 
ATOM     27  C   UNL     1       7.087   6.341  18.231  0.00  0.00    +0.000 A 
ATOM     28  C   UNL     1       6.495   5.791  17.057  0.00  0.00    +0.000 A 
ATOM     29  H   UNL     1       8.536   3.508  18.010  0.00  0.00    +0.000 HD
ENDBRANCH  19  20
ENDBRANCH   3  19
TORSDOF 5
ENDMDL
MODEL 9
REMARK VINA RESULT:      -8.0      4.105      6.820
REMARK  Name = 
REMARK  7 active torsions:
REMARK  status: ('A' for Active; 'I' for Inactive)
REMARK    1  A    between atoms: C_1  and  C_2
REMARK    2  A    between atoms: C_2  and  N_3
REMARK    3  A    between atoms: C_4  and  C_6
REMARK    4  A    between atoms: C_8  and  C_9
REMARK    5  A    between atoms: C_9  and  C_10
REMARK    6  A    between atoms: C_20  and  C_21
REMARK    7  A    between atoms: N_23  and  C_24
REMARK                            x       y       z     vdW  Elec       q    Type
REMARK                         _______ _______ _______ _____ _____    ______ ____
ROOT
ATOM      1  C   UNL     1       2.505   6.276  19.165  0.00  0.00    +0.000 A 
ATOM      2  C   UNL     1       1.997   7.562  18.983  0.00  0.00    +0.000 A 
ATOM      3  C   UNL     1       2.623   8.408  18.074  0.00  0.00    +0.000 A 
ATOM      4  N   UNL     1       3.684   8.004  17.331  0.00  0.00    +0.000 NA
ATOM      5  C   UNL     1       4.141   6.737  17.499  0.00  0.00    +0.000 A 
ATOM      6  C   UNL     1       3.590   5.848  18.405  0.00  0.00    +0.000 A 
ENDROOT
BRANCH   5   7
ATOM      7  C   UNL     1       5.229   6.314  16.644  0.00  0.00    +0.000 A 
ATOM      8  C   UNL     1       5.142   5.430  15.592  0.00  0.00    +0.000 A 
ATOM      9  N   UNL     1       6.425   5.304  15.168  0.00  0.00    +0.000 N 
ATOM     10  C   UNL     1       6.936   4.436  14.143  0.00  0.00    +0.000 C 
ATOM     11  N   UNL     1       7.263   6.086  15.872  0.00  0.00    +0.000 NA
ATOM     12  N   UNL     1       6.536   6.715  16.787  0.00  0.00    +0.000 NA
ENDBRANCH   5   7
BRANCH   1  14
ATOM     13  N   UNL     1       1.780   4.038  19.780  0.00  0.00    +0.000 N 
ATOM     14  C   UNL     1       1.856   5.368  20.145  0.00  0.00    +0.000 C 
ATOM     15  O   UNL     1       1.441   5.812  21.207  0.00  0.00    +0.000 OA
ATOM     16  H   UNL     1       2.309   3.709  18.983  0.00  0.00    +0.000 HD
BRANCH  13  18
ATOM     17  C   UNL     1       2.182   2.574  21.702  0.00  0.00    +0.000 C 
ATOM     18  C   UNL     1       1.196   3.038  20.646  0.00  0.00    +0.000 C 
ENDBRANCH  13  18
ENDBRANCH   1  14
BRANCH   3  19
ATOM     19  C   UNL     1       2.176   9.846  17.909  0.00  0.00    +0.000 C 
BRANCH  19  20
ATOM     20  C   UNL     1       0.718  10.042  18.275  0.00  0.00    +0.000 A 
ATOM     21  C   UNL     1      -0.283   9.621  17.372  0.00  0.00    +0.000 A 
ATOM     22  C   UNL     1      -1.635   9.870  17.607  0.00  0.00    +0.000 A 
ATOM     23  C   UNL     1      -2.049  10.555  18.749  0.00  0.00    +0.000 A 
ATOM     24  C   UNL     1      -1.062  10.941  19.662  0.00  0.00    +0.000 A 
ATOM     25  N   UNL     1      -1.185  11.608  20.860  0.00  0.00    +0.000 N 
ATOM     26  C   UNL     1       0.041  11.761  21.446  0.00  0.00    +0.000 A 
ATOM     27  C   UNL     1       0.978  11.209  20.604  0.00  0.00    +0.000 A 
ATOM     28  C   UNL     1       0.297  10.693  19.462  0.00  0.00    +0.000 A 
ATOM     29  H   UNL     1      -2.062  11.927  21.249  0.00  0.00    +0.000 HD
ENDBRANCH  19  20
ENDBRANCH   3  19
TORSDOF 5
ENDMDL
