MODEL 1
REMARK VINA RESULT:      -6.3      0.000      0.000
REMARK  Name = 
REMARK  5 active torsions:
REMARK  status: ('A' for Active; 'I' for Inactive)
REMARK    1  A    between atoms: C_1  and  C_2
REMARK    2  A    between atoms: C_2  and  N_3
REMARK    3  A    between atoms: N_6  and  S_7
REMARK    4  A    between atoms: S_7  and  C_10
REMARK    5  A    between atoms: C_12  and  C_13
REMARK                            x       y       z     vdW  Elec       q    Type
REMARK                         _______ _______ _______ _____ _____    ______ ____
ROOT
ATOM      1  S   UNL     1       4.108   5.127  18.423  0.00  0.00    +0.000 S 
ATOM      2  O   UNL     1       3.427   3.857  18.401  0.00  0.00    +0.000 OA
ATOM      3  O   UNL     1       5.326   5.279  19.188  0.00  0.00    +0.000 OA
ENDROOT
BRANCH   1   4
ATOM      4  C   UNL     1       2.958   6.346  19.026  0.00  0.00    +0.000 A 
ATOM      5  C   UNL     1       2.815   7.540  18.294  0.00  0.00    +0.000 A 
ATOM      6  C   UNL     1       1.962   8.566  18.738  0.00  0.00    +0.000 A 
ATOM      7  C   UNL     1       1.933   9.876  18.000  0.00  0.00    +0.000 C 
ATOM      8  C   UNL     1       1.200   8.348  19.893  0.00  0.00    +0.000 A 
ATOM      9 CL   UNL     1       0.063   9.518  20.456  0.00  0.00    +0.000 Cl
ATOM     10  C   UNL     1       1.359   7.174  20.633  0.00  0.00    +0.000 A 
ATOM     11  C   UNL     1       2.266   6.186  20.227  0.00  0.00    +0.000 A 
ATOM     12 CL   UNL     1       2.469   4.842  21.287  0.00  0.00    +0.000 Cl
ENDBRANCH   1   4
BRANCH   1  16
ATOM     13  N   UNL     1       7.056   4.594  15.718  0.00  0.00    +0.000 NA
ATOM     14  C   UNL     1       6.961   5.768  16.610  0.00  0.00    +0.000 C 
ATOM     15  C   UNL     1       5.610   6.528  16.605  0.00  0.00    +0.000 C 
ATOM     16  N   UNL     1       4.444   5.613  16.814  0.00  0.00    +0.000 NA
ATOM     17  C   UNL     1       4.502   4.499  15.814  0.00  0.00    +0.000 C 
ATOM     18  C   UNL     1       5.848   3.747  15.872  0.00  0.00    +0.000 C 
BRANCH  13  20
ATOM     19  C   UNL     1       6.639   3.984  13.329  0.00  0.00    +0.000 C 
ATOM     20  C   UNL     1       7.340   4.917  14.320  0.00  0.00    +0.000 C 
ENDBRANCH  13  20
ENDBRANCH   1  16
TORSDOF 3
ENDMDL
MODEL 2
REMARK VINA RESULT:      -6.3      3.063      6.660
REMARK  Name = 
REMARK  5 active torsions:
REMARK  status: ('A' for Active; 'I' for Inactive)
REMARK    1  A    between atoms: C_1  and  C_2
REMARK    2  A    between atoms: C_2  and  N_3
REMARK    3  A    between atoms: N_6  and  S_7
REMARK    4  A    between atoms: S_7  and  C_10
REMARK    5  A    between atoms: C_12  and  C_13
REMARK                            x       y       z     vdW  Elec       q    Type
REMARK                         _______ _______ _______ _____ _____    ______ ____
ROOT
ATOM      1  S   UNL     1       4.462   3.515  17.773  0.00  0.00    +0.000 S 
ATOM      2  O   UNL     1       5.205   3.689  18.995  0.00  0.00    +0.000 OA
ATOM      3  O   UNL     1       3.957   2.208  17.415  0.00  0.00    +0.000 OA
ENDROOT
BRANCH   1   4
ATOM      4  C   UNL     1       5.496   4.060  16.429  0.00  0.00    +0.000 A 
ATOM      5  C   UNL     1       5.136   3.682  15.121  0.00  0.00    +0.000 A 
ATOM      6  C   UNL     1       5.933   4.034  14.019  0.00  0.00    +0.000 A 
ATOM      7  C   UNL     1       5.586   3.504  12.655  0.00  0.00    +0.000 C 
ATOM      8  C   UNL     1       7.062   4.834  14.239  0.00  0.00    +0.000 A 
ATOM      9 CL   UNL     1       8.043   5.387  12.931  0.00  0.00    +0.000 Cl
ATOM     10  C   UNL     1       7.433   5.189  15.537  0.00  0.00    +0.000 A 
ATOM     11  C   UNL     1       6.677   4.772  16.640  0.00  0.00    +0.000 A 
ATOM     12 CL   UNL     1       7.304   5.164  18.198  0.00  0.00    +0.000 Cl
ENDBRANCH   1   4
BRANCH   1  16
ATOM     13  N   UNL     1       2.190   5.451  20.490  0.00  0.00    +0.000 NA
ATOM     14  C   UNL     1       1.815   4.162  19.873  0.00  0.00    +0.000 C 
ATOM     15  C   UNL     1       1.841   4.106  18.324  0.00  0.00    +0.000 C 
ATOM     16  N   UNL     1       3.136   4.602  17.762  0.00  0.00    +0.000 NA
ATOM     17  C   UNL     1       3.428   5.964  18.311  0.00  0.00    +0.000 C 
ATOM     18  C   UNL     1       3.426   5.972  19.855  0.00  0.00    +0.000 C 
BRANCH  13  20
ATOM     19  C   UNL     1       1.608   7.860  20.830  0.00  0.00    +0.000 C 
ATOM     20  C   UNL     1       1.115   6.443  20.521  0.00  0.00    +0.000 C 
ENDBRANCH  13  20
ENDBRANCH   1  16
TORSDOF 3
ENDMDL
MODEL 3
REMARK VINA RESULT:      -6.1      2.959      6.266
REMARK  Name = 
REMARK  5 active torsions:
REMARK  status: ('A' for Active; 'I' for Inactive)
REMARK    1  A    between atoms: C_1  and  C_2
REMARK    2  A    between atoms: C_2  and  N_3
REMARK    3  A    between atoms: N_6  and  S_7
REMARK    4  A    between atoms: S_7  and  C_10
REMARK    5  A    between atoms: C_12  and  C_13
REMARK                            x       y       z     vdW  Elec       q    Type
REMARK                         _______ _______ _______ _____ _____    ______ ____
ROOT
ATOM      1  S   UNL     1       4.713   4.007  18.222  0.00  0.00    +0.000 S 
ATOM      2  O   UNL     1       5.504   3.132  19.049  0.00  0.00    +0.000 OA
ATOM      3  O   UNL     1       3.386   3.604  17.808  0.00  0.00    +0.000 OA
ENDROOT
BRANCH   1   4
ATOM      4  C   UNL     1       5.643   4.336  16.739  0.00  0.00    +0.000 A 
ATOM      5  C   UNL     1       5.039   4.046  15.501  0.00  0.00    +0.000 A 
ATOM      6  C   UNL     1       5.733   4.235  14.293  0.00  0.00    +0.000 A 
ATOM      7  C   UNL     1       5.103   3.793  13.001  0.00  0.00    +0.000 C 
ATOM      8  C   UNL     1       7.020   4.786  14.341  0.00  0.00    +0.000 A 
ATOM      9 CL   UNL     1       7.905   5.134  12.901  0.00  0.00    +0.000 Cl
ATOM     10  C   UNL     1       7.629   5.051  15.570  0.00  0.00    +0.000 A 
ATOM     11  C   UNL     1       6.962   4.791  16.774  0.00  0.00    +0.000 A 
ATOM     12 CL   UNL     1       7.861   5.039  18.224  0.00  0.00    +0.000 Cl
ENDBRANCH   1   4
BRANCH   1  16
ATOM     13  N   UNL     1       2.162   7.134  18.163  0.00  0.00    +0.000 NA
ATOM     14  C   UNL     1       3.397   7.065  17.356  0.00  0.00    +0.000 C 
ATOM     15  C   UNL     1       4.705   6.748  18.125  0.00  0.00    +0.000 C 
ATOM     16  N   UNL     1       4.573   5.534  18.989  0.00  0.00    +0.000 NA
ATOM     17  C   UNL     1       3.382   5.686  19.884  0.00  0.00    +0.000 C 
ATOM     18  C   UNL     1       2.095   5.969  19.080  0.00  0.00    +0.000 C 
BRANCH  13  20
ATOM     19  C   UNL     1       1.895   9.609  17.914  0.00  0.00    +0.000 C 
ATOM     20  C   UNL     1       1.962   8.406  18.859  0.00  0.00    +0.000 C 
ENDBRANCH  13  20
ENDBRANCH   1  16
TORSDOF 3
ENDMDL
MODEL 4
REMARK VINA RESULT:      -6.1      0.941      1.081
REMARK  Name = 
REMARK  5 active torsions:
REMARK  status: ('A' for Active; 'I' for Inactive)
REMARK    1  A    between atoms: C_1  and  C_2
REMARK    2  A    between atoms: C_2  and  N_3
REMARK    3  A    between atoms: N_6  and  S_7
REMARK    4  A    between atoms: S_7  and  C_10
REMARK    5  A    between atoms: C_12  and  C_13
REMARK                            x       y       z     vdW  Elec       q    Type
REMARK                         _______ _______ _______ _____ _____    ______ ____
ROOT
ATOM      1  S   UNL     1       4.427   4.327  18.096  0.00  0.00    +0.000 S 
ATOM      2  O   UNL     1       3.753   3.103  17.746  0.00  0.00    +0.000 OA
ATOM      3  O   UNL     1       5.659   4.282  18.852  0.00  0.00    +0.000 OA
ENDROOT
BRANCH   1   4
ATOM      4  C   UNL     1       3.283   5.327  19.025  0.00  0.00    +0.000 A 
ATOM      5  C   UNL     1       3.017   6.631  18.564  0.00  0.00    +0.000 A 
ATOM      6  C   UNL     1       2.163   7.492  19.274  0.00  0.00    +0.000 A 
ATOM      7  C   UNL     1       2.006   8.918  18.823  0.00  0.00    +0.000 C 
ATOM      8  C   UNL     1       1.521   7.001  20.419  0.00  0.00    +0.000 A 
ATOM      9 CL   UNL     1       0.388   7.962  21.298  0.00  0.00    +0.000 Cl
ATOM     10  C   UNL     1       1.801   5.717  20.890  0.00  0.00    +0.000 A 
ATOM     11  C   UNL     1       2.711   4.889  20.220  0.00  0.00    +0.000 A 
ATOM     12 CL   UNL     1       3.072   3.376  20.965  0.00  0.00    +0.000 Cl
ENDBRANCH   1   4
BRANCH   1  16
ATOM     13  N   UNL     1       7.286   4.520  15.253  0.00  0.00    +0.000 NA
ATOM     14  C   UNL     1       7.240   5.405  16.435  0.00  0.00    +0.000 C 
ATOM     15  C   UNL     1       5.905   6.154  16.682  0.00  0.00    +0.000 C 
ATOM     16  N   UNL     1       4.728   5.231  16.670  0.00  0.00    +0.000 NA
ATOM     17  C   UNL     1       4.734   4.433  15.403  0.00  0.00    +0.000 C 
ATOM     18  C   UNL     1       6.066   3.677  15.209  0.00  0.00    +0.000 C 
BRANCH  13  20
ATOM     19  C   UNL     1       7.177   4.370  12.759  0.00  0.00    +0.000 C 
ATOM     20  C   UNL     1       7.537   5.209  13.988  0.00  0.00    +0.000 C 
ENDBRANCH  13  20
ENDBRANCH   1  16
TORSDOF 3
ENDMDL
MODEL 5
REMARK VINA RESULT:      -6.1      3.622      6.548
REMARK  Name = 
REMARK  5 active torsions:
REMARK  status: ('A' for Active; 'I' for Inactive)
REMARK    1  A    between atoms: C_1  and  C_2
REMARK    2  A    between atoms: C_2  and  N_3
REMARK    3  A    between atoms: N_6  and  S_7
REMARK    4  A    between atoms: S_7  and  C_10
REMARK    5  A    between atoms: C_12  and  C_13
REMARK                            x       y       z     vdW  Elec       q    Type
REMARK                         _______ _______ _______ _____ _____    ______ ____
ROOT
ATOM      1  S   UNL     1       5.127   4.874  18.299  0.00  0.00    +0.000 S 
ATOM      2  O   UNL     1       4.497   6.140  18.575  0.00  0.00    +0.000 OA
ATOM      3  O   UNL     1       6.111   4.343  19.218  0.00  0.00    +0.000 OA
ENDROOT
BRANCH   1   4
ATOM      4  C   UNL     1       5.915   4.998  16.707  0.00  0.00    +0.000 A 
ATOM      5  C   UNL     1       5.409   4.210  15.655  0.00  0.00    +0.000 A 
ATOM      6  C   UNL     1       6.012   4.221  14.386  0.00  0.00    +0.000 A 
ATOM      7  C   UNL     1       5.525   3.272  13.326  0.00  0.00    +0.000 C 
ATOM      8  C   UNL     1       7.091   5.089  14.165  0.00  0.00    +0.000 A 
ATOM      9 CL   UNL     1       7.830   5.231  12.612  0.00  0.00    +0.000 Cl
ATOM     10  C   UNL     1       7.607   5.853  15.214  0.00  0.00    +0.000 A 
ATOM     11  C   UNL     1       7.050   5.782  16.498  0.00  0.00    +0.000 A 
ATOM     12 CL   UNL     1       7.852   6.672  17.738  0.00  0.00    +0.000 Cl
ENDBRANCH   1   4
BRANCH   1  16
ATOM     13  N   UNL     1       1.982   3.435  20.380  0.00  0.00    +0.000 NA
ATOM     14  C   UNL     1       3.327   2.823  20.394  0.00  0.00    +0.000 C 
ATOM     15  C   UNL     1       3.951   2.501  19.013  0.00  0.00    +0.000 C 
ATOM     16  N   UNL     1       3.918   3.677  18.088  0.00  0.00    +0.000 NA
ATOM     17  C   UNL     1       2.518   4.200  17.999  0.00  0.00    +0.000 C 
ATOM     18  C   UNL     1       1.943   4.539  19.390  0.00  0.00    +0.000 C 
BRANCH  13  20
ATOM     19  C   UNL     1       0.457   2.321  18.741  0.00  0.00    +0.000 C 
ATOM     20  C   UNL     1       0.885   2.484  20.201  0.00  0.00    +0.000 C 
ENDBRANCH  13  20
ENDBRANCH   1  16
TORSDOF 3
ENDMDL
MODEL 6
REMARK VINA RESULT:      -6.0      2.102      2.874
REMARK  Name = 
REMARK  5 active torsions:
REMARK  status: ('A' for Active; 'I' for Inactive)
REMARK    1  A    between atoms: C_1  and  C_2
REMARK    2  A    between atoms: C_2  and  N_3
REMARK    3  A    between atoms: N_6  and  S_7
REMARK    4  A    between atoms: S_7  and  C_10
REMARK    5  A    between atoms: C_12  and  C_13
REMARK                            x       y       z     vdW  Elec       q    Type
REMARK                         _______ _______ _______ _____ _____    ______ ____
ROOT
ATOM      1  S   UNL     1       2.380   3.241  18.066  0.00  0.00    +0.000 S 
ATOM      2  O   UNL     1       2.010   3.431  16.686  0.00  0.00    +0.000 OA
ATOM      3  O   UNL     1       1.714   2.229  18.858  0.00  0.00    +0.000 OA
ENDROOT
BRANCH   1   4
ATOM      4  C   UNL     1       2.150   4.794  18.906  0.00  0.00    +0.000 A 
ATOM      5  C   UNL     1       2.282   5.979  18.155  0.00  0.00    +0.000 A 
ATOM      6  C   UNL     1       2.162   7.240  18.762  0.00  0.00    +0.000 A 
ATOM      7  C   UNL     1       2.437   8.479  17.956  0.00  0.00    +0.000 C 
ATOM      8  C   UNL     1       1.838   7.298  20.124  0.00  0.00    +0.000 A 
ATOM      9 CL   UNL     1       1.584   8.805  20.927  0.00  0.00    +0.000 Cl
ATOM     10  C   UNL     1       1.731   6.125  20.875  0.00  0.00    +0.000 A 
ATOM     11  C   UNL     1       1.925   4.871  20.280  0.00  0.00    +0.000 A 
ATOM     12 CL   UNL     1       1.893   3.505  21.332  0.00  0.00    +0.000 Cl
ENDBRANCH   1   4
BRANCH   1  16
ATOM     13  N   UNL     1       5.786   5.392  17.823  0.00  0.00    +0.000 NA
ATOM     14  C   UNL     1       5.191   4.663  16.685  0.00  0.00    +0.000 C 
ATOM     15  C   UNL     1       4.870   3.165  16.919  0.00  0.00    +0.000 C 
ATOM     16  N   UNL     1       4.066   2.946  18.161  0.00  0.00    +0.000 NA
ATOM     17  C   UNL     1       4.757   3.593  19.322  0.00  0.00    +0.000 C 
ATOM     18  C   UNL     1       5.030   5.090  19.064  0.00  0.00    +0.000 C 
BRANCH  13  20
ATOM     19  C   UNL     1       7.791   5.850  19.247  0.00  0.00    +0.000 C 
ATOM     20  C   UNL     1       7.227   5.196  17.983  0.00  0.00    +0.000 C 
ENDBRANCH  13  20
ENDBRANCH   1  16
TORSDOF 3
ENDMDL
MODEL 7
REMARK VINA RESULT:      -5.7      3.546      6.656
REMARK  Name = 
REMARK  5 active torsions:
REMARK  status: ('A' for Active; 'I' for Inactive)
REMARK    1  A    between atoms: C_1  and  C_2
REMARK    2  A    between atoms: C_2  and  N_3
REMARK    3  A    between atoms: N_6  and  S_7
REMARK    4  A    between atoms: S_7  and  C_10
REMARK    5  A    between atoms: C_12  and  C_13
REMARK                            x       y       z     vdW  Elec       q    Type
REMARK                         _______ _______ _______ _____ _____    ______ ____
ROOT
ATOM      1  S   UNL     1       4.618   5.767  17.836  0.00  0.00    +0.000 S 
ATOM      2  O   UNL     1       3.966   7.044  17.693  0.00  0.00    +0.000 OA
ATOM      3  O   UNL     1       5.517   5.537  18.946  0.00  0.00    +0.000 OA
ENDROOT
BRANCH   1   4
ATOM      4  C   UNL     1       5.544   5.464  16.346  0.00  0.00    +0.000 A 
ATOM      5  C   UNL     1       4.935   4.699  15.332  0.00  0.00    +0.000 A 
ATOM      6  C   UNL     1       5.625   4.380  14.150  0.00  0.00    +0.000 A 
ATOM      7  C   UNL     1       4.989   3.455  13.148  0.00  0.00    +0.000 C 
ATOM      8  C   UNL     1       6.914   4.899  13.967  0.00  0.00    +0.000 A 
ATOM      9 CL   UNL     1       7.794   4.630  12.507  0.00  0.00    +0.000 Cl
ATOM     10  C   UNL     1       7.527   5.637  14.981  0.00  0.00    +0.000 A 
ATOM     11  C   UNL     1       6.864   5.889  16.189  0.00  0.00    +0.000 A 
ATOM     12 CL   UNL     1       7.769   6.700  17.413  0.00  0.00    +0.000 Cl
ENDBRANCH   1   4
BRANCH   1  16
ATOM     13  N   UNL     1       2.534   3.721  20.622  0.00  0.00    +0.000 NA
ATOM     14  C   UNL     1       3.786   3.233  20.008  0.00  0.00    +0.000 C 
ATOM     15  C   UNL     1       3.831   3.215  18.458  0.00  0.00    +0.000 C 
ATOM     16  N   UNL     1       3.433   4.529  17.865  0.00  0.00    +0.000 NA
ATOM     17  C   UNL     1       2.101   4.940  18.415  0.00  0.00    +0.000 C 
ATOM     18  C   UNL     1       2.105   4.977  19.958  0.00  0.00    +0.000 C 
BRANCH  13  20
ATOM     19  C   UNL     1       1.170   2.242  22.108  0.00  0.00    +0.000 C 
ATOM     20  C   UNL     1       1.462   2.728  20.686  0.00  0.00    +0.000 C 
ENDBRANCH  13  20
ENDBRANCH   1  16
TORSDOF 3
ENDMDL
MODEL 8
REMARK VINA RESULT:      -5.7      2.061      2.932
REMARK  Name = 
REMARK  5 active torsions:
REMARK  status: ('A' for Active; 'I' for Inactive)
REMARK    1  A    between atoms: C_1  and  C_2
REMARK    2  A    between atoms: C_2  and  N_3
REMARK    3  A    between atoms: N_6  and  S_7
REMARK    4  A    between atoms: S_7  and  C_10
REMARK    5  A    between atoms: C_12  and  C_13
REMARK                            x       y       z     vdW  Elec       q    Type
REMARK                         _______ _______ _______ _____ _____    ______ ____
ROOT
ATOM      1  S   UNL     1       2.591   5.967  19.273  0.00  0.00    +0.000 S 
ATOM      2  O   UNL     1       1.898   5.533  18.087  0.00  0.00    +0.000 OA
ATOM      3  O   UNL     1       2.581   5.138  20.458  0.00  0.00    +0.000 OA
ENDROOT
BRANCH   1   4
ATOM      4  C   UNL     1       1.922   7.550  19.740  0.00  0.00    +0.000 A 
ATOM      5  C   UNL     1       1.395   7.690  21.039  0.00  0.00    +0.000 A 
ATOM      6  C   UNL     1       0.807   8.895  21.458  0.00  0.00    +0.000 A 
ATOM      7  C   UNL     1       0.141   8.965  22.805  0.00  0.00    +0.000 C 
ATOM      8  C   UNL     1       0.818   9.985  20.578  0.00  0.00    +0.000 A 
ATOM      9 CL   UNL     1       0.199  11.527  21.045  0.00  0.00    +0.000 Cl
ATOM     10  C   UNL     1       1.318   9.841  19.282  0.00  0.00    +0.000 A 
ATOM     11  C   UNL     1       1.835   8.615  18.843  0.00  0.00    +0.000 A 
ATOM     12 CL   UNL     1       2.305   8.524  17.187  0.00  0.00    +0.000 Cl
ENDBRANCH   1   4
BRANCH   1  16
ATOM     13  N   UNL     1       5.546   4.193  17.172  0.00  0.00    +0.000 NA
ATOM     14  C   UNL     1       5.374   4.050  18.633  0.00  0.00    +0.000 C 
ATOM     15  C   UNL     1       5.261   5.365  19.445  0.00  0.00    +0.000 C 
ATOM     16  N   UNL     1       4.228   6.291  18.883  0.00  0.00    +0.000 NA
ATOM     17  C   UNL     1       4.500   6.514  17.427  0.00  0.00    +0.000 C 
ATOM     18  C   UNL     1       4.574   5.184  16.647  0.00  0.00    +0.000 C 
BRANCH  13  20
ATOM     19  C   UNL     1       7.034   4.798  15.255  0.00  0.00    +0.000 C 
ATOM     20  C   UNL     1       6.917   4.475  16.747  0.00  0.00    +0.000 C 
ENDBRANCH  13  20
ENDBRANCH   1  16
TORSDOF 3
ENDMDL
MODEL 9
REMARK VINA RESULT:      -5.7      3.657      5.972
REMARK  Name = 
REMARK  5 active torsions:
REMARK  status: ('A' for Active; 'I' for Inactive)
REMARK    1  A    between atoms: C_1  and  C_2
REMARK    2  A    between atoms: C_2  and  N_3
REMARK    3  A    between atoms: N_6  and  S_7
REMARK    4  A    between atoms: S_7  and  C_10
REMARK    5  A    between atoms: C_12  and  C_13
REMARK                            x       y       z     vdW  Elec       q    Type
REMARK                         _______ _______ _______ _____ _____    ______ ____
ROOT
ATOM      1  S   UNL     1       4.868   3.983  16.529  0.00  0.00    +0.000 S 
ATOM      2  O   UNL     1       5.333   2.726  17.057  0.00  0.00    +0.000 OA
ATOM      3  O   UNL     1       4.761   4.169  15.098  0.00  0.00    +0.000 OA
ENDROOT
BRANCH   1   4
ATOM      4  C   UNL     1       5.949   5.259  17.140  0.00  0.00    +0.000 A 
ATOM      5  C   UNL     1       6.802   4.945  18.216  0.00  0.00    +0.000 A 
ATOM      6  C   UNL     1       7.646   5.917  18.781  0.00  0.00    +0.000 A 
ATOM      7  C   UNL     1       8.445   5.580  20.009  0.00  0.00    +0.000 C 
ATOM      8  C   UNL     1       7.675   7.193  18.203  0.00  0.00    +0.000 A 
ATOM      9 CL   UNL     1       8.749   8.417  18.777  0.00  0.00    +0.000 Cl
ATOM     10  C   UNL     1       6.814   7.512  17.151  0.00  0.00    +0.000 A 
ATOM     11  C   UNL     1       5.920   6.562  16.641  0.00  0.00    +0.000 A 
ATOM     12 CL   UNL     1       4.820   7.109  15.431  0.00  0.00    +0.000 Cl
ENDBRANCH   1   4
BRANCH   1  16
ATOM     13  N   UNL     1       2.601   2.674  19.601  0.00  0.00    +0.000 NA
ATOM     14  C   UNL     1       2.451   2.203  18.209  0.00  0.00    +0.000 C 
ATOM     15  C   UNL     1       2.280   3.299  17.126  0.00  0.00    +0.000 C 
ATOM     16  N   UNL     1       3.340   4.351  17.214  0.00  0.00    +0.000 NA
ATOM     17  C   UNL     1       3.385   4.897  18.608  0.00  0.00    +0.000 C 
ATOM     18  C   UNL     1       3.589   3.780  19.654  0.00  0.00    +0.000 C 
BRANCH  13  20
ATOM     19  C   UNL     1       1.339   2.685  21.760  0.00  0.00    +0.000 C 
ATOM     20  C   UNL     1       1.343   3.014  20.265  0.00  0.00    +0.000 C 
ENDBRANCH  13  20
ENDBRANCH   1  16
TORSDOF 3
ENDMDL
