MODEL 1
REMARK VINA RESULT:      -8.5      0.000      0.000
REMARK  Name = 
REMARK  2 active torsions:
REMARK  status: ('A' for Active; 'I' for Inactive)
REMARK    1  A    between atoms: C_2  and  C_3
REMARK    2  A    between atoms: C_6  and  C_7
REMARK                            x       y       z     vdW  Elec       q    Type
REMARK                         _______ _______ _______ _____ _____    ______ ____
ROOT
ATOM      1  O   UNL     1      -1.320  11.066  19.614  0.00  0.00    +0.000 OA
ATOM      2  C   UNL     1      -0.129  11.102  19.912  0.00  0.00    +0.000 C 
ATOM      3  N   UNL     1       0.454  12.123  20.672  0.00  0.00    +0.000 N 
ATOM      4  C   UNL     1      -0.410  13.196  21.211  0.00  0.00    +0.000 C 
ATOM      5  C   UNL     1       0.152  14.625  20.940  0.00  0.00    +0.000 C 
ATOM      6  C   UNL     1       1.193  15.056  22.011  0.00  0.00    +0.000 C 
ATOM      7  C   UNL     1       2.566  14.720  21.410  0.00  0.00    +0.000 C 
ATOM      8  C   UNL     1       2.211  13.893  20.173  0.00  0.00    +0.000 C 
ATOM      9  C   UNL     1       1.897  12.436  20.625  0.00  0.00    +0.000 C 
ATOM     10  N   UNL     1       0.967  14.534  19.718  0.00  0.00    +0.000 N 
ATOM     11  C   UNL     1       1.086  15.684  18.963  0.00  0.00    +0.000 A 
ATOM     12  N   UNL     1       2.207  15.873  18.249  0.00  0.00    +0.000 NA
ATOM     13  C   UNL     1       2.305  17.005  17.528  0.00  0.00    +0.000 A 
ATOM     14  C   UNL     1       1.325  17.964  17.489  0.00  0.00    +0.000 A 
ATOM     15  C   UNL     1       0.216  17.688  18.242  0.00  0.00    +0.000 A 
ATOM     16  N   UNL     1       0.077  16.571  18.978  0.00  0.00    +0.000 NA
ENDROOT
BRANCH   2  17
ATOM     17  C   UNL     1       0.732   9.973  19.459  0.00  0.00    +0.000 A 
ATOM     18  C   UNL     1       1.098   8.966  20.351  0.00  0.00    +0.000 A 
ATOM     19  C   UNL     1       1.856   7.873  19.901  0.00  0.00    +0.000 A 
ATOM     20  C   UNL     1       2.239   7.746  18.551  0.00  0.00    +0.000 A 
ATOM     21  C   UNL     1       1.872   8.789  17.683  0.00  0.00    +0.000 A 
ATOM     22  C   UNL     1       1.182   9.911  18.140  0.00  0.00    +0.000 A 
BRANCH  20  23
ATOM     23  C   UNL     1       3.014   6.582  18.052  0.00  0.00    +0.000 A 
ATOM     24  C   UNL     1       4.332   6.713  17.576  0.00  0.00    +0.000 A 
ATOM     25  C   UNL     1       5.049   5.611  17.093  0.00  0.00    +0.000 A 
ATOM     26  C   UNL     1       4.470   4.345  17.092  0.00  0.00    +0.000 A 
ATOM     27  C   UNL     1       3.176   4.188  17.571  0.00  0.00    +0.000 A 
ATOM     28 CL   UNL     1       2.452   2.626  17.593  0.00  0.00    +0.000 Cl
ATOM     29  C   UNL     1       2.454   5.289  18.036  0.00  0.00    +0.000 A 
ENDBRANCH  20  23
ENDBRANCH   2  17
TORSDOF 2
ENDMDL
MODEL 2
REMARK VINA RESULT:      -8.5      1.215      1.396
REMARK  Name = 
REMARK  2 active torsions:
REMARK  status: ('A' for Active; 'I' for Inactive)
REMARK    1  A    between atoms: C_2  and  C_3
REMARK    2  A    between atoms: C_6  and  C_7
REMARK                            x       y       z     vdW  Elec       q    Type
REMARK                         _______ _______ _______ _____ _____    ______ ____
ROOT
ATOM      1  O   UNL     1      -1.446  10.630  18.781  0.00  0.00    +0.000 OA
ATOM      2  C   UNL     1      -0.391  10.746  19.399  0.00  0.00    +0.000 C 
ATOM      3  N   UNL     1      -0.129  11.778  20.309  0.00  0.00    +0.000 N 
ATOM      4  C   UNL     1      -1.196  12.760  20.604  0.00  0.00    +0.000 C 
ATOM      5  C   UNL     1      -0.705  14.237  20.523  0.00  0.00    +0.000 C 
ATOM      6  C   UNL     1      -0.040  14.705  21.848  0.00  0.00    +0.000 C 
ATOM      7  C   UNL     1       1.468  14.500  21.647  0.00  0.00    +0.000 C 
ATOM      8  C   UNL     1       1.540  13.697  20.346  0.00  0.00    +0.000 C 
ATOM      9  C   UNL     1       1.239  12.204  20.669  0.00  0.00    +0.000 C 
ATOM     10  N   UNL     1       0.420  14.258  19.575  0.00  0.00    +0.000 N 
ATOM     11  C   UNL     1       0.643  15.443  18.901  0.00  0.00    +0.000 A 
ATOM     12  N   UNL     1       1.898  15.745  18.530  0.00  0.00    +0.000 NA
ATOM     13  C   UNL     1       2.093  16.909  17.883  0.00  0.00    +0.000 A 
ATOM     14  C   UNL     1       1.084  17.790  17.589  0.00  0.00    +0.000 A 
ATOM     15  C   UNL     1      -0.161  17.399  18.000  0.00  0.00    +0.000 A 
ATOM     16  N   UNL     1      -0.402  16.247  18.650  0.00  0.00    +0.000 NA
ENDROOT
BRANCH   2  17
ATOM     17  C   UNL     1       0.655   9.706  19.185  0.00  0.00    +0.000 A 
ATOM     18  C   UNL     1       0.940   8.779  20.187  0.00  0.00    +0.000 A 
ATOM     19  C   UNL     1       1.881   7.763  19.954  0.00  0.00    +0.000 A 
ATOM     20  C   UNL     1       2.534   7.631  18.712  0.00  0.00    +0.000 A 
ATOM     21  C   UNL     1       2.239   8.596  17.731  0.00  0.00    +0.000 A 
ATOM     22  C   UNL     1       1.360   9.649  17.983  0.00  0.00    +0.000 A 
BRANCH  20  23
ATOM     23  C   UNL     1       3.508   6.545  18.438  0.00  0.00    +0.000 A 
ATOM     24  C   UNL     1       3.844   5.583  19.409  0.00  0.00    +0.000 A 
ATOM     25  C   UNL     1       4.776   4.572  19.146  0.00  0.00    +0.000 A 
ATOM     26  C   UNL     1       5.383   4.487  17.896  0.00  0.00    +0.000 A 
ATOM     27  C   UNL     1       5.056   5.416  16.916  0.00  0.00    +0.000 A 
ATOM     28 CL   UNL     1       5.784   5.315  15.360  0.00  0.00    +0.000 Cl
ATOM     29  C   UNL     1       4.141   6.435  17.184  0.00  0.00    +0.000 A 
ENDBRANCH  20  23
ENDBRANCH   2  17
TORSDOF 2
ENDMDL
MODEL 3
REMARK VINA RESULT:      -8.4      2.833      4.018
REMARK  Name = 
REMARK  2 active torsions:
REMARK  status: ('A' for Active; 'I' for Inactive)
REMARK    1  A    between atoms: C_2  and  C_3
REMARK    2  A    between atoms: C_6  and  C_7
REMARK                            x       y       z     vdW  Elec       q    Type
REMARK                         _______ _______ _______ _____ _____    ______ ____
ROOT
ATOM      1  O   UNL     1      -0.218   9.216  22.087  0.00  0.00    +0.000 OA
ATOM      2  C   UNL     1       0.303   9.577  21.034  0.00  0.00    +0.000 C 
ATOM      3  N   UNL     1       0.165  10.862  20.496  0.00  0.00    +0.000 N 
ATOM      4  C   UNL     1      -0.596  11.878  21.255  0.00  0.00    +0.000 C 
ATOM      5  C   UNL     1      -1.648  12.629  20.384  0.00  0.00    +0.000 C 
ATOM      6  C   UNL     1      -1.019  13.820  19.606  0.00  0.00    +0.000 C 
ATOM      7  C   UNL     1      -0.687  13.271  18.211  0.00  0.00    +0.000 C 
ATOM      8  C   UNL     1      -0.901  11.765  18.369  0.00  0.00    +0.000 C 
ATOM      9  C   UNL     1       0.355  11.157  19.060  0.00  0.00    +0.000 C 
ATOM     10  N   UNL     1      -2.037  11.710  19.303  0.00  0.00    +0.000 N 
ATOM     11  C   UNL     1      -3.302  11.873  18.773  0.00  0.00    +0.000 A 
ATOM     12  N   UNL     1      -3.508  11.548  17.487  0.00  0.00    +0.000 NA
ATOM     13  C   UNL     1      -4.746  11.723  16.989  0.00  0.00    +0.000 A 
ATOM     14  C   UNL     1      -5.794  12.213  17.725  0.00  0.00    +0.000 A 
ATOM     15  C   UNL     1      -5.496  12.513  19.027  0.00  0.00    +0.000 A 
ATOM     16  N   UNL     1      -4.274  12.355  19.564  0.00  0.00    +0.000 NA
ENDROOT
BRANCH   2  17
ATOM     17  C   UNL     1       1.154   8.591  20.310  0.00  0.00    +0.000 A 
ATOM     18  C   UNL     1       1.437   7.352  20.884  0.00  0.00    +0.000 A 
ATOM     19  C   UNL     1       2.186   6.404  20.168  0.00  0.00    +0.000 A 
ATOM     20  C   UNL     1       2.643   6.658  18.859  0.00  0.00    +0.000 A 
ATOM     21  C   UNL     1       2.358   7.926  18.320  0.00  0.00    +0.000 A 
ATOM     22  C   UNL     1       1.678   8.896  19.053  0.00  0.00    +0.000 A 
BRANCH  20  23
ATOM     23  C   UNL     1       3.410   5.656  18.077  0.00  0.00    +0.000 A 
ATOM     24  C   UNL     1       4.361   6.034  17.111  0.00  0.00    +0.000 A 
ATOM     25  C   UNL     1       5.068   5.080  16.367  0.00  0.00    +0.000 A 
ATOM     26  C   UNL     1       4.853   3.723  16.587  0.00  0.00    +0.000 A 
ATOM     27  C   UNL     1       3.930   3.325  17.545  0.00  0.00    +0.000 A 
ATOM     28 CL   UNL     1       3.665   1.650  17.840  0.00  0.00    +0.000 Cl
ATOM     29  C   UNL     1       3.212   4.275  18.274  0.00  0.00    +0.000 A 
ENDBRANCH  20  23
ENDBRANCH   2  17
TORSDOF 2
ENDMDL
MODEL 4
REMARK VINA RESULT:      -8.3      3.036      4.250
REMARK  Name = 
REMARK  2 active torsions:
REMARK  status: ('A' for Active; 'I' for Inactive)
REMARK    1  A    between atoms: C_2  and  C_3
REMARK    2  A    between atoms: C_6  and  C_7
REMARK                            x       y       z     vdW  Elec       q    Type
REMARK                         _______ _______ _______ _____ _____    ______ ____
ROOT
ATOM      1  O   UNL     1      -0.313   9.085  22.007  0.00  0.00    +0.000 OA
ATOM      2  C   UNL     1       0.236   9.492  20.987  0.00  0.00    +0.000 C 
ATOM      3  N   UNL     1       0.098  10.796  20.494  0.00  0.00    +0.000 N 
ATOM      4  C   UNL     1      -0.700  11.773  21.267  0.00  0.00    +0.000 C 
ATOM      5  C   UNL     1      -1.734  12.544  20.392  0.00  0.00    +0.000 C 
ATOM      6  C   UNL     1      -1.096  13.772  19.682  0.00  0.00    +0.000 C 
ATOM      7  C   UNL     1      -0.713  13.282  18.278  0.00  0.00    +0.000 C 
ATOM      8  C   UNL     1      -0.912  11.768  18.371  0.00  0.00    +0.000 C 
ATOM      9  C   UNL     1       0.330  11.149  19.078  0.00  0.00    +0.000 C 
ATOM     10  N   UNL     1      -2.076  11.663  19.265  0.00  0.00    +0.000 N 
ATOM     11  C   UNL     1      -3.326  11.831  18.702  0.00  0.00    +0.000 A 
ATOM     12  N   UNL     1      -3.486  11.554  17.398  0.00  0.00    +0.000 NA
ATOM     13  C   UNL     1      -4.711  11.734  16.868  0.00  0.00    +0.000 A 
ATOM     14  C   UNL     1      -5.788  12.182  17.589  0.00  0.00    +0.000 A 
ATOM     15  C   UNL     1      -5.535  12.436  18.910  0.00  0.00    +0.000 A 
ATOM     16  N   UNL     1      -4.328  12.271  19.480  0.00  0.00    +0.000 NA
ENDROOT
BRANCH   2  17
ATOM     17  C   UNL     1       1.123   8.546  20.253  0.00  0.00    +0.000 A 
ATOM     18  C   UNL     1       1.443   7.308  20.809  0.00  0.00    +0.000 A 
ATOM     19  C   UNL     1       2.227   6.396  20.084  0.00  0.00    +0.000 A 
ATOM     20  C   UNL     1       2.681   6.685  18.781  0.00  0.00    +0.000 A 
ATOM     21  C   UNL     1       2.358   7.950  18.259  0.00  0.00    +0.000 A 
ATOM     22  C   UNL     1       1.642   8.886  19.003  0.00  0.00    +0.000 A 
BRANCH  20  23
ATOM     23  C   UNL     1       3.484   5.720  17.989  0.00  0.00    +0.000 A 
ATOM     24  C   UNL     1       3.022   4.421  17.705  0.00  0.00    +0.000 A 
ATOM     25  C   UNL     1       3.794   3.513  16.970  0.00  0.00    +0.000 A 
ATOM     26  C   UNL     1       5.043   3.890  16.483  0.00  0.00    +0.000 A 
ATOM     27  C   UNL     1       5.514   5.172  16.737  0.00  0.00    +0.000 A 
ATOM     28 CL   UNL     1       7.049   5.659  16.128  0.00  0.00    +0.000 Cl
ATOM     29  C   UNL     1       4.753   6.071  17.485  0.00  0.00    +0.000 A 
ENDBRANCH  20  23
ENDBRANCH   2  17
TORSDOF 2
ENDMDL
MODEL 5
REMARK VINA RESULT:      -8.3      0.662      1.110
REMARK  Name = 
REMARK  2 active torsions:
REMARK  status: ('A' for Active; 'I' for Inactive)
REMARK    1  A    between atoms: C_2  and  C_3
REMARK    2  A    between atoms: C_6  and  C_7
REMARK                            x       y       z     vdW  Elec       q    Type
REMARK                         _______ _______ _______ _____ _____    ______ ____
ROOT
ATOM      1  O   UNL     1      -1.413  11.095  19.532  0.00  0.00    +0.000 OA
ATOM      2  C   UNL     1      -0.235  11.081  19.879  0.00  0.00    +0.000 C 
ATOM      3  N   UNL     1       0.367  12.092  20.639  0.00  0.00    +0.000 N 
ATOM      4  C   UNL     1      -0.464  13.220  21.114  0.00  0.00    +0.000 C 
ATOM      5  C   UNL     1       0.179  14.612  20.832  0.00  0.00    +0.000 C 
ATOM      6  C   UNL     1       1.196  15.021  21.935  0.00  0.00    +0.000 C 
ATOM      7  C   UNL     1       2.573  14.602  21.400  0.00  0.00    +0.000 C 
ATOM      8  C   UNL     1       2.228  13.761  20.170  0.00  0.00    +0.000 C 
ATOM      9  C   UNL     1       1.825  12.334  20.644  0.00  0.00    +0.000 C 
ATOM     10  N   UNL     1       1.038  14.450  19.648  0.00  0.00    +0.000 N 
ATOM     11  C   UNL     1       1.243  15.572  18.871  0.00  0.00    +0.000 A 
ATOM     12  N   UNL     1       2.401  15.687  18.200  0.00  0.00    +0.000 NA
ATOM     13  C   UNL     1       2.584  16.794  17.456  0.00  0.00    +0.000 A 
ATOM     14  C   UNL     1       1.655  17.798  17.353  0.00  0.00    +0.000 A 
ATOM     15  C   UNL     1       0.504  17.596  18.065  0.00  0.00    +0.000 A 
ATOM     16  N   UNL     1       0.280  16.507  18.822  0.00  0.00    +0.000 NA
ENDROOT
BRANCH   2  17
ATOM     17  C   UNL     1       0.587   9.901  19.491  0.00  0.00    +0.000 A 
ATOM     18  C   UNL     1       1.006   9.740  18.170  0.00  0.00    +0.000 A 
ATOM     19  C   UNL     1       1.833   8.659  17.825  0.00  0.00    +0.000 A 
ATOM     20  C   UNL     1       2.285   7.736  18.790  0.00  0.00    +0.000 A 
ATOM     21  C   UNL     1       1.827   7.915  20.107  0.00  0.00    +0.000 A 
ATOM     22  C   UNL     1       0.947   8.944  20.441  0.00  0.00    +0.000 A 
BRANCH  20  23
ATOM     23  C   UNL     1       3.185   6.606  18.447  0.00  0.00    +0.000 A 
ATOM     24  C   UNL     1       4.129   6.694  17.407  0.00  0.00    +0.000 A 
ATOM     25  C   UNL     1       4.962   5.616  17.081  0.00  0.00    +0.000 A 
ATOM     26  C   UNL     1       4.884   4.429  17.803  0.00  0.00    +0.000 A 
ATOM     27  C   UNL     1       3.971   4.323  18.844  0.00  0.00    +0.000 A 
ATOM     28 CL   UNL     1       3.874   2.867  19.758  0.00  0.00    +0.000 Cl
ATOM     29  C   UNL     1       3.128   5.390  19.158  0.00  0.00    +0.000 A 
ENDBRANCH  20  23
ENDBRANCH   2  17
TORSDOF 2
ENDMDL
MODEL 6
REMARK VINA RESULT:      -8.0      3.147      4.415
REMARK  Name = 
REMARK  2 active torsions:
REMARK  status: ('A' for Active; 'I' for Inactive)
REMARK    1  A    between atoms: C_2  and  C_3
REMARK    2  A    between atoms: C_6  and  C_7
REMARK                            x       y       z     vdW  Elec       q    Type
REMARK                         _______ _______ _______ _____ _____    ______ ____
ROOT
ATOM      1  O   UNL     1       0.200   7.972  21.344  0.00  0.00    +0.000 OA
ATOM      2  C   UNL     1       0.835   8.589  20.493  0.00  0.00    +0.000 C 
ATOM      3  N   UNL     1       0.685   9.959  20.247  0.00  0.00    +0.000 N 
ATOM      4  C   UNL     1      -0.242  10.741  21.095  0.00  0.00    +0.000 C 
ATOM      5  C   UNL     1      -1.213  11.639  20.270  0.00  0.00    +0.000 C 
ATOM      6  C   UNL     1      -0.566  13.001  19.889  0.00  0.00    +0.000 C 
ATOM      7  C   UNL     1      -0.007  12.808  18.472  0.00  0.00    +0.000 C 
ATOM      8  C   UNL     1      -0.136  11.300  18.248  0.00  0.00    +0.000 C 
ATOM      9  C   UNL     1       1.052  10.591  18.963  0.00  0.00    +0.000 C 
ATOM     10  N   UNL     1      -1.384  10.988  18.962  0.00  0.00    +0.000 N 
ATOM     11  C   UNL     1      -2.571  11.226  18.299  0.00  0.00    +0.000 A 
ATOM     12  N   UNL     1      -2.574  11.207  16.956  0.00  0.00    +0.000 NA
ATOM     13  C   UNL     1      -3.740  11.452  16.331  0.00  0.00    +0.000 A 
ATOM     14  C   UNL     1      -4.912  11.717  16.993  0.00  0.00    +0.000 A 
ATOM     15  C   UNL     1      -4.818  11.712  18.358  0.00  0.00    +0.000 A 
ATOM     16  N   UNL     1      -3.674  11.474  19.023  0.00  0.00    +0.000 NA
ENDROOT
BRANCH   2  17
ATOM     17  C   UNL     1       1.845   7.832  19.700  0.00  0.00    +0.000 A 
ATOM     18  C   UNL     1       2.277   8.317  18.466  0.00  0.00    +0.000 A 
ATOM     19  C   UNL     1       3.275   7.632  17.755  0.00  0.00    +0.000 A 
ATOM     20  C   UNL     1       3.884   6.469  18.269  0.00  0.00    +0.000 A 
ATOM     21  C   UNL     1       3.409   5.996  19.506  0.00  0.00    +0.000 A 
ATOM     22  C   UNL     1       2.369   6.632  20.181  0.00  0.00    +0.000 A 
BRANCH  20  23
ATOM     23  C   UNL     1       4.961   5.750  17.545  0.00  0.00    +0.000 A 
ATOM     24  C   UNL     1       6.202   5.466  18.146  0.00  0.00    +0.000 A 
ATOM     25  C   UNL     1       7.218   4.801  17.448  0.00  0.00    +0.000 A 
ATOM     26  C   UNL     1       7.010   4.387  16.136  0.00  0.00    +0.000 A 
ATOM     27  C   UNL     1       5.788   4.642  15.526  0.00  0.00    +0.000 A 
ATOM     28 CL   UNL     1       5.509   4.121  13.910  0.00  0.00    +0.000 Cl
ATOM     29  C   UNL     1       4.782   5.321  16.215  0.00  0.00    +0.000 A 
ENDBRANCH  20  23
ENDBRANCH   2  17
TORSDOF 2
ENDMDL
MODEL 7
REMARK VINA RESULT:      -8.0      2.773      4.210
REMARK  Name = 
REMARK  2 active torsions:
REMARK  status: ('A' for Active; 'I' for Inactive)
REMARK    1  A    between atoms: C_2  and  C_3
REMARK    2  A    between atoms: C_6  and  C_7
REMARK                            x       y       z     vdW  Elec       q    Type
REMARK                         _______ _______ _______ _____ _____    ______ ____
ROOT
ATOM      1  O   UNL     1       0.832   9.981  22.438  0.00  0.00    +0.000 OA
ATOM      2  C   UNL     1       0.923   9.930  21.214  0.00  0.00    +0.000 C 
ATOM      3  N   UNL     1       0.727  11.031  20.370  0.00  0.00    +0.000 N 
ATOM      4  C   UNL     1       0.456  12.355  20.973  0.00  0.00    +0.000 C 
ATOM      5  C   UNL     1      -0.765  13.079  20.329  0.00  0.00    +0.000 C 
ATOM      6  C   UNL     1      -0.371  13.854  19.039  0.00  0.00    +0.000 C 
ATOM      7  C   UNL     1      -0.692  12.905  17.876  0.00  0.00    +0.000 C 
ATOM      8  C   UNL     1      -0.994  11.580  18.579  0.00  0.00    +0.000 C 
ATOM      9  C   UNL     1       0.356  10.896  18.946  0.00  0.00    +0.000 C 
ATOM     10  N   UNL     1      -1.657  12.029  19.813  0.00  0.00    +0.000 N 
ATOM     11  C   UNL     1      -3.001  12.338  19.736  0.00  0.00    +0.000 A 
ATOM     12  N   UNL     1      -3.742  11.751  18.782  0.00  0.00    +0.000 NA
ATOM     13  C   UNL     1      -5.047  12.074  18.719  0.00  0.00    +0.000 A 
ATOM     14  C   UNL     1      -5.648  12.963  19.572  0.00  0.00    +0.000 A 
ATOM     15  C   UNL     1      -4.820  13.510  20.514  0.00  0.00    +0.000 A 
ATOM     16  N   UNL     1      -3.511  13.217  20.613  0.00  0.00    +0.000 NA
ENDROOT
BRANCH   2  17
ATOM     17  C   UNL     1       1.294   8.624  20.601  0.00  0.00    +0.000 A 
ATOM     18  C   UNL     1       1.933   8.584  19.362  0.00  0.00    +0.000 A 
ATOM     19  C   UNL     1       2.336   7.353  18.821  0.00  0.00    +0.000 A 
ATOM     20  C   UNL     1       2.139   6.141  19.514  0.00  0.00    +0.000 A 
ATOM     21  C   UNL     1       1.473   6.215  20.751  0.00  0.00    +0.000 A 
ATOM     22  C   UNL     1       1.006   7.427  21.258  0.00  0.00    +0.000 A 
BRANCH  20  23
ATOM     23  C   UNL     1       2.587   4.834  18.971  0.00  0.00    +0.000 A 
ATOM     24  C   UNL     1       2.239   4.406  17.676  0.00  0.00    +0.000 A 
ATOM     25  C   UNL     1       2.653   3.165  17.179  0.00  0.00    +0.000 A 
ATOM     26  C   UNL     1       3.444   2.327  17.960  0.00  0.00    +0.000 A 
ATOM     27  C   UNL     1       3.814   2.734  19.236  0.00  0.00    +0.000 A 
ATOM     28 CL   UNL     1       4.806   1.717  20.208  0.00  0.00    +0.000 Cl
ATOM     29  C   UNL     1       3.386   3.963  19.739  0.00  0.00    +0.000 A 
ENDBRANCH  20  23
ENDBRANCH   2  17
TORSDOF 2
ENDMDL
MODEL 8
REMARK VINA RESULT:      -7.9      2.691      4.173
REMARK  Name = 
REMARK  2 active torsions:
REMARK  status: ('A' for Active; 'I' for Inactive)
REMARK    1  A    between atoms: C_2  and  C_3
REMARK    2  A    between atoms: C_6  and  C_7
REMARK                            x       y       z     vdW  Elec       q    Type
REMARK                         _______ _______ _______ _____ _____    ______ ____
ROOT
ATOM      1  O   UNL     1       0.834   9.809  22.361  0.00  0.00    +0.000 OA
ATOM      2  C   UNL     1       0.955   9.894  21.142  0.00  0.00    +0.000 C 
ATOM      3  N   UNL     1       0.744  11.074  20.418  0.00  0.00    +0.000 N 
ATOM      4  C   UNL     1       0.418  12.316  21.152  0.00  0.00    +0.000 C 
ATOM      5  C   UNL     1      -0.810  13.071  20.559  0.00  0.00    +0.000 C 
ATOM      6  C   UNL     1      -0.411  13.992  19.372  0.00  0.00    +0.000 C 
ATOM      7  C   UNL     1      -0.675  13.167  18.104  0.00  0.00    +0.000 C 
ATOM      8  C   UNL     1      -0.951  11.766  18.651  0.00  0.00    +0.000 C 
ATOM      9  C   UNL     1       0.411  11.085  18.978  0.00  0.00    +0.000 C 
ATOM     10  N   UNL     1      -1.657  12.058  19.909  0.00  0.00    +0.000 N 
ATOM     11  C   UNL     1      -3.007  12.335  19.829  0.00  0.00    +0.000 A 
ATOM     12  N   UNL     1      -3.707  11.835  18.798  0.00  0.00    +0.000 NA
ATOM     13  C   UNL     1      -5.020  12.125  18.736  0.00  0.00    +0.000 A 
ATOM     14  C   UNL     1      -5.668  12.898  19.664  0.00  0.00    +0.000 A 
ATOM     15  C   UNL     1      -4.879  13.362  20.682  0.00  0.00    +0.000 A 
ATOM     16  N   UNL     1      -3.565  13.098  20.782  0.00  0.00    +0.000 NA
ENDROOT
BRANCH   2  17
ATOM     17  C   UNL     1       1.381   8.674  20.401  0.00  0.00    +0.000 A 
ATOM     18  C   UNL     1       1.858   8.774  19.095  0.00  0.00    +0.000 A 
ATOM     19  C   UNL     1       2.318   7.628  18.427  0.00  0.00    +0.000 A 
ATOM     20  C   UNL     1       2.339   6.366  19.054  0.00  0.00    +0.000 A 
ATOM     21  C   UNL     1       1.831   6.296  20.363  0.00  0.00    +0.000 A 
ATOM     22  C   UNL     1       1.306   7.417  21.004  0.00  0.00    +0.000 A 
BRANCH  20  23
ATOM     23  C   UNL     1       2.850   5.149  18.373  0.00  0.00    +0.000 A 
ATOM     24  C   UNL     1       2.139   3.934  18.385  0.00  0.00    +0.000 A 
ATOM     25  C   UNL     1       2.638   2.789  17.753  0.00  0.00    +0.000 A 
ATOM     26  C   UNL     1       3.853   2.836  17.075  0.00  0.00    +0.000 A 
ATOM     27  C   UNL     1       4.565   4.028  17.036  0.00  0.00    +0.000 A 
ATOM     28 CL   UNL     1       6.061   4.107  16.187  0.00  0.00    +0.000 Cl
ATOM     29  C   UNL     1       4.077   5.165  17.681  0.00  0.00    +0.000 A 
ENDBRANCH  20  23
ENDBRANCH   2  17
TORSDOF 2
ENDMDL
MODEL 9
REMARK VINA RESULT:      -7.8      1.526      2.042
REMARK  Name = 
REMARK  2 active torsions:
REMARK  status: ('A' for Active; 'I' for Inactive)
REMARK    1  A    between atoms: C_2  and  C_3
REMARK    2  A    between atoms: C_6  and  C_7
REMARK                            x       y       z     vdW  Elec       q    Type
REMARK                         _______ _______ _______ _____ _____    ______ ____
ROOT
ATOM      1  O   UNL     1      -2.396  11.669  18.900  0.00  0.00    +0.000 OA
ATOM      2  C   UNL     1      -1.309  11.728  19.471  0.00  0.00    +0.000 C 
ATOM      3  N   UNL     1      -0.924  12.782  20.309  0.00  0.00    +0.000 N 
ATOM      4  C   UNL     1      -1.892  13.865  20.587  0.00  0.00    +0.000 C 
ATOM      5  C   UNL     1      -1.285  15.289  20.404  0.00  0.00    +0.000 C 
ATOM      6  C   UNL     1      -0.528  15.769  21.674  0.00  0.00    +0.000 C 
ATOM      7  C   UNL     1       0.949  15.425  21.428  0.00  0.00    +0.000 C 
ATOM      8  C   UNL     1       0.899  14.551  20.174  0.00  0.00    +0.000 C 
ATOM      9  C   UNL     1       0.489  13.108  20.593  0.00  0.00    +0.000 C 
ATOM     10  N   UNL     1      -0.203  15.163  19.414  0.00  0.00    +0.000 N 
ATOM     11  C   UNL     1       0.089  16.286  18.666  0.00  0.00    +0.000 A 
ATOM     12  N   UNL     1       1.348  16.460  18.231  0.00  0.00    +0.000 NA
ATOM     13  C   UNL     1       1.612  17.567  17.512  0.00  0.00    +0.000 A 
ATOM     14  C   UNL     1       0.667  18.513  17.206  0.00  0.00    +0.000 A 
ATOM     15  C   UNL     1      -0.588  18.253  17.685  0.00  0.00    +0.000 A 
ATOM     16  N   UNL     1      -0.895  17.162  18.409  0.00  0.00    +0.000 NA
ENDROOT
BRANCH   2  17
ATOM     17  C   UNL     1      -0.363  10.593  19.277  0.00  0.00    +0.000 A 
ATOM     18  C   UNL     1       0.097  10.272  18.001  0.00  0.00    +0.000 A 
ATOM     19  C   UNL     1       1.037   9.242  17.834  0.00  0.00    +0.000 A 
ATOM     20  C   UNL     1       1.560   8.533  18.935  0.00  0.00    +0.000 A 
ATOM     21  C   UNL     1       1.058   8.869  20.205  0.00  0.00    +0.000 A 
ATOM     22  C   UNL     1       0.072   9.840  20.368  0.00  0.00    +0.000 A 
BRANCH  20  23
ATOM     23  C   UNL     1       2.577   7.463  18.779  0.00  0.00    +0.000 A 
ATOM     24  C   UNL     1       2.737   6.442  19.735  0.00  0.00    +0.000 A 
ATOM     25  C   UNL     1       3.711   5.447  19.586  0.00  0.00    +0.000 A 
ATOM     26  C   UNL     1       4.537   5.437  18.466  0.00  0.00    +0.000 A 
ATOM     27  C   UNL     1       4.388   6.426  17.502  0.00  0.00    +0.000 A 
ATOM     28 CL   UNL     1       5.390   6.418  16.102  0.00  0.00    +0.000 Cl
ATOM     29  C   UNL     1       3.430   7.428  17.658  0.00  0.00    +0.000 A 
ENDBRANCH  20  23
ENDBRANCH   2  17
TORSDOF 2
ENDMDL
