MODEL 1
REMARK VINA RESULT:      -8.6      0.000      0.000
REMARK  Name = 
REMARK  8 active torsions:
REMARK  status: ('A' for Active; 'I' for Inactive)
REMARK    1  A    between atoms: C_1  and  C_2
REMARK    2  A    between atoms: C_5  and  C_6
REMARK    3  A    between atoms: C_6  and  C_7
REMARK    4  A    between atoms: C_8  and  C_9
REMARK    5  A    between atoms: C_12  and  N_13
REMARK    6  A    between atoms: N_13  and  C_14
REMARK    7  A    between atoms: N_13  and  C_15
REMARK    8  A    between atoms: N_18  and  N_19
REMARK                            x       y       z     vdW  Elec       q    Type
REMARK                         _______ _______ _______ _____ _____    ______ ____
ROOT
ATOM      1  C   UNL     1       7.118   6.384  17.449  0.00  0.00    +0.000 C 
ATOM      2  N   UNL     1       7.674   5.823  16.404  0.00  0.00    +0.000 NA
ENDROOT
BRANCH   2   3
ATOM      3  N   UNL     1       6.979   4.920  15.653  0.00  0.00    +0.000 N 
ATOM      4  C   UNL     1       7.124   4.822  14.300  0.00  0.00    +0.000 C 
ATOM      5  N   UNL     1       7.929   5.532  13.586  0.00  0.00    +0.000 NA
ATOM      6  N   UNL     1       6.364   3.871  13.715  0.00  0.00    +0.000 N 
ATOM      7  H   UNL     1       6.046   4.665  15.966  0.00  0.00    +0.000 HD
ATOM      8  H   UNL     1       8.370   6.162  14.273  0.00  0.00    +0.000 HD
ATOM      9  H   UNL     1       6.464   2.966  14.156  0.00  0.00    +0.000 HD
ATOM     10  H   UNL     1       6.636   3.804  12.737  0.00  0.00    +0.000 HD
ENDBRANCH   2   3
BRANCH   1  15
ATOM     11  C   UNL     1       1.850   4.896  19.543  0.00  0.00    +0.000 C 
ATOM     12  C   UNL     1       3.199   5.319  19.037  0.00  0.00    +0.000 A 
ATOM     13  C   UNL     1       3.326   6.317  18.067  0.00  0.00    +0.000 A 
ATOM     14  C   UNL     1       4.586   6.672  17.558  0.00  0.00    +0.000 A 
ATOM     15  C   UNL     1       5.754   6.053  18.023  0.00  0.00    +0.000 A 
ATOM     16  C   UNL     1       5.622   5.093  19.041  0.00  0.00    +0.000 A 
ATOM     17  C   UNL     1       4.360   4.712  19.524  0.00  0.00    +0.000 A 
ENDBRANCH   1  15
BRANCH   1  18
ATOM     18  C   UNL     1       7.883   7.500  18.124  0.00  0.00    +0.000 C 
ATOM     19  C   UNL     1       7.914   8.742  17.606  0.00  0.00    +0.000 C 
BRANCH  19  20
ATOM     20  C   UNL     1       8.572   9.908  18.231  0.00  0.00    +0.000 A 
ATOM     21  C   UNL     1       8.456  11.164  17.634  0.00  0.00    +0.000 A 
ATOM     22  C   UNL     1       9.044  12.305  18.208  0.00  0.00    +0.000 A 
ATOM     23  C   UNL     1       9.768  12.255  19.410  0.00  0.00    +0.000 A 
ATOM     24  C   UNL     1       9.841  10.988  20.017  0.00  0.00    +0.000 A 
ATOM     25  C   UNL     1       9.251   9.842  19.448  0.00  0.00    +0.000 A 
BRANCH  23  26
ATOM     26  N   UNL     1      10.385  13.371  19.955  0.00  0.00    +0.000 N 
ATOM     27  C   UNL     1      11.632  13.921  19.433  0.00  0.00    +0.000 C 
ATOM     28  C   UNL     1       9.890  14.020  21.166  0.00  0.00    +0.000 C 
ENDBRANCH  23  26
ENDBRANCH  19  20
ENDBRANCH   1  18
TORSDOF 5
ENDMDL
MODEL 2
REMARK VINA RESULT:      -8.6      0.194      1.392
REMARK  Name = 
REMARK  8 active torsions:
REMARK  status: ('A' for Active; 'I' for Inactive)
REMARK    1  A    between atoms: C_1  and  C_2
REMARK    2  A    between atoms: C_5  and  C_6
REMARK    3  A    between atoms: C_6  and  C_7
REMARK    4  A    between atoms: C_8  and  C_9
REMARK    5  A    between atoms: C_12  and  N_13
REMARK    6  A    between atoms: N_13  and  C_14
REMARK    7  A    between atoms: N_13  and  C_15
REMARK    8  A    between atoms: N_18  and  N_19
REMARK                            x       y       z     vdW  Elec       q    Type
REMARK                         _______ _______ _______ _____ _____    ______ ____
ROOT
ATOM      1  C   UNL     1       7.060   6.510  17.386  0.00  0.00    +0.000 C 
ATOM      2  N   UNL     1       7.594   5.994  16.307  0.00  0.00    +0.000 NA
ENDROOT
BRANCH   2   3
ATOM      3  N   UNL     1       6.893   5.100  15.550  0.00  0.00    +0.000 N 
ATOM      4  C   UNL     1       7.110   4.938  14.213  0.00  0.00    +0.000 C 
ATOM      5  N   UNL     1       7.993   5.573  13.522  0.00  0.00    +0.000 NA
ATOM      6  N   UNL     1       6.333   4.006  13.620  0.00  0.00    +0.000 N 
ATOM      7  H   UNL     1       5.930   4.909  15.816  0.00  0.00    +0.000 HD
ATOM      8  H   UNL     1       8.429   6.207  14.210  0.00  0.00    +0.000 HD
ATOM      9  H   UNL     1       6.357   3.116  14.100  0.00  0.00    +0.000 HD
ATOM     10  H   UNL     1       6.657   3.885  12.663  0.00  0.00    +0.000 HD
ENDBRANCH   2   3
BRANCH   1  15
ATOM     11  C   UNL     1       1.896   5.250  19.855  0.00  0.00    +0.000 C 
ATOM     12  C   UNL     1       3.215   5.530  19.194  0.00  0.00    +0.000 A 
ATOM     13  C   UNL     1       4.378   4.864  19.591  0.00  0.00    +0.000 A 
ATOM     14  C   UNL     1       5.618   5.168  19.006  0.00  0.00    +0.000 A 
ATOM     15  C   UNL     1       5.723   6.131  17.993  0.00  0.00    +0.000 A 
ATOM     16  C   UNL     1       4.540   6.752  17.559  0.00  0.00    +0.000 A 
ATOM     17  C   UNL     1       3.305   6.474  18.168  0.00  0.00    +0.000 A 
ENDBRANCH   1  15
BRANCH   1  18
ATOM     18  C   UNL     1       7.823   7.621  18.072  0.00  0.00    +0.000 C 
ATOM     19  C   UNL     1       7.858   8.866  17.561  0.00  0.00    +0.000 C 
BRANCH  19  20
ATOM     20  C   UNL     1       8.514  10.027  18.196  0.00  0.00    +0.000 A 
ATOM     21  C   UNL     1       9.256   9.843  19.364  0.00  0.00    +0.000 A 
ATOM     22  C   UNL     1       9.919  10.915  19.988  0.00  0.00    +0.000 A 
ATOM     23  C   UNL     1       9.884  12.222  19.476  0.00  0.00    +0.000 A 
ATOM     24  C   UNL     1       9.164  12.380  18.277  0.00  0.00    +0.000 A 
ATOM     25  C   UNL     1       8.501  11.310  17.646  0.00  0.00    +0.000 A 
BRANCH  23  26
ATOM     26  N   UNL     1      10.501  13.288  20.112  0.00  0.00    +0.000 N 
ATOM     27  C   UNL     1      11.749  13.878  19.639  0.00  0.00    +0.000 C 
ATOM     28  C   UNL     1      10.005  13.835  21.373  0.00  0.00    +0.000 C 
ENDBRANCH  23  26
ENDBRANCH  19  20
ENDBRANCH   1  18
TORSDOF 5
ENDMDL
MODEL 3
REMARK VINA RESULT:      -8.1      0.761      1.395
REMARK  Name = 
REMARK  8 active torsions:
REMARK  status: ('A' for Active; 'I' for Inactive)
REMARK    1  A    between atoms: C_1  and  C_2
REMARK    2  A    between atoms: C_5  and  C_6
REMARK    3  A    between atoms: C_6  and  C_7
REMARK    4  A    between atoms: C_8  and  C_9
REMARK    5  A    between atoms: C_12  and  N_13
REMARK    6  A    between atoms: N_13  and  C_14
REMARK    7  A    between atoms: N_13  and  C_15
REMARK    8  A    between atoms: N_18  and  N_19
REMARK                            x       y       z     vdW  Elec       q    Type
REMARK                         _______ _______ _______ _____ _____    ______ ____
ROOT
ATOM      1  C   UNL     1       6.916   6.774  17.275  0.00  0.00    +0.000 C 
ATOM      2  N   UNL     1       7.715   6.123  16.467  0.00  0.00    +0.000 NA
ENDROOT
BRANCH   2   3
ATOM      3  N   UNL     1       7.373   4.884  16.008  0.00  0.00    +0.000 N 
ATOM      4  C   UNL     1       6.581   4.697  14.913  0.00  0.00    +0.000 C 
ATOM      5  N   UNL     1       6.090   5.638  14.183  0.00  0.00    +0.000 NA
ATOM      6  N   UNL     1       6.348   3.405  14.595  0.00  0.00    +0.000 N 
ATOM      7  H   UNL     1       7.278   4.137  16.692  0.00  0.00    +0.000 HD
ATOM      8  H   UNL     1       6.418   6.500  14.646  0.00  0.00    +0.000 HD
ATOM      9  H   UNL     1       7.198   2.862  14.522  0.00  0.00    +0.000 HD
ATOM     10  H   UNL     1       5.853   3.382  13.706  0.00  0.00    +0.000 HD
ENDBRANCH   2   3
BRANCH   1  15
ATOM     11  C   UNL     1       1.933   4.930  19.749  0.00  0.00    +0.000 C 
ATOM     12  C   UNL     1       3.212   5.358  19.089  0.00  0.00    +0.000 A 
ATOM     13  C   UNL     1       4.448   4.886  19.537  0.00  0.00    +0.000 A 
ATOM     14  C   UNL     1       5.645   5.330  18.950  0.00  0.00    +0.000 A 
ATOM     15  C   UNL     1       5.634   6.242  17.886  0.00  0.00    +0.000 A 
ATOM     16  C   UNL     1       4.384   6.665  17.404  0.00  0.00    +0.000 A 
ATOM     17  C   UNL     1       3.189   6.250  18.013  0.00  0.00    +0.000 A 
ENDBRANCH   1  15
BRANCH   1  18
ATOM     18  C   UNL     1       7.276   8.206  17.599  0.00  0.00    +0.000 C 
ATOM     19  C   UNL     1       8.397   8.509  18.280  0.00  0.00    +0.000 C 
BRANCH  19  20
ATOM     20  C   UNL     1       8.866   9.878  18.579  0.00  0.00    +0.000 A 
ATOM     21  C   UNL     1       8.587  10.911  17.682  0.00  0.00    +0.000 A 
ATOM     22  C   UNL     1       8.992  12.233  17.939  0.00  0.00    +0.000 A 
ATOM     23  C   UNL     1       9.685  12.596  19.104  0.00  0.00    +0.000 A 
ATOM     24  C   UNL     1       9.922  11.548  20.014  0.00  0.00    +0.000 A 
ATOM     25  C   UNL     1       9.516  10.223  19.764  0.00  0.00    +0.000 A 
BRANCH  23  26
ATOM     26  N   UNL     1      10.122  13.890  19.339  0.00  0.00    +0.000 N 
ATOM     27  C   UNL     1      10.077  14.514  20.658  0.00  0.00    +0.000 C 
ATOM     28  C   UNL     1      10.561  14.771  18.260  0.00  0.00    +0.000 C 
ENDBRANCH  23  26
ENDBRANCH  19  20
ENDBRANCH   1  18
TORSDOF 5
ENDMDL
MODEL 4
REMARK VINA RESULT:      -8.0      5.533      6.946
REMARK  Name = 
REMARK  8 active torsions:
REMARK  status: ('A' for Active; 'I' for Inactive)
REMARK    1  A    between atoms: C_1  and  C_2
REMARK    2  A    between atoms: C_5  and  C_6
REMARK    3  A    between atoms: C_6  and  C_7
REMARK    4  A    between atoms: C_8  and  C_9
REMARK    5  A    between atoms: C_12  and  N_13
REMARK    6  A    between atoms: N_13  and  C_14
REMARK    7  A    between atoms: N_13  and  C_15
REMARK    8  A    between atoms: N_18  and  N_19
REMARK                            x       y       z     vdW  Elec       q    Type
REMARK                         _______ _______ _______ _____ _____    ______ ____
ROOT
ATOM      1  C   UNL     1       4.070   4.921  18.635  0.00  0.00    +0.000 C 
ATOM      2  N   UNL     1       3.742   3.899  19.385  0.00  0.00    +0.000 NA
ENDROOT
BRANCH   2   3
ATOM      3  N   UNL     1       4.294   2.671  19.160  0.00  0.00    +0.000 N 
ATOM      4  C   UNL     1       3.593   1.639  18.609  0.00  0.00    +0.000 C 
ATOM      5  N   UNL     1       2.366   1.699  18.221  0.00  0.00    +0.000 NA
ATOM      6  N   UNL     1       4.295   0.496  18.451  0.00  0.00    +0.000 N 
ATOM      7  H   UNL     1       5.017   2.355  19.801  0.00  0.00    +0.000 HD
ATOM      8  H   UNL     1       2.083   2.663  18.457  0.00  0.00    +0.000 HD
ATOM      9  H   UNL     1       5.170   0.640  17.964  0.00  0.00    +0.000 HD
ATOM     10  H   UNL     1       3.719  -0.161  17.929  0.00  0.00    +0.000 HD
ENDBRANCH   2   3
BRANCH   1  15
ATOM     11  C   UNL     1       7.444   4.996  13.843  0.00  0.00    +0.000 C 
ATOM     12  C   UNL     1       6.595   4.928  15.081  0.00  0.00    +0.000 A 
ATOM     13  C   UNL     1       5.365   4.267  15.077  0.00  0.00    +0.000 A 
ATOM     14  C   UNL     1       4.551   4.253  16.221  0.00  0.00    +0.000 A 
ATOM     15  C   UNL     1       4.957   4.881  17.406  0.00  0.00    +0.000 A 
ATOM     16  C   UNL     1       6.223   5.492  17.418  0.00  0.00    +0.000 A 
ATOM     17  C   UNL     1       7.022   5.538  16.264  0.00  0.00    +0.000 A 
ENDBRANCH   1  15
BRANCH   1  18
ATOM     18  C   UNL     1       3.556   6.280  19.053  0.00  0.00    +0.000 C 
ATOM     19  C   UNL     1       2.618   6.926  18.335  0.00  0.00    +0.000 C 
BRANCH  19  20
ATOM     20  C   UNL     1       2.006   8.218  18.703  0.00  0.00    +0.000 A 
ATOM     21  C   UNL     1       1.443   8.376  19.971  0.00  0.00    +0.000 A 
ATOM     22  C   UNL     1       0.872   9.597  20.373  0.00  0.00    +0.000 A 
ATOM     23  C   UNL     1       0.842  10.725  19.538  0.00  0.00    +0.000 A 
ATOM     24  C   UNL     1       1.449  10.559  18.279  0.00  0.00    +0.000 A 
ATOM     25  C   UNL     1       2.025   9.340  17.873  0.00  0.00    +0.000 A 
BRANCH  23  26
ATOM     26  N   UNL     1       0.242  11.916  19.916  0.00  0.00    +0.000 N 
ATOM     27  C   UNL     1       0.320  12.445  21.274  0.00  0.00    +0.000 C 
ATOM     28  C   UNL     1      -0.609  12.681  19.009  0.00  0.00    +0.000 C 
ENDBRANCH  23  26
ENDBRANCH  19  20
ENDBRANCH   1  18
TORSDOF 5
ENDMDL
MODEL 5
REMARK VINA RESULT:      -7.9      5.622      7.106
REMARK  Name = 
REMARK  8 active torsions:
REMARK  status: ('A' for Active; 'I' for Inactive)
REMARK    1  A    between atoms: C_1  and  C_2
REMARK    2  A    between atoms: C_5  and  C_6
REMARK    3  A    between atoms: C_6  and  C_7
REMARK    4  A    between atoms: C_8  and  C_9
REMARK    5  A    between atoms: C_12  and  N_13
REMARK    6  A    between atoms: N_13  and  C_14
REMARK    7  A    between atoms: N_13  and  C_15
REMARK    8  A    between atoms: N_18  and  N_19
REMARK                            x       y       z     vdW  Elec       q    Type
REMARK                         _______ _______ _______ _____ _____    ______ ____
ROOT
ATOM      1  C   UNL     1       3.682   4.827  19.097  0.00  0.00    +0.000 C 
ATOM      2  N   UNL     1       3.428   3.749  19.797  0.00  0.00    +0.000 NA
ENDROOT
BRANCH   2   3
ATOM      3  N   UNL     1       4.098   2.588  19.544  0.00  0.00    +0.000 N 
ATOM      4  C   UNL     1       3.562   1.574  18.807  0.00  0.00    +0.000 C 
ATOM      5  N   UNL     1       2.399   1.594  18.253  0.00  0.00    +0.000 NA
ATOM      6  N   UNL     1       4.365   0.498  18.651  0.00  0.00    +0.000 N 
ATOM      7  H   UNL     1       4.749   2.255  20.252  0.00  0.00    +0.000 HD
ATOM      8  H   UNL     1       2.013   2.509  18.531  0.00  0.00    +0.000 HD
ATOM      9  H   UNL     1       5.285   0.745  18.310  0.00  0.00    +0.000 HD
ATOM     10  H   UNL     1       3.919  -0.138  17.994  0.00  0.00    +0.000 HD
ENDBRANCH   2   3
BRANCH   1  15
ATOM     11  C   UNL     1       7.301   4.944  14.488  0.00  0.00    +0.000 C 
ATOM     12  C   UNL     1       6.361   4.963  15.659  0.00  0.00    +0.000 A 
ATOM     13  C   UNL     1       6.732   5.548  16.872  0.00  0.00    +0.000 A 
ATOM     14  C   UNL     1       5.870   5.516  17.980  0.00  0.00    +0.000 A 
ATOM     15  C   UNL     1       4.605   4.917  17.897  0.00  0.00    +0.000 A 
ATOM     16  C   UNL     1       4.218   4.385  16.656  0.00  0.00    +0.000 A 
ATOM     17  C   UNL     1       5.093   4.384  15.557  0.00  0.00    +0.000 A 
ENDBRANCH   1  15
BRANCH   1  18
ATOM     18  C   UNL     1       3.031   6.114  19.548  0.00  0.00    +0.000 C 
ATOM     19  C   UNL     1       2.575   7.017  18.659  0.00  0.00    +0.000 C 
BRANCH  19  20
ATOM     20  C   UNL     1       1.863   8.265  19.004  0.00  0.00    +0.000 A 
ATOM     21  C   UNL     1       1.552   9.180  17.997  0.00  0.00    +0.000 A 
ATOM     22  C   UNL     1       0.853  10.368  18.276  0.00  0.00    +0.000 A 
ATOM     23  C   UNL     1       0.420  10.700  19.569  0.00  0.00    +0.000 A 
ATOM     24  C   UNL     1       0.708   9.748  20.564  0.00  0.00    +0.000 A 
ATOM     25  C   UNL     1       1.404   8.555  20.290  0.00  0.00    +0.000 A 
BRANCH  23  26
ATOM     26  N   UNL     1      -0.231  11.890  19.854  0.00  0.00    +0.000 N 
ATOM     27  C   UNL     1      -1.265  12.002  20.879  0.00  0.00    +0.000 C 
ATOM     28  C   UNL     1      -0.010  13.105  19.073  0.00  0.00    +0.000 C 
ENDBRANCH  23  26
ENDBRANCH  19  20
ENDBRANCH   1  18
TORSDOF 5
ENDMDL
MODEL 6
REMARK VINA RESULT:      -7.9      0.770      1.530
REMARK  Name = 
REMARK  8 active torsions:
REMARK  status: ('A' for Active; 'I' for Inactive)
REMARK    1  A    between atoms: C_1  and  C_2
REMARK    2  A    between atoms: C_5  and  C_6
REMARK    3  A    between atoms: C_6  and  C_7
REMARK    4  A    between atoms: C_8  and  C_9
REMARK    5  A    between atoms: C_12  and  N_13
REMARK    6  A    between atoms: N_13  and  C_14
REMARK    7  A    between atoms: N_13  and  C_15
REMARK    8  A    between atoms: N_18  and  N_19
REMARK                            x       y       z     vdW  Elec       q    Type
REMARK                         _______ _______ _______ _____ _____    ______ ____
ROOT
ATOM      1  C   UNL     1       6.977   7.088  17.404  0.00  0.00    +0.000 C 
ATOM      2  N   UNL     1       7.601   6.710  16.316  0.00  0.00    +0.000 NA
ENDROOT
BRANCH   2   3
ATOM      3  N   UNL     1       7.023   5.817  15.463  0.00  0.00    +0.000 N 
ATOM      4  C   UNL     1       7.117   4.467  15.635  0.00  0.00    +0.000 C 
ATOM      5  N   UNL     1       7.725   3.884  16.611  0.00  0.00    +0.000 NA
ATOM      6  N   UNL     1       6.480   3.728  14.700  0.00  0.00    +0.000 N 
ATOM      7  H   UNL     1       6.946   6.081  14.483  0.00  0.00    +0.000 HD
ATOM      8  H   UNL     1       8.113   4.668  17.158  0.00  0.00    +0.000 HD
ATOM      9  H   UNL     1       5.517   4.010  14.571  0.00  0.00    +0.000 HD
ATOM     10  H   UNL     1       6.513   2.753  14.989  0.00  0.00    +0.000 HD
ENDBRANCH   2   3
BRANCH   1  15
ATOM     11  C   UNL     1       1.927   4.759  19.257  0.00  0.00    +0.000 C 
ATOM     12  C   UNL     1       3.213   5.397  18.813  0.00  0.00    +0.000 A 
ATOM     13  C   UNL     1       3.220   6.428  17.871  0.00  0.00    +0.000 A 
ATOM     14  C   UNL     1       4.428   6.984  17.420  0.00  0.00    +0.000 A 
ATOM     15  C   UNL     1       5.660   6.537  17.917  0.00  0.00    +0.000 A 
ATOM     16  C   UNL     1       5.640   5.541  18.907  0.00  0.00    +0.000 A 
ATOM     17  C   UNL     1       4.435   4.959  19.333  0.00  0.00    +0.000 A 
ENDBRANCH   1  15
BRANCH   1  18
ATOM     18  C   UNL     1       7.599   8.208  18.206  0.00  0.00    +0.000 C 
ATOM     19  C   UNL     1       8.217   9.241  17.604  0.00  0.00    +0.000 C 
BRANCH  19  20
ATOM     20  C   UNL     1       8.789  10.412  18.300  0.00  0.00    +0.000 A 
ATOM     21  C   UNL     1       9.441  10.235  19.521  0.00  0.00    +0.000 A 
ATOM     22  C   UNL     1      10.022  11.318  20.206  0.00  0.00    +0.000 A 
ATOM     23  C   UNL     1       9.992  12.629  19.704  0.00  0.00    +0.000 A 
ATOM     24  C   UNL     1       9.365  12.781  18.453  0.00  0.00    +0.000 A 
ATOM     25  C   UNL     1       8.785  11.700  17.762  0.00  0.00    +0.000 A 
BRANCH  23  26
ATOM     26  N   UNL     1      10.526  13.704  20.397  0.00  0.00    +0.000 N 
ATOM     27  C   UNL     1       9.952  14.209  21.640  0.00  0.00    +0.000 C 
ATOM     28  C   UNL     1      11.645  14.486  19.878  0.00  0.00    +0.000 C 
ENDBRANCH  23  26
ENDBRANCH  19  20
ENDBRANCH   1  18
TORSDOF 5
ENDMDL
MODEL 7
REMARK VINA RESULT:      -7.9      5.562      7.060
REMARK  Name = 
REMARK  8 active torsions:
REMARK  status: ('A' for Active; 'I' for Inactive)
REMARK    1  A    between atoms: C_1  and  C_2
REMARK    2  A    between atoms: C_5  and  C_6
REMARK    3  A    between atoms: C_6  and  C_7
REMARK    4  A    between atoms: C_8  and  C_9
REMARK    5  A    between atoms: C_12  and  N_13
REMARK    6  A    between atoms: N_13  and  C_14
REMARK    7  A    between atoms: N_13  and  C_15
REMARK    8  A    between atoms: N_18  and  N_19
REMARK                            x       y       z     vdW  Elec       q    Type
REMARK                         _______ _______ _______ _____ _____    ______ ____
ROOT
ATOM      1  C   UNL     1       3.805   4.929  18.930  0.00  0.00    +0.000 C 
ATOM      2  N   UNL     1       3.538   3.864  19.643  0.00  0.00    +0.000 NA
ENDROOT
BRANCH   2   3
ATOM      3  N   UNL     1       4.167   2.681  19.382  0.00  0.00    +0.000 N 
ATOM      4  C   UNL     1       3.551   1.646  18.743  0.00  0.00    +0.000 C 
ATOM      5  N   UNL     1       2.342   1.662  18.297  0.00  0.00    +0.000 NA
ATOM      6  N   UNL     1       4.322   0.551  18.560  0.00  0.00    +0.000 N 
ATOM      7  H   UNL     1       4.876   2.368  20.041  0.00  0.00    +0.000 HD
ATOM      8  H   UNL     1       1.996   2.595  18.570  0.00  0.00    +0.000 HD
ATOM      9  H   UNL     1       5.209   0.768  18.126  0.00  0.00    +0.000 HD
ATOM     10  H   UNL     1       3.808  -0.105  17.976  0.00  0.00    +0.000 HD
ENDBRANCH   2   3
BRANCH   1  15
ATOM     11  C   UNL     1       7.319   4.915  14.239  0.00  0.00    +0.000 C 
ATOM     12  C   UNL     1       6.404   4.967  15.429  0.00  0.00    +0.000 A 
ATOM     13  C   UNL     1       6.780   5.629  16.600  0.00  0.00    +0.000 A 
ATOM     14  C   UNL     1       5.943   5.630  17.728  0.00  0.00    +0.000 A 
ATOM     15  C   UNL     1       4.699   4.985  17.706  0.00  0.00    +0.000 A 
ATOM     16  C   UNL     1       4.304   4.372  16.504  0.00  0.00    +0.000 A 
ATOM     17  C   UNL     1       5.155   4.341  15.388  0.00  0.00    +0.000 A 
ENDBRANCH   1  15
BRANCH   1  18
ATOM     18  C   UNL     1       3.204   6.238  19.388  0.00  0.00    +0.000 C 
ATOM     19  C   UNL     1       2.590   7.068  18.524  0.00  0.00    +0.000 C 
BRANCH  19  20
ATOM     20  C   UNL     1       1.914   8.329  18.892  0.00  0.00    +0.000 A 
ATOM     21  C   UNL     1       1.419   8.491  20.187  0.00  0.00    +0.000 A 
ATOM     22  C   UNL     1       0.790   9.684  20.588  0.00  0.00    +0.000 A 
ATOM     23  C   UNL     1       0.633  10.778  19.723  0.00  0.00    +0.000 A 
ATOM     24  C   UNL     1       1.173  10.611  18.434  0.00  0.00    +0.000 A 
ATOM     25  C   UNL     1       1.806   9.420  18.029  0.00  0.00    +0.000 A 
BRANCH  23  26
ATOM     26  N   UNL     1      -0.023  11.939  20.102  0.00  0.00    +0.000 N 
ATOM     27  C   UNL     1      -0.757  12.059  21.359  0.00  0.00    +0.000 C 
ATOM     28  C   UNL     1      -0.124  13.100  19.222  0.00  0.00    +0.000 C 
ENDBRANCH  23  26
ENDBRANCH  19  20
ENDBRANCH   1  18
TORSDOF 5
ENDMDL
MODEL 8
REMARK VINA RESULT:      -7.9      5.561      6.839
REMARK  Name = 
REMARK  8 active torsions:
REMARK  status: ('A' for Active; 'I' for Inactive)
REMARK    1  A    between atoms: C_1  and  C_2
REMARK    2  A    between atoms: C_5  and  C_6
REMARK    3  A    between atoms: C_6  and  C_7
REMARK    4  A    between atoms: C_8  and  C_9
REMARK    5  A    between atoms: C_12  and  N_13
REMARK    6  A    between atoms: N_13  and  C_14
REMARK    7  A    between atoms: N_13  and  C_15
REMARK    8  A    between atoms: N_18  and  N_19
REMARK                            x       y       z     vdW  Elec       q    Type
REMARK                         _______ _______ _______ _____ _____    ______ ____
ROOT
ATOM      1  C   UNL     1       4.225   4.943  18.469  0.00  0.00    +0.000 C 
ATOM      2  N   UNL     1       3.885   3.941  19.242  0.00  0.00    +0.000 NA
ENDROOT
BRANCH   2   3
ATOM      3  N   UNL     1       4.388   2.693  19.016  0.00  0.00    +0.000 N 
ATOM      4  C   UNL     1       3.627   1.668  18.538  0.00  0.00    +0.000 C 
ATOM      5  N   UNL     1       2.379   1.753  18.225  0.00  0.00    +0.000 NA
ATOM      6  N   UNL     1       4.286   0.501  18.368  0.00  0.00    +0.000 N 
ATOM      7  H   UNL     1       5.142   2.372  19.619  0.00  0.00    +0.000 HD
ATOM      8  H   UNL     1       2.139   2.730  18.452  0.00  0.00    +0.000 HD
ATOM      9  H   UNL     1       5.131   0.607  17.823  0.00  0.00    +0.000 HD
ATOM     10  H   UNL     1       3.660  -0.152  17.900  0.00  0.00    +0.000 HD
ENDBRANCH   2   3
BRANCH   1  15
ATOM     11  C   UNL     1       7.471   4.849  13.589  0.00  0.00    +0.000 C 
ATOM     12  C   UNL     1       6.650   4.823  14.847  0.00  0.00    +0.000 A 
ATOM     13  C   UNL     1       5.357   4.295  14.854  0.00  0.00    +0.000 A 
ATOM     14  C   UNL     1       4.574   4.321  16.020  0.00  0.00    +0.000 A 
ATOM     15  C   UNL     1       5.073   4.857  17.215  0.00  0.00    +0.000 A 
ATOM     16  C   UNL     1       6.396   5.332  17.213  0.00  0.00    +0.000 A 
ATOM     17  C   UNL     1       7.167   5.339  16.039  0.00  0.00    +0.000 A 
ENDBRANCH   1  15
BRANCH   1  18
ATOM     18  C   UNL     1       3.771   6.323  18.885  0.00  0.00    +0.000 C 
ATOM     19  C   UNL     1       2.562   6.799  18.531  0.00  0.00    +0.000 C 
BRANCH  19  20
ATOM     20  C   UNL     1       2.005   8.101  18.949  0.00  0.00    +0.000 A 
ATOM     21  C   UNL     1       1.960   9.155  18.034  0.00  0.00    +0.000 A 
ATOM     22  C   UNL     1       1.415  10.404  18.382  0.00  0.00    +0.000 A 
ATOM     23  C   UNL     1       0.878  10.664  19.652  0.00  0.00    +0.000 A 
ATOM     24  C   UNL     1       0.896   9.578  20.548  0.00  0.00    +0.000 A 
ATOM     25  C   UNL     1       1.437   8.324  20.204  0.00  0.00    +0.000 A 
BRANCH  23  26
ATOM     26  N   UNL     1       0.379  11.907  20.011  0.00  0.00    +0.000 N 
ATOM     27  C   UNL     1       0.276  13.019  19.071  0.00  0.00    +0.000 C 
ATOM     28  C   UNL     1       0.019  12.234  21.388  0.00  0.00    +0.000 C 
ENDBRANCH  23  26
ENDBRANCH  19  20
ENDBRANCH   1  18
TORSDOF 5
ENDMDL
MODEL 9
REMARK VINA RESULT:      -7.7      5.563      7.078
REMARK  Name = 
REMARK  8 active torsions:
REMARK  status: ('A' for Active; 'I' for Inactive)
REMARK    1  A    between atoms: C_1  and  C_2
REMARK    2  A    between atoms: C_5  and  C_6
REMARK    3  A    between atoms: C_6  and  C_7
REMARK    4  A    between atoms: C_8  and  C_9
REMARK    5  A    between atoms: C_12  and  N_13
REMARK    6  A    between atoms: N_13  and  C_14
REMARK    7  A    between atoms: N_13  and  C_15
REMARK    8  A    between atoms: N_18  and  N_19
REMARK                            x       y       z     vdW  Elec       q    Type
REMARK                         _______ _______ _______ _____ _____    ______ ____
ROOT
ATOM      1  C   UNL     1       4.102   4.929  18.690  0.00  0.00    +0.000 C 
ATOM      2  N   UNL     1       3.776   3.918  19.456  0.00  0.00    +0.000 NA
ENDROOT
BRANCH   2   3
ATOM      3  N   UNL     1       4.315   2.683  19.238  0.00  0.00    +0.000 N 
ATOM      4  C   UNL     1       3.614   1.666  18.659  0.00  0.00    +0.000 C 
ATOM      5  N   UNL     1       2.399   1.748  18.236  0.00  0.00    +0.000 NA
ATOM      6  N   UNL     1       4.302   0.513  18.512  0.00  0.00    +0.000 N 
ATOM      7  H   UNL     1       5.015   2.350  19.896  0.00  0.00    +0.000 HD
ATOM      8  H   UNL     1       2.126   2.715  18.472  0.00  0.00    +0.000 HD
ATOM      9  H   UNL     1       5.192   0.647  18.051  0.00  0.00    +0.000 HD
ATOM     10  H   UNL     1       3.731  -0.130  17.969  0.00  0.00    +0.000 HD
ENDBRANCH   2   3
BRANCH   1  15
ATOM     11  C   UNL     1       7.420   4.924  13.858  0.00  0.00    +0.000 C 
ATOM     12  C   UNL     1       6.582   4.875  15.104  0.00  0.00    +0.000 A 
ATOM     13  C   UNL     1       5.310   4.298  15.097  0.00  0.00    +0.000 A 
ATOM     14  C   UNL     1       4.510   4.303  16.251  0.00  0.00    +0.000 A 
ATOM     15  C   UNL     1       4.971   4.867  17.448  0.00  0.00    +0.000 A 
ATOM     16  C   UNL     1       6.274   5.392  17.462  0.00  0.00    +0.000 A 
ATOM     17  C   UNL     1       7.061   5.419  16.299  0.00  0.00    +0.000 A 
ENDBRANCH   1  15
BRANCH   1  18
ATOM     18  C   UNL     1       3.605   6.296  19.099  0.00  0.00    +0.000 C 
ATOM     19  C   UNL     1       2.354   6.477  19.563  0.00  0.00    +0.000 C 
BRANCH  19  20
ATOM     20  C   UNL     1       1.806   7.759  20.053  0.00  0.00    +0.000 A 
ATOM     21  C   UNL     1       1.594   8.804  19.152  0.00  0.00    +0.000 A 
ATOM     22  C   UNL     1       1.050  10.032  19.570  0.00  0.00    +0.000 A 
ATOM     23  C   UNL     1       0.681  10.278  20.901  0.00  0.00    +0.000 A 
ATOM     24  C   UNL     1       0.865   9.199  21.786  0.00  0.00    +0.000 A 
ATOM     25  C   UNL     1       1.406   7.966  21.373  0.00  0.00    +0.000 A 
BRANCH  23  26
ATOM     26  N   UNL     1       0.185  11.502  21.323  0.00  0.00    +0.000 N 
ATOM     27  C   UNL     1      -0.858  11.626  22.336  0.00  0.00    +0.000 C 
ATOM     28  C   UNL     1       0.592  12.761  20.706  0.00  0.00    +0.000 C 
ENDBRANCH  23  26
ENDBRANCH  19  20
ENDBRANCH   1  18
TORSDOF 5
ENDMDL
