MODEL 1
REMARK VINA RESULT:      -8.3      0.000      0.000
REMARK  Name = 
REMARK  6 active torsions:
REMARK  status: ('A' for Active; 'I' for Inactive)
REMARK    1  A    between atoms: C_2  and  C_5
REMARK    2  A    between atoms: C_5  and  C_6
REMARK    3  A    between atoms: C_5  and  N_13
REMARK    4  A    between atoms: C_6  and  C_7
REMARK    5  A    between atoms: N_13  and  C_14
REMARK    6  A    between atoms: C_16  and  C_17
REMARK                            x       y       z     vdW  Elec       q    Type
REMARK                         _______ _______ _______ _____ _____    ______ ____
ROOT
ATOM      1  C   UNL     1       4.492   5.157  18.443  0.00  0.00    +0.000 A 
ATOM      2  N   UNL     1       4.011   6.398  18.621  0.00  0.00    +0.000 NA
ATOM      3  C   UNL     1       2.682   6.525  18.810  0.00  0.00    +0.000 A 
ATOM      4  N   UNL     1       1.818   5.495  18.855  0.00  0.00    +0.000 NA
ATOM      5  C   UNL     1       2.319   4.263  18.695  0.00  0.00    +0.000 A 
ATOM      6  C   UNL     1       1.508   3.139  18.772  0.00  0.00    +0.000 A 
ATOM      7  N   UNL     1       1.915   1.848  18.637  0.00  0.00    +0.000 NA
ATOM      8  C   UNL     1       3.227   1.657  18.413  0.00  0.00    +0.000 A 
ATOM      9  C   UNL     1       4.132   2.695  18.310  0.00  0.00    +0.000 A 
ATOM     10  C   UNL     1       3.670   4.021  18.459  0.00  0.00    +0.000 A 
ENDROOT
BRANCH   3  11
ATOM     11  C   UNL     1       2.115   7.881  18.958  0.00  0.00    +0.000 A 
ATOM     12  C   UNL     1       2.191   8.829  17.928  0.00  0.00    +0.000 A 
ATOM     13  C   UNL     1       1.638  10.088  18.117  0.00  0.00    +0.000 A 
ATOM     14  N   UNL     1       1.015  10.475  19.249  0.00  0.00    +0.000 NA
ATOM     15  C   UNL     1       0.945   9.562  20.237  0.00  0.00    +0.000 A 
ATOM     16  C   UNL     1       1.466   8.282  20.137  0.00  0.00    +0.000 A 
ENDBRANCH   3  11
BRANCH   1  17
ATOM     17  N   UNL     1       5.875   4.981  18.217  0.00  0.00    +0.000 N 
ATOM     18  H   UNL     1       6.065   3.979  18.172  0.00  0.00    +0.000 HD
BRANCH  17  19
ATOM     19  C   UNL     1       6.438   5.729  17.057  0.00  0.00    +0.000 C 
BRANCH  19  21
ATOM     20  F   UNL     1       6.375   8.092  17.584  0.00  0.00    +0.000 F 
ATOM     21  C   UNL     1       7.204   7.024  17.466  0.00  0.00    +0.000 C 
ATOM     22  F   UNL     1       8.159   7.384  16.574  0.00  0.00    +0.000 F 
ATOM     23  F   UNL     1       7.812   6.869  18.667  0.00  0.00    +0.000 F 
ENDBRANCH  19  21
BRANCH  19  24
ATOM     24  C   UNL     1       7.408   4.799  16.286  0.00  0.00    +0.000 C 
BRANCH  24  25
ATOM     25  C   UNL     1       7.063   4.576  14.828  0.00  0.00    +0.000 A 
ATOM     26  C   UNL     1       7.830   5.153  13.807  0.00  0.00    +0.000 A 
ATOM     27  C   UNL     1       7.501   4.937  12.466  0.00  0.00    +0.000 A 
ATOM     28  C   UNL     1       6.412   4.136  12.133  0.00  0.00    +0.000 A 
ATOM     29  C   UNL     1       5.654   3.541  13.139  0.00  0.00    +0.000 A 
ATOM     30  C   UNL     1       5.979   3.758  14.479  0.00  0.00    +0.000 A 
ENDBRANCH  24  25
ENDBRANCH  19  24
ENDBRANCH  17  19
ENDBRANCH   1  17
TORSDOF 6
ENDMDL
MODEL 2
REMARK VINA RESULT:      -8.2      0.333      1.194
REMARK  Name = 
REMARK  6 active torsions:
REMARK  status: ('A' for Active; 'I' for Inactive)
REMARK    1  A    between atoms: C_2  and  C_5
REMARK    2  A    between atoms: C_5  and  C_6
REMARK    3  A    between atoms: C_5  and  N_13
REMARK    4  A    between atoms: C_6  and  C_7
REMARK    5  A    between atoms: N_13  and  C_14
REMARK    6  A    between atoms: C_16  and  C_17
REMARK                            x       y       z     vdW  Elec       q    Type
REMARK                         _______ _______ _______ _____ _____    ______ ____
ROOT
ATOM      1  C   UNL     1       4.531   5.289  18.781  0.00  0.00    +0.000 A 
ATOM      2  N   UNL     1       3.983   6.500  18.977  0.00  0.00    +0.000 NA
ATOM      3  C   UNL     1       2.642   6.556  19.116  0.00  0.00    +0.000 A 
ATOM      4  N   UNL     1       1.829   5.485  19.094  0.00  0.00    +0.000 NA
ATOM      5  C   UNL     1       2.396   4.285  18.918  0.00  0.00    +0.000 A 
ATOM      6  C   UNL     1       1.639   3.121  18.928  0.00  0.00    +0.000 A 
ATOM      7  N   UNL     1       2.114   1.856  18.771  0.00  0.00    +0.000 NA
ATOM      8  C   UNL     1       3.441   1.735  18.594  0.00  0.00    +0.000 A 
ATOM      9  C   UNL     1       4.298   2.818  18.560  0.00  0.00    +0.000 A 
ATOM     10  C   UNL     1       3.765   4.115  18.729  0.00  0.00    +0.000 A 
ENDROOT
BRANCH   3  11
ATOM     11  C   UNL     1       2.004   7.878  19.281  0.00  0.00    +0.000 A 
ATOM     12  C   UNL     1       1.898   8.785  18.217  0.00  0.00    +0.000 A 
ATOM     13  C   UNL     1       1.285  10.012  18.425  0.00  0.00    +0.000 A 
ATOM     14  N   UNL     1       0.770  10.406  19.607  0.00  0.00    +0.000 NA
ATOM     15  C   UNL     1       0.874   9.534  20.628  0.00  0.00    +0.000 A 
ATOM     16  C   UNL     1       1.467   8.286  20.513  0.00  0.00    +0.000 A 
ENDBRANCH   3  11
BRANCH   1  17
ATOM     17  N   UNL     1       5.928   5.186  18.607  0.00  0.00    +0.000 N 
ATOM     18  H   UNL     1       6.192   4.207  18.716  0.00  0.00    +0.000 HD
BRANCH  17  19
ATOM     19  C   UNL     1       6.467   5.794  17.357  0.00  0.00    +0.000 C 
BRANCH  19  21
ATOM     20  F   UNL     1       8.134   6.937  18.691  0.00  0.00    +0.000 F 
ATOM     21  C   UNL     1       7.328   7.070  17.607  0.00  0.00    +0.000 C 
ATOM     22  F   UNL     1       6.585   8.182  17.823  0.00  0.00    +0.000 F 
ATOM     23  F   UNL     1       8.137   7.324  16.551  0.00  0.00    +0.000 F 
ENDBRANCH  19  21
BRANCH  19  24
ATOM     24  C   UNL     1       7.337   4.743  16.624  0.00  0.00    +0.000 C 
BRANCH  24  25
ATOM     25  C   UNL     1       6.995   4.529  15.164  0.00  0.00    +0.000 A 
ATOM     26  C   UNL     1       5.876   3.773  14.786  0.00  0.00    +0.000 A 
ATOM     27  C   UNL     1       5.573   3.586  13.436  0.00  0.00    +0.000 A 
ATOM     28  C   UNL     1       6.374   4.159  12.452  0.00  0.00    +0.000 A 
ATOM     29  C   UNL     1       7.477   4.927  12.815  0.00  0.00    +0.000 A 
ATOM     30  C   UNL     1       7.785   5.114  14.164  0.00  0.00    +0.000 A 
ENDBRANCH  24  25
ENDBRANCH  19  24
ENDBRANCH  17  19
ENDBRANCH   1  17
TORSDOF 6
ENDMDL
MODEL 3
REMARK VINA RESULT:      -8.2      0.430      1.479
REMARK  Name = 
REMARK  6 active torsions:
REMARK  status: ('A' for Active; 'I' for Inactive)
REMARK    1  A    between atoms: C_2  and  C_5
REMARK    2  A    between atoms: C_5  and  C_6
REMARK    3  A    between atoms: C_5  and  N_13
REMARK    4  A    between atoms: C_6  and  C_7
REMARK    5  A    between atoms: N_13  and  C_14
REMARK    6  A    between atoms: C_16  and  C_17
REMARK                            x       y       z     vdW  Elec       q    Type
REMARK                         _______ _______ _______ _____ _____    ______ ____
ROOT
ATOM      1  C   UNL     1       4.459   5.278  18.876  0.00  0.00    +0.000 A 
ATOM      2  N   UNL     1       3.915   6.482  19.115  0.00  0.00    +0.000 NA
ATOM      3  C   UNL     1       2.574   6.540  19.248  0.00  0.00    +0.000 A 
ATOM      4  N   UNL     1       1.757   5.474  19.183  0.00  0.00    +0.000 NA
ATOM      5  C   UNL     1       2.318   4.279  18.964  0.00  0.00    +0.000 A 
ATOM      6  C   UNL     1       1.556   3.119  18.926  0.00  0.00    +0.000 A 
ATOM      7  N   UNL     1       2.026   1.859  18.724  0.00  0.00    +0.000 NA
ATOM      8  C   UNL     1       3.354   1.738  18.549  0.00  0.00    +0.000 A 
ATOM      9  C   UNL     1       4.215   2.818  18.560  0.00  0.00    +0.000 A 
ATOM     10  C   UNL     1       3.688   4.110  18.776  0.00  0.00    +0.000 A 
ENDROOT
BRANCH   3  11
ATOM     11  C   UNL     1       1.942   7.858  19.460  0.00  0.00    +0.000 A 
ATOM     12  C   UNL     1       1.452   8.249  20.714  0.00  0.00    +0.000 A 
ATOM     13  C   UNL     1       0.870   9.500  20.860  0.00  0.00    +0.000 A 
ATOM     14  N   UNL     1       0.739  10.391  19.857  0.00  0.00    +0.000 NA
ATOM     15  C   UNL     1       1.209  10.013  18.653  0.00  0.00    +0.000 A 
ATOM     16  C   UNL     1       1.807   8.786  18.414  0.00  0.00    +0.000 A 
ENDBRANCH   3  11
BRANCH   1  17
ATOM     17  N   UNL     1       5.857   5.175  18.704  0.00  0.00    +0.000 N 
ATOM     18  H   UNL     1       6.124   4.201  18.846  0.00  0.00    +0.000 HD
BRANCH  17  19
ATOM     19  C   UNL     1       6.392   5.743  17.434  0.00  0.00    +0.000 C 
BRANCH  19  21
ATOM     20  F   UNL     1       8.086   7.247  16.577  0.00  0.00    +0.000 F 
ATOM     21  C   UNL     1       7.284   7.004  17.644  0.00  0.00    +0.000 C 
ATOM     22  F   UNL     1       8.105   6.906  18.718  0.00  0.00    +0.000 F 
ATOM     23  F   UNL     1       6.524   8.112  17.819  0.00  0.00    +0.000 F 
ENDBRANCH  19  21
BRANCH  19  24
ATOM     24  C   UNL     1       7.230   4.656  16.715  0.00  0.00    +0.000 C 
BRANCH  24  25
ATOM     25  C   UNL     1       6.927   4.480  15.241  0.00  0.00    +0.000 A 
ATOM     26  C   UNL     1       5.820   3.733  14.814  0.00  0.00    +0.000 A 
ATOM     27  C   UNL     1       5.553   3.581  13.451  0.00  0.00    +0.000 A 
ATOM     28  C   UNL     1       6.378   4.181  12.504  0.00  0.00    +0.000 A 
ATOM     29  C   UNL     1       7.470   4.941  12.917  0.00  0.00    +0.000 A 
ATOM     30  C   UNL     1       7.741   5.093  14.278  0.00  0.00    +0.000 A 
ENDBRANCH  24  25
ENDBRANCH  19  24
ENDBRANCH  17  19
ENDBRANCH   1  17
TORSDOF 6
ENDMDL
MODEL 4
REMARK VINA RESULT:      -7.9      1.205      1.410
REMARK  Name = 
REMARK  6 active torsions:
REMARK  status: ('A' for Active; 'I' for Inactive)
REMARK    1  A    between atoms: C_2  and  C_5
REMARK    2  A    between atoms: C_5  and  C_6
REMARK    3  A    between atoms: C_5  and  N_13
REMARK    4  A    between atoms: C_6  and  C_7
REMARK    5  A    between atoms: N_13  and  C_14
REMARK    6  A    between atoms: C_16  and  C_17
REMARK                            x       y       z     vdW  Elec       q    Type
REMARK                         _______ _______ _______ _____ _____    ______ ____
ROOT
ATOM      1  C   UNL     1       3.978   5.224  18.844  0.00  0.00    +0.000 A 
ATOM      2  N   UNL     1       3.524   6.424  19.241  0.00  0.00    +0.000 NA
ATOM      3  C   UNL     1       2.289   6.471  19.780  0.00  0.00    +0.000 A 
ATOM      4  N   UNL     1       1.499   5.398  19.967  0.00  0.00    +0.000 NA
ATOM      5  C   UNL     1       1.976   4.208  19.584  0.00  0.00    +0.000 A 
ATOM      6  C   UNL     1       1.249   3.041  19.780  0.00  0.00    +0.000 A 
ATOM      7  N   UNL     1       1.644   1.785  19.441  0.00  0.00    +0.000 NA
ATOM      8  C   UNL     1       2.855   1.675  18.867  0.00  0.00    +0.000 A 
ATOM      9  C   UNL     1       3.669   2.762  18.614  0.00  0.00    +0.000 A 
ATOM     10  C   UNL     1       3.223   4.050  18.984  0.00  0.00    +0.000 A 
ENDROOT
BRANCH   3  11
ATOM     11  C   UNL     1       1.741   7.784  20.179  0.00  0.00    +0.000 A 
ATOM     12  C   UNL     1       1.532   8.811  19.248  0.00  0.00    +0.000 A 
ATOM     13  C   UNL     1       1.011  10.023  19.675  0.00  0.00    +0.000 A 
ATOM     14  N   UNL     1       0.681  10.293  20.954  0.00  0.00    +0.000 NA
ATOM     15  C   UNL     1       0.883   9.305  21.847  0.00  0.00    +0.000 A 
ATOM     16  C   UNL     1       1.397   8.062  21.512  0.00  0.00    +0.000 A 
ENDBRANCH   3  11
BRANCH   1  17
ATOM     17  N   UNL     1       5.256   5.133  18.251  0.00  0.00    +0.000 N 
ATOM     18  H   UNL     1       5.694   4.268  18.570  0.00  0.00    +0.000 HD
BRANCH  17  19
ATOM     19  C   UNL     1       5.290   5.286  16.769  0.00  0.00    +0.000 C 
BRANCH  19  21
ATOM     20  F   UNL     1       4.002   7.337  16.815  0.00  0.00    +0.000 F 
ATOM     21  C   UNL     1       5.114   6.760  16.293  0.00  0.00    +0.000 C 
ATOM     22  F   UNL     1       5.004   6.878  14.947  0.00  0.00    +0.000 F 
ATOM     23  F   UNL     1       6.165   7.524  16.679  0.00  0.00    +0.000 F 
ENDBRANCH  19  21
BRANCH  19  24
ATOM     24  C   UNL     1       6.645   4.751  16.242  0.00  0.00    +0.000 C 
BRANCH  24  25
ATOM     25  C   UNL     1       6.719   4.552  14.742  0.00  0.00    +0.000 A 
ATOM     26  C   UNL     1       7.688   5.209  13.972  0.00  0.00    +0.000 A 
ATOM     27  C   UNL     1       7.745   5.015  12.590  0.00  0.00    +0.000 A 
ATOM     28  C   UNL     1       6.845   4.156  11.966  0.00  0.00    +0.000 A 
ATOM     29  C   UNL     1       5.889   3.483  12.723  0.00  0.00    +0.000 A 
ATOM     30  C   UNL     1       5.828   3.678  14.104  0.00  0.00    +0.000 A 
ENDBRANCH  24  25
ENDBRANCH  19  24
ENDBRANCH  17  19
ENDBRANCH   1  17
TORSDOF 6
ENDMDL
MODEL 5
REMARK VINA RESULT:      -7.8      2.137      3.615
REMARK  Name = 
REMARK  6 active torsions:
REMARK  status: ('A' for Active; 'I' for Inactive)
REMARK    1  A    between atoms: C_2  and  C_5
REMARK    2  A    between atoms: C_5  and  C_6
REMARK    3  A    between atoms: C_5  and  N_13
REMARK    4  A    between atoms: C_6  and  C_7
REMARK    5  A    between atoms: N_13  and  C_14
REMARK    6  A    between atoms: C_16  and  C_17
REMARK                            x       y       z     vdW  Elec       q    Type
REMARK                         _______ _______ _______ _____ _____    ______ ____
ROOT
ATOM      1  C   UNL     1       3.228   4.934  18.134  0.00  0.00    +0.000 A 
ATOM      2  N   UNL     1       2.878   6.230  18.069  0.00  0.00    +0.000 NA
ATOM      3  C   UNL     1       2.317   6.774  19.168  0.00  0.00    +0.000 A 
ATOM      4  N   UNL     1       2.110   6.116  20.323  0.00  0.00    +0.000 NA
ATOM      5  C   UNL     1       2.482   4.831  20.375  0.00  0.00    +0.000 A 
ATOM      6  C   UNL     1       2.348   4.087  21.539  0.00  0.00    +0.000 A 
ATOM      7  N   UNL     1       2.705   2.785  21.703  0.00  0.00    +0.000 NA
ATOM      8  C   UNL     1       3.240   2.174  20.631  0.00  0.00    +0.000 A 
ATOM      9  C   UNL     1       3.419   2.806  19.416  0.00  0.00    +0.000 A 
ATOM     10  C   UNL     1       3.038   4.160  19.288  0.00  0.00    +0.000 A 
ENDROOT
BRANCH   3  11
ATOM     11  C   UNL     1       1.875   8.182  19.111  0.00  0.00    +0.000 A 
ATOM     12  C   UNL     1       1.165   8.777  20.164  0.00  0.00    +0.000 A 
ATOM     13  C   UNL     1       0.777  10.104  20.062  0.00  0.00    +0.000 A 
ATOM     14  N   UNL     1       1.040  10.887  18.996  0.00  0.00    +0.000 NA
ATOM     15  C   UNL     1       1.721  10.313  17.985  0.00  0.00    +0.000 A 
ATOM     16  C   UNL     1       2.151   8.996  18.000  0.00  0.00    +0.000 A 
ENDBRANCH   3  11
BRANCH   1  17
ATOM     17  N   UNL     1       3.795   4.317  16.998  0.00  0.00    +0.000 N 
ATOM     18  H   UNL     1       3.190   4.503  16.198  0.00  0.00    +0.000 HD
BRANCH  17  19
ATOM     19  C   UNL     1       5.224   4.648  16.732  0.00  0.00    +0.000 C 
BRANCH  19  21
ATOM     20  F   UNL     1       7.047   4.394  15.157  0.00  0.00    +0.000 F 
ATOM     21  C   UNL     1       5.790   3.970  15.447  0.00  0.00    +0.000 C 
ATOM     22  F   UNL     1       5.046   4.213  14.341  0.00  0.00    +0.000 F 
ATOM     23  F   UNL     1       5.860   2.626  15.599  0.00  0.00    +0.000 F 
ENDBRANCH  19  21
BRANCH  19  24
ATOM     24  C   UNL     1       5.361   6.184  16.585  0.00  0.00    +0.000 C 
BRANCH  24  25
ATOM     25  C   UNL     1       6.511   6.804  17.353  0.00  0.00    +0.000 A 
ATOM     26  C   UNL     1       6.913   8.125  17.112  0.00  0.00    +0.000 A 
ATOM     27  C   UNL     1       7.974   8.683  17.829  0.00  0.00    +0.000 A 
ATOM     28  C   UNL     1       8.635   7.934  18.799  0.00  0.00    +0.000 A 
ATOM     29  C   UNL     1       8.232   6.627  19.060  0.00  0.00    +0.000 A 
ATOM     30  C   UNL     1       7.174   6.065  18.344  0.00  0.00    +0.000 A 
ENDBRANCH  24  25
ENDBRANCH  19  24
ENDBRANCH  17  19
ENDBRANCH   1  17
TORSDOF 6
ENDMDL
MODEL 6
REMARK VINA RESULT:      -7.8      2.143      3.692
REMARK  Name = 
REMARK  6 active torsions:
REMARK  status: ('A' for Active; 'I' for Inactive)
REMARK    1  A    between atoms: C_2  and  C_5
REMARK    2  A    between atoms: C_5  and  C_6
REMARK    3  A    between atoms: C_5  and  N_13
REMARK    4  A    between atoms: C_6  and  C_7
REMARK    5  A    between atoms: N_13  and  C_14
REMARK    6  A    between atoms: C_16  and  C_17
REMARK                            x       y       z     vdW  Elec       q    Type
REMARK                         _______ _______ _______ _____ _____    ______ ____
ROOT
ATOM      1  C   UNL     1       3.234   5.010  18.149  0.00  0.00    +0.000 A 
ATOM      2  N   UNL     1       2.867   6.302  18.124  0.00  0.00    +0.000 NA
ATOM      3  C   UNL     1       2.308   6.807  19.241  0.00  0.00    +0.000 A 
ATOM      4  N   UNL     1       2.118   6.114  20.378  0.00  0.00    +0.000 NA
ATOM      5  C   UNL     1       2.508   4.833  20.391  0.00  0.00    +0.000 A 
ATOM      6  C   UNL     1       2.392   4.054  21.534  0.00  0.00    +0.000 A 
ATOM      7  N   UNL     1       2.767   2.753  21.658  0.00  0.00    +0.000 NA
ATOM      8  C   UNL     1       3.302   2.180  20.566  0.00  0.00    +0.000 A 
ATOM      9  C   UNL     1       3.464   2.849  19.368  0.00  0.00    +0.000 A 
ATOM     10  C   UNL     1       3.064   4.201  19.281  0.00  0.00    +0.000 A 
ENDROOT
BRANCH   3  11
ATOM     11  C   UNL     1       1.847   8.210  19.228  0.00  0.00    +0.000 A 
ATOM     12  C   UNL     1       1.210   8.789  20.335  0.00  0.00    +0.000 A 
ATOM     13  C   UNL     1       0.800  10.113  20.271  0.00  0.00    +0.000 A 
ATOM     14  N   UNL     1       0.975  10.905  19.195  0.00  0.00    +0.000 NA
ATOM     15  C   UNL     1       1.587  10.347  18.132  0.00  0.00    +0.000 A 
ATOM     16  C   UNL     1       2.031   9.035  18.106  0.00  0.00    +0.000 A 
ENDBRANCH   3  11
BRANCH   1  17
ATOM     17  N   UNL     1       3.802   4.433  16.992  0.00  0.00    +0.000 N 
ATOM     18  H   UNL     1       3.216   4.679  16.193  0.00  0.00    +0.000 HD
BRANCH  17  19
ATOM     19  C   UNL     1       5.244   4.731  16.764  0.00  0.00    +0.000 C 
BRANCH  19  21
ATOM     20  F   UNL     1       5.751   2.638  15.655  0.00  0.00    +0.000 F 
ATOM     21  C   UNL     1       5.846   3.987  15.534  0.00  0.00    +0.000 C 
ATOM     22  F   UNL     1       7.160   4.256  15.336  0.00  0.00    +0.000 F 
ATOM     23  F   UNL     1       5.191   4.321  14.396  0.00  0.00    +0.000 F 
ENDBRANCH  19  21
BRANCH  19  24
ATOM     24  C   UNL     1       5.412   6.256  16.555  0.00  0.00    +0.000 C 
BRANCH  24  25
ATOM     25  C   UNL     1       6.537   6.895  17.343  0.00  0.00    +0.000 A 
ATOM     26  C   UNL     1       7.275   6.156  18.278  0.00  0.00    +0.000 A 
ATOM     27  C   UNL     1       8.311   6.758  18.997  0.00  0.00    +0.000 A 
ATOM     28  C   UNL     1       8.627   8.096  18.781  0.00  0.00    +0.000 A 
ATOM     29  C   UNL     1       7.914   8.835  17.840  0.00  0.00    +0.000 A 
ATOM     30  C   UNL     1       6.877   8.237  17.123  0.00  0.00    +0.000 A 
ENDBRANCH  24  25
ENDBRANCH  19  24
ENDBRANCH  17  19
ENDBRANCH   1  17
TORSDOF 6
ENDMDL
MODEL 7
REMARK VINA RESULT:      -7.8      2.035      3.640
REMARK  Name = 
REMARK  6 active torsions:
REMARK  status: ('A' for Active; 'I' for Inactive)
REMARK    1  A    between atoms: C_2  and  C_5
REMARK    2  A    between atoms: C_5  and  C_6
REMARK    3  A    between atoms: C_5  and  N_13
REMARK    4  A    between atoms: C_6  and  C_7
REMARK    5  A    between atoms: N_13  and  C_14
REMARK    6  A    between atoms: C_16  and  C_17
REMARK                            x       y       z     vdW  Elec       q    Type
REMARK                         _______ _______ _______ _____ _____    ______ ____
ROOT
ATOM      1  C   UNL     1       3.479   4.843  17.583  0.00  0.00    +0.000 A 
ATOM      2  N   UNL     1       3.043   6.111  17.671  0.00  0.00    +0.000 NA
ATOM      3  C   UNL     1       2.565   6.519  18.864  0.00  0.00    +0.000 A 
ATOM      4  N   UNL     1       2.519   5.751  19.968  0.00  0.00    +0.000 NA
ATOM      5  C   UNL     1       2.976   4.497  19.866  0.00  0.00    +0.000 A 
ATOM      6  C   UNL     1       3.009   3.649  20.965  0.00  0.00    +0.000 A 
ATOM      7  N   UNL     1       3.462   2.367  20.974  0.00  0.00    +0.000 NA
ATOM      8  C   UNL     1       3.922   1.889  19.804  0.00  0.00    +0.000 A 
ATOM      9  C   UNL     1       3.935   2.634  18.640  0.00  0.00    +0.000 A 
ATOM     10  C   UNL     1       3.458   3.963  18.674  0.00  0.00    +0.000 A 
ENDROOT
BRANCH   3  11
ATOM     11  C   UNL     1       2.031   7.891  18.979  0.00  0.00    +0.000 A 
ATOM     12  C   UNL     1       1.452   8.361  20.167  0.00  0.00    +0.000 A 
ATOM     13  C   UNL     1       0.970   9.660  20.223  0.00  0.00    +0.000 A 
ATOM     14  N   UNL     1       1.019  10.528  19.192  0.00  0.00    +0.000 NA
ATOM     15  C   UNL     1       1.575  10.074  18.052  0.00  0.00    +0.000 A 
ATOM     16  C   UNL     1       2.084   8.794  17.904  0.00  0.00    +0.000 A 
ENDBRANCH   3  11
BRANCH   1  17
ATOM     17  N   UNL     1       3.965   4.367  16.346  0.00  0.00    +0.000 N 
ATOM     18  H   UNL     1       3.321   4.667  15.613  0.00  0.00    +0.000 HD
BRANCH  17  19
ATOM     19  C   UNL     1       5.384   4.701  16.040  0.00  0.00    +0.000 C 
BRANCH  19  21
ATOM     20  F   UNL     1       6.877   4.997  14.155  0.00  0.00    +0.000 F 
ATOM     21  C   UNL     1       5.834   4.259  14.614  0.00  0.00    +0.000 C 
ATOM     22  F   UNL     1       4.854   4.372  13.685  0.00  0.00    +0.000 F 
ATOM     23  F   UNL     1       6.243   2.967  14.613  0.00  0.00    +0.000 F 
ENDBRANCH  19  21
BRANCH  19  24
ATOM     24  C   UNL     1       5.576   6.233  16.169  0.00  0.00    +0.000 C 
BRANCH  24  25
ATOM     25  C   UNL     1       6.616   6.669  17.180  0.00  0.00    +0.000 A 
ATOM     26  C   UNL     1       7.074   5.790  18.171  0.00  0.00    +0.000 A 
ATOM     27  C   UNL     1       8.035   6.206  19.096  0.00  0.00    +0.000 A 
ATOM     28  C   UNL     1       8.556   7.495  19.033  0.00  0.00    +0.000 A 
ATOM     29  C   UNL     1       8.123   8.371  18.040  0.00  0.00    +0.000 A 
ATOM     30  C   UNL     1       7.161   7.960  17.117  0.00  0.00    +0.000 A 
ENDBRANCH  24  25
ENDBRANCH  19  24
ENDBRANCH  17  19
ENDBRANCH   1  17
TORSDOF 6
ENDMDL
MODEL 8
REMARK VINA RESULT:      -7.8      1.602      1.899
REMARK  Name = 
REMARK  6 active torsions:
REMARK  status: ('A' for Active; 'I' for Inactive)
REMARK    1  A    between atoms: C_2  and  C_5
REMARK    2  A    between atoms: C_5  and  C_6
REMARK    3  A    between atoms: C_5  and  N_13
REMARK    4  A    between atoms: C_6  and  C_7
REMARK    5  A    between atoms: N_13  and  C_14
REMARK    6  A    between atoms: C_16  and  C_17
REMARK                            x       y       z     vdW  Elec       q    Type
REMARK                         _______ _______ _______ _____ _____    ______ ____
ROOT
ATOM      1  C   UNL     1       3.237   4.827  18.186  0.00  0.00    +0.000 A 
ATOM      2  N   UNL     1       2.930   6.129  18.063  0.00  0.00    +0.000 NA
ATOM      3  C   UNL     1       2.367   6.735  19.128  0.00  0.00    +0.000 A 
ATOM      4  N   UNL     1       2.117   6.131  20.304  0.00  0.00    +0.000 NA
ATOM      5  C   UNL     1       2.447   4.838  20.414  0.00  0.00    +0.000 A 
ATOM      6  C   UNL     1       2.267   4.146  21.604  0.00  0.00    +0.000 A 
ATOM      7  N   UNL     1       2.578   2.841  21.826  0.00  0.00    +0.000 NA
ATOM      8  C   UNL     1       3.113   2.171  20.790  0.00  0.00    +0.000 A 
ATOM      9  C   UNL     1       3.335   2.748  19.555  0.00  0.00    +0.000 A 
ATOM     10  C   UNL     1       3.001   4.107  19.366  0.00  0.00    +0.000 A 
ENDROOT
BRANCH   3  11
ATOM     11  C   UNL     1       1.972   8.153  19.007  0.00  0.00    +0.000 A 
ATOM     12  C   UNL     1       2.308   8.920  17.883  0.00  0.00    +0.000 A 
ATOM     13  C   UNL     1       1.908  10.247  17.817  0.00  0.00    +0.000 A 
ATOM     14  N   UNL     1       1.199  10.869  18.781  0.00  0.00    +0.000 NA
ATOM     15  C   UNL     1       0.879  10.131  19.861  0.00  0.00    +0.000 A 
ATOM     16  C   UNL     1       1.233   8.799  20.012  0.00  0.00    +0.000 A 
ENDBRANCH   3  11
BRANCH   1  17
ATOM     17  N   UNL     1       3.805   4.147  17.087  0.00  0.00    +0.000 N 
ATOM     18  H   UNL     1       3.129   4.156  16.323  0.00  0.00    +0.000 HD
BRANCH  17  19
ATOM     19  C   UNL     1       5.157   4.615  16.670  0.00  0.00    +0.000 C 
BRANCH  19  21
ATOM     20  F   UNL     1       7.403   4.985  17.497  0.00  0.00    +0.000 F 
ATOM     21  C   UNL     1       6.098   4.944  17.868  0.00  0.00    +0.000 C 
ATOM     22  F   UNL     1       6.021   4.038  18.873  0.00  0.00    +0.000 F 
ATOM     23  F   UNL     1       5.807   6.157  18.396  0.00  0.00    +0.000 F 
ENDBRANCH  19  21
BRANCH  19  24
ATOM     24  C   UNL     1       5.821   3.517  15.802  0.00  0.00    +0.000 C 
BRANCH  24  25
ATOM     25  C   UNL     1       6.360   3.989  14.468  0.00  0.00    +0.000 A 
ATOM     26  C   UNL     1       7.301   5.025  14.393  0.00  0.00    +0.000 A 
ATOM     27  C   UNL     1       7.790   5.449  13.155  0.00  0.00    +0.000 A 
ATOM     28  C   UNL     1       7.355   4.836  11.983  0.00  0.00    +0.000 A 
ATOM     29  C   UNL     1       6.435   3.792  12.046  0.00  0.00    +0.000 A 
ATOM     30  C   UNL     1       5.942   3.369  13.281  0.00  0.00    +0.000 A 
ENDBRANCH  24  25
ENDBRANCH  19  24
ENDBRANCH  17  19
ENDBRANCH   1  17
TORSDOF 6
ENDMDL
MODEL 9
REMARK VINA RESULT:      -7.8      2.051      3.537
REMARK  Name = 
REMARK  6 active torsions:
REMARK  status: ('A' for Active; 'I' for Inactive)
REMARK    1  A    between atoms: C_2  and  C_5
REMARK    2  A    between atoms: C_5  and  C_6
REMARK    3  A    between atoms: C_5  and  N_13
REMARK    4  A    between atoms: C_6  and  C_7
REMARK    5  A    between atoms: N_13  and  C_14
REMARK    6  A    between atoms: C_16  and  C_17
REMARK                            x       y       z     vdW  Elec       q    Type
REMARK                         _______ _______ _______ _____ _____    ______ ____
ROOT
ATOM      1  C   UNL     1       3.485   4.848  17.448  0.00  0.00    +0.000 A 
ATOM      2  N   UNL     1       3.036   6.109  17.567  0.00  0.00    +0.000 NA
ATOM      3  C   UNL     1       2.582   6.492  18.778  0.00  0.00    +0.000 A 
ATOM      4  N   UNL     1       2.573   5.707  19.870  0.00  0.00    +0.000 NA
ATOM      5  C   UNL     1       3.041   4.461  19.738  0.00  0.00    +0.000 A 
ATOM      6  C   UNL     1       3.111   3.596  20.822  0.00  0.00    +0.000 A 
ATOM      7  N   UNL     1       3.580   2.320  20.799  0.00  0.00    +0.000 NA
ATOM      8  C   UNL     1       4.017   1.866  19.611  0.00  0.00    +0.000 A 
ATOM      9  C   UNL     1       3.993   2.628  18.460  0.00  0.00    +0.000 A 
ATOM     10  C   UNL     1       3.501   3.951  18.526  0.00  0.00    +0.000 A 
ENDROOT
BRANCH   3  11
ATOM     11  C   UNL     1       2.035   7.856  18.928  0.00  0.00    +0.000 A 
ATOM     12  C   UNL     1       2.001   8.760  17.857  0.00  0.00    +0.000 A 
ATOM     13  C   UNL     1       1.473  10.028  18.051  0.00  0.00    +0.000 A 
ATOM     14  N   UNL     1       0.974  10.465  19.225  0.00  0.00    +0.000 NA
ATOM     15  C   UNL     1       1.008   9.595  20.253  0.00  0.00    +0.000 A 
ATOM     16  C   UNL     1       1.515   8.309  20.152  0.00  0.00    +0.000 A 
ENDBRANCH   3  11
BRANCH   1  17
ATOM     17  N   UNL     1       3.946   4.397  16.193  0.00  0.00    +0.000 N 
ATOM     18  H   UNL     1       3.315   4.753  15.475  0.00  0.00    +0.000 HD
BRANCH  17  19
ATOM     19  C   UNL     1       5.379   4.679  15.894  0.00  0.00    +0.000 C 
BRANCH  19  21
ATOM     20  F   UNL     1       4.734   4.169  13.616  0.00  0.00    +0.000 F 
ATOM     21  C   UNL     1       5.802   4.283  14.446  0.00  0.00    +0.000 C 
ATOM     22  F   UNL     1       6.456   3.098  14.385  0.00  0.00    +0.000 F 
ATOM     23  F   UNL     1       6.615   5.221  13.905  0.00  0.00    +0.000 F 
ENDBRANCH  19  21
BRANCH  19  24
ATOM     24  C   UNL     1       5.642   6.192  16.093  0.00  0.00    +0.000 C 
BRANCH  24  25
ATOM     25  C   UNL     1       6.647   6.534  17.174  0.00  0.00    +0.000 A 
ATOM     26  C   UNL     1       7.015   5.592  18.144  0.00  0.00    +0.000 A 
ATOM     27  C   UNL     1       7.944   5.921  19.134  0.00  0.00    +0.000 A 
ATOM     28  C   UNL     1       8.521   7.187  19.159  0.00  0.00    +0.000 A 
ATOM     29  C   UNL     1       8.177   8.126  18.190  0.00  0.00    +0.000 A 
ATOM     30  C   UNL     1       7.248   7.801  17.201  0.00  0.00    +0.000 A 
ENDBRANCH  24  25
ENDBRANCH  19  24
ENDBRANCH  17  19
ENDBRANCH   1  17
TORSDOF 6
ENDMDL
