MODEL 1
REMARK VINA RESULT:      -8.1      0.000      0.000
REMARK  Name = 
REMARK  11 active torsions:
REMARK  status: ('A' for Active; 'I' for Inactive)
REMARK    1  A    between atoms: C_2  and  C_3
REMARK    2  A    between atoms: C_2  and  C_4
REMARK    3  A    between atoms: C_7  and  C_8
REMARK    4  A    between atoms: C_9  and  C_10
REMARK    5  A    between atoms: C_11  and  C_12
REMARK    6  A    between atoms: C_12  and  C_13
REMARK    7  A    between atoms: C_14  and  C_15
REMARK    8  A    between atoms: C_16  and  C_17
REMARK    9  A    between atoms: C_17  and  C_18
REMARK   10  A    between atoms: C_19  and  C_20
REMARK   11  A    between atoms: C_20  and  O_22
REMARK                            x       y       z     vdW  Elec       q    Type
REMARK                         _______ _______ _______ _____ _____    ______ ____
ROOT
ATOM      1  C   UNL     1       3.971   5.961  17.397  0.00  0.00    +0.000 C 
ATOM      2  C   UNL     1       4.647   4.883  16.966  0.00  0.00    +0.000 C 
ENDROOT
BRANCH   1   8
ATOM      3  C   UNL     1       2.363   4.416  19.675  0.00  0.00    +0.000 C 
ATOM      4  C   UNL     1       1.953   5.610  20.554  0.00  0.00    +0.000 C 
ATOM      5  C   UNL     1       2.454   6.941  19.995  0.00  0.00    +0.000 C 
ATOM      6  C   UNL     1       2.007   7.142  18.540  0.00  0.00    +0.000 C 
ATOM      7  C   UNL     1       2.448   8.513  18.024  0.00  0.00    +0.000 C 
ATOM      8  C   UNL     1       2.468   5.974  17.628  0.00  0.00    +0.000 C 
ATOM      9  C   UNL     1       1.950   4.639  18.208  0.00  0.00    +0.000 C 
BRANCH   3  11
ATOM     10  C   UNL     1       1.650   2.932  21.554  0.00  0.00    +0.000 C 
ATOM     11  C   UNL     1       1.844   3.093  20.233  0.00  0.00    +0.000 C 
ATOM     12  C   UNL     1       1.537   1.968  19.279  0.00  0.00    +0.000 C 
ENDBRANCH   3  11
ENDBRANCH   1   8
BRANCH   2  13
ATOM     13  C   UNL     1       6.069   4.879  16.651  0.00  0.00    +0.000 C 
ATOM     14  C   UNL     1       6.982   5.386  17.738  0.00  0.00    +0.000 C 
ATOM     15  C   UNL     1       6.568   4.518  15.449  0.00  0.00    +0.000 C 
BRANCH  15  16
ATOM     16  C   UNL     1       5.770   4.046  14.333  0.00  0.00    +0.000 C 
ATOM     17  C   UNL     1       6.250   3.577  13.167  0.00  0.00    +0.000 C 
BRANCH  17  18
ATOM     18  C   UNL     1       5.437   3.113  12.034  0.00  0.00    +0.000 C 
ATOM     19  C   UNL     1       5.852   1.875  11.268  0.00  0.00    +0.000 C 
ATOM     20  C   UNL     1       4.327   3.801  11.686  0.00  0.00    +0.000 C 
BRANCH  20  21
ATOM     21  C   UNL     1       3.418   3.404  10.578  0.00  0.00    +0.000 C 
ATOM     22  O   UNL     1       2.863   2.326  10.457  0.00  0.00    +0.000 OA
BRANCH  21  23
ATOM     23  O   UNL     1       3.243   4.407   9.692  0.00  0.00    +0.000 OA
ATOM     24  H   UNL     1       4.059   4.770   9.301  0.00  0.00    +0.000 HD
ENDBRANCH  21  23
ENDBRANCH  20  21
ENDBRANCH  17  18
ENDBRANCH  15  16
ENDBRANCH   2  13
TORSDOF 7
ENDMDL
MODEL 2
REMARK VINA RESULT:      -8.0      1.017      1.546
REMARK  Name = 
REMARK  11 active torsions:
REMARK  status: ('A' for Active; 'I' for Inactive)
REMARK    1  A    between atoms: C_2  and  C_3
REMARK    2  A    between atoms: C_2  and  C_4
REMARK    3  A    between atoms: C_7  and  C_8
REMARK    4  A    between atoms: C_9  and  C_10
REMARK    5  A    between atoms: C_11  and  C_12
REMARK    6  A    between atoms: C_12  and  C_13
REMARK    7  A    between atoms: C_14  and  C_15
REMARK    8  A    between atoms: C_16  and  C_17
REMARK    9  A    between atoms: C_17  and  C_18
REMARK   10  A    between atoms: C_19  and  C_20
REMARK   11  A    between atoms: C_20  and  O_22
REMARK                            x       y       z     vdW  Elec       q    Type
REMARK                         _______ _______ _______ _____ _____    ______ ____
ROOT
ATOM      1  C   UNL     1       4.137   6.253  17.798  0.00  0.00    +0.000 C 
ATOM      2  C   UNL     1       4.979   5.233  18.032  0.00  0.00    +0.000 C 
ENDROOT
BRANCH   1   8
ATOM      3  C   UNL     1       2.339   4.550  19.805  0.00  0.00    +0.000 C 
ATOM      4  C   UNL     1       1.664   5.696  20.579  0.00  0.00    +0.000 C 
ATOM      5  C   UNL     1       2.109   7.071  20.085  0.00  0.00    +0.000 C 
ATOM      6  C   UNL     1       1.896   7.219  18.571  0.00  0.00    +0.000 C 
ATOM      7  C   UNL     1       2.271   8.629  18.108  0.00  0.00    +0.000 C 
ATOM      8  C   UNL     1       2.625   6.105  17.773  0.00  0.00    +0.000 C 
ATOM      9  C   UNL     1       2.159   4.724  18.285  0.00  0.00    +0.000 C 
BRANCH   3  11
ATOM     10  C   UNL     1       1.574   2.978  21.591  0.00  0.00    +0.000 C 
ATOM     11  C   UNL     1       1.875   3.181  20.295  0.00  0.00    +0.000 C 
ATOM     12  C   UNL     1       1.746   2.055  19.302  0.00  0.00    +0.000 C 
ENDBRANCH   3  11
ENDBRANCH   1   8
BRANCH   2  13
ATOM     13  C   UNL     1       6.430   5.336  17.967  0.00  0.00    +0.000 C 
ATOM     14  C   UNL     1       7.119   5.701  19.257  0.00  0.00    +0.000 C 
ATOM     15  C   UNL     1       7.142   5.191  16.828  0.00  0.00    +0.000 C 
BRANCH  15  16
ATOM     16  C   UNL     1       6.569   4.870  15.534  0.00  0.00    +0.000 C 
ATOM     17  C   UNL     1       7.260   4.519  14.435  0.00  0.00    +0.000 C 
BRANCH  17  18
ATOM     18  C   UNL     1       6.677   4.209  13.122  0.00  0.00    +0.000 C 
ATOM     19  C   UNL     1       7.332   4.740  11.864  0.00  0.00    +0.000 C 
ATOM     20  C   UNL     1       5.558   3.453  13.053  0.00  0.00    +0.000 C 
BRANCH  20  21
ATOM     21  C   UNL     1       4.904   3.055  11.778  0.00  0.00    +0.000 C 
ATOM     22  O   UNL     1       4.058   3.694  11.177  0.00  0.00    +0.000 OA
BRANCH  21  23
ATOM     23  O   UNL     1       5.374   1.876  11.323  0.00  0.00    +0.000 OA
ATOM     24  H   UNL     1       4.835   1.446  10.633  0.00  0.00    +0.000 HD
ENDBRANCH  21  23
ENDBRANCH  20  21
ENDBRANCH  17  18
ENDBRANCH  15  16
ENDBRANCH   2  13
TORSDOF 7
ENDMDL
MODEL 3
REMARK VINA RESULT:      -7.9      1.068      1.611
REMARK  Name = 
REMARK  11 active torsions:
REMARK  status: ('A' for Active; 'I' for Inactive)
REMARK    1  A    between atoms: C_2  and  C_3
REMARK    2  A    between atoms: C_2  and  C_4
REMARK    3  A    between atoms: C_7  and  C_8
REMARK    4  A    between atoms: C_9  and  C_10
REMARK    5  A    between atoms: C_11  and  C_12
REMARK    6  A    between atoms: C_12  and  C_13
REMARK    7  A    between atoms: C_14  and  C_15
REMARK    8  A    between atoms: C_16  and  C_17
REMARK    9  A    between atoms: C_17  and  C_18
REMARK   10  A    between atoms: C_19  and  C_20
REMARK   11  A    between atoms: C_20  and  O_22
REMARK                            x       y       z     vdW  Elec       q    Type
REMARK                         _______ _______ _______ _____ _____    ______ ____
ROOT
ATOM      1  C   UNL     1       4.257   6.027  18.118  0.00  0.00    +0.000 C 
ATOM      2  C   UNL     1       5.141   5.405  17.321  0.00  0.00    +0.000 C 
ENDROOT
BRANCH   1   8
ATOM      3  C   UNL     1       2.009   4.503  19.787  0.00  0.00    +0.000 C 
ATOM      4  C   UNL     1       1.345   5.705  20.480  0.00  0.00    +0.000 C 
ATOM      5  C   UNL     1       1.999   7.031  20.095  0.00  0.00    +0.000 C 
ATOM      6  C   UNL     1       2.036   7.217  18.571  0.00  0.00    +0.000 C 
ATOM      7  C   UNL     1       2.620   8.583  18.207  0.00  0.00    +0.000 C 
ATOM      8  C   UNL     1       2.759   6.040  17.863  0.00  0.00    +0.000 C 
ATOM      9  C   UNL     1       2.080   4.711  18.262  0.00  0.00    +0.000 C 
BRANCH   3  11
ATOM     10  C   UNL     1       0.793   2.394  19.223  0.00  0.00    +0.000 C 
ATOM     11  C   UNL     1       1.337   3.185  20.165  0.00  0.00    +0.000 C 
ATOM     12  C   UNL     1       1.299   2.774  21.615  0.00  0.00    +0.000 C 
ENDBRANCH   3  11
ENDBRANCH   1   8
BRANCH   2  13
ATOM     13  C   UNL     1       6.585   5.460  17.498  0.00  0.00    +0.000 C 
ATOM     14  C   UNL     1       7.067   6.169  18.737  0.00  0.00    +0.000 C 
ATOM     15  C   UNL     1       7.469   4.979  16.595  0.00  0.00    +0.000 C 
BRANCH  15  16
ATOM     16  C   UNL     1       7.104   4.308  15.362  0.00  0.00    +0.000 C 
ATOM     17  C   UNL     1       6.970   4.896  14.159  0.00  0.00    +0.000 C 
BRANCH  17  18
ATOM     18  C   UNL     1       6.586   4.215  12.915  0.00  0.00    +0.000 C 
ATOM     19  C   UNL     1       7.387   4.448  11.651  0.00  0.00    +0.000 C 
ATOM     20  C   UNL     1       5.516   3.388  12.912  0.00  0.00    +0.000 C 
BRANCH  20  21
ATOM     21  C   UNL     1       5.059   2.627  11.719  0.00  0.00    +0.000 C 
ATOM     22  O   UNL     1       5.609   1.652  11.236  0.00  0.00    +0.000 OA
BRANCH  21  23
ATOM     23  O   UNL     1       3.914   3.130  11.214  0.00  0.00    +0.000 OA
ATOM     24  H   UNL     1       3.563   3.918  11.670  0.00  0.00    +0.000 HD
ENDBRANCH  21  23
ENDBRANCH  20  21
ENDBRANCH  17  18
ENDBRANCH  15  16
ENDBRANCH   2  13
TORSDOF 7
ENDMDL
MODEL 4
REMARK VINA RESULT:      -7.8      0.572      1.094
REMARK  Name = 
REMARK  11 active torsions:
REMARK  status: ('A' for Active; 'I' for Inactive)
REMARK    1  A    between atoms: C_2  and  C_3
REMARK    2  A    between atoms: C_2  and  C_4
REMARK    3  A    between atoms: C_7  and  C_8
REMARK    4  A    between atoms: C_9  and  C_10
REMARK    5  A    between atoms: C_11  and  C_12
REMARK    6  A    between atoms: C_12  and  C_13
REMARK    7  A    between atoms: C_14  and  C_15
REMARK    8  A    between atoms: C_16  and  C_17
REMARK    9  A    between atoms: C_17  and  C_18
REMARK   10  A    between atoms: C_19  and  C_20
REMARK   11  A    between atoms: C_20  and  O_22
REMARK                            x       y       z     vdW  Elec       q    Type
REMARK                         _______ _______ _______ _____ _____    ______ ____
ROOT
ATOM      1  C   UNL     1       4.072   5.327  17.459  0.00  0.00    +0.000 C 
ATOM      2  C   UNL     1       4.757   5.528  16.321  0.00  0.00    +0.000 C 
ENDROOT
BRANCH   1   8
ATOM      3  C   UNL     1       2.077   4.178  19.664  0.00  0.00    +0.000 C 
ATOM      4  C   UNL     1       1.885   5.442  20.520  0.00  0.00    +0.000 C 
ATOM      5  C   UNL     1       2.676   6.633  19.980  0.00  0.00    +0.000 C 
ATOM      6  C   UNL     1       2.346   6.904  18.505  0.00  0.00    +0.000 C 
ATOM      7  C   UNL     1       3.085   8.147  18.005  0.00  0.00    +0.000 C 
ATOM      8  C   UNL     1       2.596   5.654  17.619  0.00  0.00    +0.000 C 
ATOM      9  C   UNL     1       1.786   4.463  18.178  0.00  0.00    +0.000 C 
BRANCH   3  11
ATOM     10  C   UNL     1       0.517   2.247  19.378  0.00  0.00    +0.000 C 
ATOM     11  C   UNL     1       1.271   2.999  20.201  0.00  0.00    +0.000 C 
ATOM     12  C   UNL     1       1.337   2.677  21.672  0.00  0.00    +0.000 C 
ENDBRANCH   3  11
ENDBRANCH   1   8
BRANCH   2  13
ATOM     13  C   UNL     1       6.190   5.310  16.177  0.00  0.00    +0.000 C 
ATOM     14  C   UNL     1       7.066   6.042  17.161  0.00  0.00    +0.000 C 
ATOM     15  C   UNL     1       6.739   4.563  15.194  0.00  0.00    +0.000 C 
BRANCH  15  16
ATOM     16  C   UNL     1       5.983   3.846  14.185  0.00  0.00    +0.000 C 
ATOM     17  C   UNL     1       6.091   4.016  12.855  0.00  0.00    +0.000 C 
BRANCH  17  18
ATOM     18  C   UNL     1       5.312   3.298  11.836  0.00  0.00    +0.000 C 
ATOM     19  C   UNL     1       5.769   1.935  11.362  0.00  0.00    +0.000 C 
ATOM     20  C   UNL     1       4.194   3.866  11.331  0.00  0.00    +0.000 C 
BRANCH  20  21
ATOM     21  C   UNL     1       3.317   3.216  10.321  0.00  0.00    +0.000 C 
ATOM     22  O   UNL     1       3.235   3.516   9.143  0.00  0.00    +0.000 OA
BRANCH  21  23
ATOM     23  O   UNL     1       2.604   2.203  10.857  0.00  0.00    +0.000 OA
ATOM     24  H   UNL     1       2.334   1.503  10.234  0.00  0.00    +0.000 HD
ENDBRANCH  21  23
ENDBRANCH  20  21
ENDBRANCH  17  18
ENDBRANCH  15  16
ENDBRANCH   2  13
TORSDOF 7
ENDMDL
MODEL 5
REMARK VINA RESULT:      -7.3      1.240      1.937
REMARK  Name = 
REMARK  11 active torsions:
REMARK  status: ('A' for Active; 'I' for Inactive)
REMARK    1  A    between atoms: C_2  and  C_3
REMARK    2  A    between atoms: C_2  and  C_4
REMARK    3  A    between atoms: C_7  and  C_8
REMARK    4  A    between atoms: C_9  and  C_10
REMARK    5  A    between atoms: C_11  and  C_12
REMARK    6  A    between atoms: C_12  and  C_13
REMARK    7  A    between atoms: C_14  and  C_15
REMARK    8  A    between atoms: C_16  and  C_17
REMARK    9  A    between atoms: C_17  and  C_18
REMARK   10  A    between atoms: C_19  and  C_20
REMARK   11  A    between atoms: C_20  and  O_22
REMARK                            x       y       z     vdW  Elec       q    Type
REMARK                         _______ _______ _______ _____ _____    ______ ____
ROOT
ATOM      1  C   UNL     1       4.287   6.096  18.139  0.00  0.00    +0.000 C 
ATOM      2  C   UNL     1       5.171   5.157  17.762  0.00  0.00    +0.000 C 
ENDROOT
BRANCH   1   8
ATOM      3  C   UNL     1       2.333   3.758  19.076  0.00  0.00    +0.000 C 
ATOM      4  C   UNL     1       1.540   4.507  20.162  0.00  0.00    +0.000 C 
ATOM      5  C   UNL     1       1.994   5.958  20.314  0.00  0.00    +0.000 C 
ATOM      6  C   UNL     1       1.945   6.705  18.973  0.00  0.00    +0.000 C 
ATOM      7  C   UNL     1       2.324   8.176  19.160  0.00  0.00    +0.000 C 
ATOM      8  C   UNL     1       2.792   5.994  17.885  0.00  0.00    +0.000 C 
ATOM      9  C   UNL     1       2.316   4.531  17.743  0.00  0.00    +0.000 C 
BRANCH   3  11
ATOM     10  C   UNL     1       2.744   1.319  18.724  0.00  0.00    +0.000 C 
ATOM     11  C   UNL     1       1.861   2.315  18.920  0.00  0.00    +0.000 C 
ATOM     12  C   UNL     1       0.386   2.016  19.001  0.00  0.00    +0.000 C 
ENDBRANCH   3  11
ENDBRANCH   1   8
BRANCH   2  13
ATOM     13  C   UNL     1       6.614   5.279  17.913  0.00  0.00    +0.000 C 
ATOM     14  C   UNL     1       7.086   5.910  19.197  0.00  0.00    +0.000 C 
ATOM     15  C   UNL     1       7.500   4.927  16.956  0.00  0.00    +0.000 C 
BRANCH  15  16
ATOM     16  C   UNL     1       7.142   4.341  15.678  0.00  0.00    +0.000 C 
ATOM     17  C   UNL     1       7.007   5.009  14.518  0.00  0.00    +0.000 C 
BRANCH  17  18
ATOM     18  C   UNL     1       6.629   4.414  13.228  0.00  0.00    +0.000 C 
ATOM     19  C   UNL     1       7.363   4.822  11.968  0.00  0.00    +0.000 C 
ATOM     20  C   UNL     1       5.628   3.507  13.182  0.00  0.00    +0.000 C 
BRANCH  20  21
ATOM     21  C   UNL     1       5.186   2.822  11.938  0.00  0.00    +0.000 C 
ATOM     22  O   UNL     1       4.313   3.206  11.180  0.00  0.00    +0.000 OA
BRANCH  21  23
ATOM     23  O   UNL     1       5.893   1.696  11.711  0.00  0.00    +0.000 OA
ATOM     24  H   UNL     1       5.658   1.208  10.900  0.00  0.00    +0.000 HD
ENDBRANCH  21  23
ENDBRANCH  20  21
ENDBRANCH  17  18
ENDBRANCH  15  16
ENDBRANCH   2  13
TORSDOF 7
ENDMDL
MODEL 6
REMARK VINA RESULT:      -7.2      1.451      1.783
REMARK  Name = 
REMARK  11 active torsions:
REMARK  status: ('A' for Active; 'I' for Inactive)
REMARK    1  A    between atoms: C_2  and  C_3
REMARK    2  A    between atoms: C_2  and  C_4
REMARK    3  A    between atoms: C_7  and  C_8
REMARK    4  A    between atoms: C_9  and  C_10
REMARK    5  A    between atoms: C_11  and  C_12
REMARK    6  A    between atoms: C_12  and  C_13
REMARK    7  A    between atoms: C_14  and  C_15
REMARK    8  A    between atoms: C_16  and  C_17
REMARK    9  A    between atoms: C_17  and  C_18
REMARK   10  A    between atoms: C_19  and  C_20
REMARK   11  A    between atoms: C_20  and  O_22
REMARK                            x       y       z     vdW  Elec       q    Type
REMARK                         _______ _______ _______ _____ _____    ______ ____
ROOT
ATOM      1  C   UNL     1       4.179   5.526  17.454  0.00  0.00    +0.000 C 
ATOM      2  C   UNL     1       4.924   6.098  16.494  0.00  0.00    +0.000 C 
ENDROOT
BRANCH   1   8
ATOM      3  C   UNL     1       2.244   4.180  19.600  0.00  0.00    +0.000 C 
ATOM      4  C   UNL     1       1.823   5.433  20.387  0.00  0.00    +0.000 C 
ATOM      5  C   UNL     1       2.465   6.706  19.838  0.00  0.00    +0.000 C 
ATOM      6  C   UNL     1       2.187   6.872  18.337  0.00  0.00    +0.000 C 
ATOM      7  C   UNL     1       2.768   8.190  17.822  0.00  0.00    +0.000 C 
ATOM      8  C   UNL     1       2.665   5.640  17.522  0.00  0.00    +0.000 C 
ATOM      9  C   UNL     1       2.002   4.365  18.090  0.00  0.00    +0.000 C 
BRANCH   3  11
ATOM     10  C   UNL     1       1.399   2.752  21.469  0.00  0.00    +0.000 C 
ATOM     11  C   UNL     1       1.585   2.916  20.146  0.00  0.00    +0.000 C 
ATOM     12  C   UNL     1       1.130   1.853  19.180  0.00  0.00    +0.000 C 
ENDBRANCH   3  11
ENDBRANCH   1   8
BRANCH   2  13
ATOM     13  C   UNL     1       6.380   6.079  16.465  0.00  0.00    +0.000 C 
ATOM     14  C   UNL     1       7.066   7.062  17.378  0.00  0.00    +0.000 C 
ATOM     15  C   UNL     1       7.102   5.295  15.635  0.00  0.00    +0.000 C 
BRANCH  15  16
ATOM     16  C   UNL     1       6.534   4.340  14.703  0.00  0.00    +0.000 C 
ATOM     17  C   UNL     1       6.799   4.277  13.385  0.00  0.00    +0.000 C 
BRANCH  17  18
ATOM     18  C   UNL     1       6.209   3.318  12.440  0.00  0.00    +0.000 C 
ATOM     19  C   UNL     1       4.765   3.474  12.013  0.00  0.00    +0.000 C 
ATOM     20  C   UNL     1       6.965   2.303  11.964  0.00  0.00    +0.000 C 
BRANCH  20  21
ATOM     21  C   UNL     1       6.479   1.296  10.983  0.00  0.00    +0.000 C 
ATOM     22  O   UNL     1       5.781   0.330  11.235  0.00  0.00    +0.000 OA
BRANCH  21  23
ATOM     23  O   UNL     1       6.888   1.583   9.730  0.00  0.00    +0.000 OA
ATOM     24  H   UNL     1       7.820   1.376   9.533  0.00  0.00    +0.000 HD
ENDBRANCH  21  23
ENDBRANCH  20  21
ENDBRANCH  17  18
ENDBRANCH  15  16
ENDBRANCH   2  13
TORSDOF 7
ENDMDL
MODEL 7
REMARK VINA RESULT:      -7.0      1.530      3.426
REMARK  Name = 
REMARK  11 active torsions:
REMARK  status: ('A' for Active; 'I' for Inactive)
REMARK    1  A    between atoms: C_2  and  C_3
REMARK    2  A    between atoms: C_2  and  C_4
REMARK    3  A    between atoms: C_7  and  C_8
REMARK    4  A    between atoms: C_9  and  C_10
REMARK    5  A    between atoms: C_11  and  C_12
REMARK    6  A    between atoms: C_12  and  C_13
REMARK    7  A    between atoms: C_14  and  C_15
REMARK    8  A    between atoms: C_16  and  C_17
REMARK    9  A    between atoms: C_17  and  C_18
REMARK   10  A    between atoms: C_19  and  C_20
REMARK   11  A    between atoms: C_20  and  O_22
REMARK                            x       y       z     vdW  Elec       q    Type
REMARK                         _______ _______ _______ _____ _____    ______ ____
ROOT
ATOM      1  C   UNL     1       5.079   4.153  19.427  0.00  0.00    +0.000 C 
ATOM      2  C   UNL     1       5.561   4.976  18.481  0.00  0.00    +0.000 C 
ENDROOT
BRANCH   1   8
ATOM      3  C   UNL     1       2.738   6.273  18.994  0.00  0.00    +0.000 C 
ATOM      4  C   UNL     1       2.051   5.649  17.767  0.00  0.00    +0.000 C 
ATOM      5  C   UNL     1       2.736   4.362  17.312  0.00  0.00    +0.000 C 
ATOM      6  C   UNL     1       2.849   3.349  18.461  0.00  0.00    +0.000 C 
ATOM      7  C   UNL     1       3.462   2.037  17.967  0.00  0.00    +0.000 C 
ATOM      8  C   UNL     1       3.596   3.945  19.684  0.00  0.00    +0.000 C 
ATOM      9  C   UNL     1       2.887   5.243  20.131  0.00  0.00    +0.000 C 
BRANCH   3  11
ATOM     10  C   UNL     1       1.579   7.671  20.711  0.00  0.00    +0.000 C 
ATOM     11  C   UNL     1       2.037   7.549  19.452  0.00  0.00    +0.000 C 
ATOM     12  C   UNL     1       1.874   8.684  18.473  0.00  0.00    +0.000 C 
ENDBRANCH   3  11
ENDBRANCH   1   8
BRANCH   2  13
ATOM     13  C   UNL     1       6.976   5.259  18.282  0.00  0.00    +0.000 C 
ATOM     14  C   UNL     1       7.735   5.693  19.509  0.00  0.00    +0.000 C 
ATOM     15  C   UNL     1       7.586   5.215  17.077  0.00  0.00    +0.000 C 
BRANCH  15  16
ATOM     16  C   UNL     1       6.934   4.839  15.837  0.00  0.00    +0.000 C 
ATOM     17  C   UNL     1       7.525   4.770  14.630  0.00  0.00    +0.000 C 
BRANCH  17  18
ATOM     18  C   UNL     1       6.857   4.403  13.373  0.00  0.00    +0.000 C 
ATOM     19  C   UNL     1       7.341   4.992  12.065  0.00  0.00    +0.000 C 
ATOM     20  C   UNL     1       5.815   3.542  13.399  0.00  0.00    +0.000 C 
BRANCH  20  21
ATOM     21  C   UNL     1       5.090   3.080  12.187  0.00  0.00    +0.000 C 
ATOM     22  O   UNL     1       4.147   3.643  11.658  0.00  0.00    +0.000 OA
BRANCH  21  23
ATOM     23  O   UNL     1       5.614   1.939  11.695  0.00  0.00    +0.000 OA
ATOM     24  H   UNL     1       6.449   1.647  12.107  0.00  0.00    +0.000 HD
ENDBRANCH  21  23
ENDBRANCH  20  21
ENDBRANCH  17  18
ENDBRANCH  15  16
ENDBRANCH   2  13
TORSDOF 7
ENDMDL
MODEL 8
REMARK VINA RESULT:      -6.9      3.370      7.186
REMARK  Name = 
REMARK  11 active torsions:
REMARK  status: ('A' for Active; 'I' for Inactive)
REMARK    1  A    between atoms: C_2  and  C_3
REMARK    2  A    between atoms: C_2  and  C_4
REMARK    3  A    between atoms: C_7  and  C_8
REMARK    4  A    between atoms: C_9  and  C_10
REMARK    5  A    between atoms: C_11  and  C_12
REMARK    6  A    between atoms: C_12  and  C_13
REMARK    7  A    between atoms: C_14  and  C_15
REMARK    8  A    between atoms: C_16  and  C_17
REMARK    9  A    between atoms: C_17  and  C_18
REMARK   10  A    between atoms: C_19  and  C_20
REMARK   11  A    between atoms: C_20  and  O_22
REMARK                            x       y       z     vdW  Elec       q    Type
REMARK                         _______ _______ _______ _____ _____    ______ ____
ROOT
ATOM      1  C   UNL     1       4.284   6.579  16.450  0.00  0.00    +0.000 C 
ATOM      2  C   UNL     1       3.932   7.415  17.441  0.00  0.00    +0.000 C 
ENDROOT
BRANCH   1   8
ATOM      3  C   UNL     1       6.945   5.926  18.079  0.00  0.00    +0.000 C 
ATOM      4  C   UNL     1       7.229   4.509  17.549  0.00  0.00    +0.000 C 
ATOM      5  C   UNL     1       6.186   4.052  16.531  0.00  0.00    +0.000 C 
ATOM      6  C   UNL     1       6.044   5.059  15.380  0.00  0.00    +0.000 C 
ATOM      7  C   UNL     1       5.056   4.545  14.331  0.00  0.00    +0.000 C 
ATOM      8  C   UNL     1       5.696   6.480  15.896  0.00  0.00    +0.000 C 
ATOM      9  C   UNL     1       6.764   6.926  16.920  0.00  0.00    +0.000 C 
BRANCH   3  11
ATOM     10  C   UNL     1       8.402   5.568  20.077  0.00  0.00    +0.000 C 
ATOM     11  C   UNL     1       8.002   6.380  19.082  0.00  0.00    +0.000 C 
ATOM     12  C   UNL     1       8.605   7.754  18.936  0.00  0.00    +0.000 C 
ENDBRANCH   3  11
ENDBRANCH   1   8
BRANCH   2  13
ATOM     13  C   UNL     1       2.568   7.590  17.920  0.00  0.00    +0.000 C 
ATOM     14  C   UNL     1       1.950   8.939  17.657  0.00  0.00    +0.000 C 
ATOM     15  C   UNL     1       1.894   6.652  18.621  0.00  0.00    +0.000 C 
BRANCH  15  16
ATOM     16  C   UNL     1       2.412   5.338  18.949  0.00  0.00    +0.000 C 
ATOM     17  C   UNL     1       2.432   4.785  20.175  0.00  0.00    +0.000 C 
BRANCH  17  18
ATOM     18  C   UNL     1       2.972   3.459  20.506  0.00  0.00    +0.000 C 
ATOM     19  C   UNL     1       2.230   2.565  21.477  0.00  0.00    +0.000 C 
ATOM     20  C   UNL     1       4.130   3.052  19.938  0.00  0.00    +0.000 C 
BRANCH  20  21
ATOM     21  C   UNL     1       4.748   1.721  20.178  0.00  0.00    +0.000 C 
ATOM     22  O   UNL     1       5.388   1.395  21.163  0.00  0.00    +0.000 OA
BRANCH  21  23
ATOM     23  O   UNL     1       4.503   0.866  19.164  0.00  0.00    +0.000 OA
ATOM     24  H   UNL     1       4.931  -0.007  19.236  0.00  0.00    +0.000 HD
ENDBRANCH  21  23
ENDBRANCH  20  21
ENDBRANCH  17  18
ENDBRANCH  15  16
ENDBRANCH   2  13
TORSDOF 7
ENDMDL
MODEL 9
REMARK VINA RESULT:      -6.7      4.591      8.045
REMARK  Name = 
REMARK  11 active torsions:
REMARK  status: ('A' for Active; 'I' for Inactive)
REMARK    1  A    between atoms: C_2  and  C_3
REMARK    2  A    between atoms: C_2  and  C_4
REMARK    3  A    between atoms: C_7  and  C_8
REMARK    4  A    between atoms: C_9  and  C_10
REMARK    5  A    between atoms: C_11  and  C_12
REMARK    6  A    between atoms: C_12  and  C_13
REMARK    7  A    between atoms: C_14  and  C_15
REMARK    8  A    between atoms: C_16  and  C_17
REMARK    9  A    between atoms: C_17  and  C_18
REMARK   10  A    between atoms: C_19  and  C_20
REMARK   11  A    between atoms: C_20  and  O_22
REMARK                            x       y       z     vdW  Elec       q    Type
REMARK                         _______ _______ _______ _____ _____    ______ ____
ROOT
ATOM      1  C   UNL     1       2.757   6.763  19.083  0.00  0.00    +0.000 C 
ATOM      2  C   UNL     1       1.896   7.794  19.082  0.00  0.00    +0.000 C 
ENDROOT
BRANCH   1   8
ATOM      3  C   UNL     1       5.621   5.501  18.478  0.00  0.00    +0.000 C 
ATOM      4  C   UNL     1       5.267   4.006  18.570  0.00  0.00    +0.000 C 
ATOM      5  C   UNL     1       3.790   3.779  18.886  0.00  0.00    +0.000 C 
ATOM      6  C   UNL     1       2.883   4.506  17.882  0.00  0.00    +0.000 C 
ATOM      7  C   UNL     1       1.410   4.201  18.165  0.00  0.00    +0.000 C 
ATOM      8  C   UNL     1       3.187   6.027  17.825  0.00  0.00    +0.000 C 
ATOM      9  C   UNL     1       4.683   6.235  17.501  0.00  0.00    +0.000 C 
BRANCH   3  11
ATOM     10  C   UNL     1       7.629   6.952  18.150  0.00  0.00    +0.000 C 
ATOM     11  C   UNL     1       7.095   5.717  18.146  0.00  0.00    +0.000 C 
ATOM     12  C   UNL     1       7.954   4.522  17.822  0.00  0.00    +0.000 C 
ENDBRANCH   3  11
ENDBRANCH   1   8
BRANCH   2  13
ATOM     13  C   UNL     1       1.402   8.451  20.284  0.00  0.00    +0.000 C 
ATOM     14  C   UNL     1       1.925   7.908  21.589  0.00  0.00    +0.000 C 
ATOM     15  C   UNL     1       0.479   9.438  20.273  0.00  0.00    +0.000 C 
BRANCH  15  16
ATOM     16  C   UNL     1      -0.105  10.006  19.072  0.00  0.00    +0.000 C 
ATOM     17  C   UNL     1      -1.420  10.165  18.839  0.00  0.00    +0.000 C 
BRANCH  17  18
ATOM     18  C   UNL     1      -2.008  10.727  17.615  0.00  0.00    +0.000 C 
ATOM     19  C   UNL     1      -1.924  12.216  17.355  0.00  0.00    +0.000 C 
ATOM     20  C   UNL     1      -2.621   9.906  16.733  0.00  0.00    +0.000 C 
BRANCH  20  21
ATOM     21  C   UNL     1      -3.221  10.363  15.452  0.00  0.00    +0.000 C 
ATOM     22  O   UNL     1      -2.668  10.380  14.367  0.00  0.00    +0.000 OA
BRANCH  21  23
ATOM     23  O   UNL     1      -4.503  10.754  15.612  0.00  0.00    +0.000 OA
ATOM     24  H   UNL     1      -4.633  11.560  16.145  0.00  0.00    +0.000 HD
ENDBRANCH  21  23
ENDBRANCH  20  21
ENDBRANCH  17  18
ENDBRANCH  15  16
ENDBRANCH   2  13
TORSDOF 7
ENDMDL
