MODEL 1
REMARK VINA RESULT:      -6.3      0.000      0.000
REMARK  Name = 
REMARK  6 active torsions:
REMARK  status: ('A' for Active; 'I' for Inactive)
REMARK    1  A    between atoms: C_1  and  N_2
REMARK    2  A    between atoms: N_2  and  C_3
REMARK    3  A    between atoms: N_2  and  C_4
REMARK    4  A    between atoms: C_4  and  C_5
REMARK    5  A    between atoms: C_5  and  C_6
REMARK    6  A    between atoms: C_10  and  C_11
REMARK                            x       y       z     vdW  Elec       q    Type
REMARK                         _______ _______ _______ _____ _____    ______ ____
ROOT
ATOM      1  C   UNL     1       2.552   6.024  19.625  0.00  0.00    +0.000 A 
ATOM      2  C   UNL     1       2.048   7.300  19.356  0.00  0.00    +0.000 A 
ATOM      3  C   UNL     1       2.554   8.046  18.292  0.00  0.00    +0.000 A 
ATOM      4  C   UNL     1       3.573   7.526  17.489  0.00  0.00    +0.000 A 
ATOM      5  C   UNL     1       4.108   6.255  17.737  0.00  0.00    +0.000 A 
ATOM      6  C   UNL     1       3.588   5.523  18.819  0.00  0.00    +0.000 A 
ENDROOT
BRANCH   5   7
ATOM      7  C   UNL     1       5.160   5.656  16.893  0.00  0.00    +0.000 A 
ATOM      8  C   UNL     1       5.288   5.712  15.513  0.00  0.00    +0.000 A 
ATOM      9  C   UNL     1       6.420   4.999  15.025  0.00  0.00    +0.000 A 
ATOM     10  C   UNL     1       7.134   4.418  16.044  0.00  0.00    +0.000 A 
ATOM     11  S   UNL     1       6.433   4.723  17.575  0.00  0.00    +0.000 S 
ENDBRANCH   5   7
BRANCH   1  12
ATOM     12  C   UNL     1       2.004   5.190  20.763  0.00  0.00    +0.000 C 
BRANCH  12  13
ATOM     13  C   UNL     1       0.979   4.141  20.285  0.00  0.00    +0.000 C 
BRANCH  13  15
ATOM     14  C   UNL     1       1.796   2.103  19.306  0.00  0.00    +0.000 C 
ATOM     15  N   UNL     1       1.366   2.741  20.556  0.00  0.00    +0.000 NA
ATOM     16  C   UNL     1       2.437   2.640  21.548  0.00  0.00    +0.000 C 
ENDBRANCH  13  15
ENDBRANCH  12  13
ENDBRANCH   1  12
TORSDOF 4
ENDMDL
MODEL 2
REMARK VINA RESULT:      -6.2      3.164      6.283
REMARK  Name = 
REMARK  6 active torsions:
REMARK  status: ('A' for Active; 'I' for Inactive)
REMARK    1  A    between atoms: C_1  and  N_2
REMARK    2  A    between atoms: N_2  and  C_3
REMARK    3  A    between atoms: N_2  and  C_4
REMARK    4  A    between atoms: C_4  and  C_5
REMARK    5  A    between atoms: C_5  and  C_6
REMARK    6  A    between atoms: C_10  and  C_11
REMARK                            x       y       z     vdW  Elec       q    Type
REMARK                         _______ _______ _______ _____ _____    ______ ____
ROOT
ATOM      1  C   UNL     1       5.149   4.810  16.054  0.00  0.00    +0.000 A 
ATOM      2  C   UNL     1       5.329   6.194  16.122  0.00  0.00    +0.000 A 
ATOM      3  C   UNL     1       4.578   6.958  17.016  0.00  0.00    +0.000 A 
ATOM      4  C   UNL     1       3.637   6.345  17.847  0.00  0.00    +0.000 A 
ATOM      5  C   UNL     1       3.423   4.962  17.798  0.00  0.00    +0.000 A 
ATOM      6  C   UNL     1       4.186   4.211  16.884  0.00  0.00    +0.000 A 
ENDROOT
BRANCH   5   7
ATOM      7  C   UNL     1       2.464   4.272  18.682  0.00  0.00    +0.000 A 
ATOM      8  C   UNL     1       1.583   3.250  18.361  0.00  0.00    +0.000 A 
ATOM      9  C   UNL     1       0.783   2.832  19.463  0.00  0.00    +0.000 A 
ATOM     10  C   UNL     1       1.074   3.540  20.601  0.00  0.00    +0.000 A 
ATOM     11  S   UNL     1       2.296   4.709  20.336  0.00  0.00    +0.000 S 
ENDBRANCH   5   7
BRANCH   1  12
ATOM     12  C   UNL     1       5.965   3.960  15.105  0.00  0.00    +0.000 C 
BRANCH  12  13
ATOM     13  C   UNL     1       5.531   4.134  13.635  0.00  0.00    +0.000 C 
BRANCH  13  15
ATOM     14  C   UNL     1       5.502   2.666  11.731  0.00  0.00    +0.000 C 
ATOM     15  N   UNL     1       6.367   3.403  12.660  0.00  0.00    +0.000 NA
ATOM     16  C   UNL     1       7.248   4.292  11.903  0.00  0.00    +0.000 C 
ENDBRANCH  13  15
ENDBRANCH  12  13
ENDBRANCH   1  12
TORSDOF 4
ENDMDL
MODEL 3
REMARK VINA RESULT:      -6.1      2.201      4.548
REMARK  Name = 
REMARK  6 active torsions:
REMARK  status: ('A' for Active; 'I' for Inactive)
REMARK    1  A    between atoms: C_1  and  N_2
REMARK    2  A    between atoms: N_2  and  C_3
REMARK    3  A    between atoms: N_2  and  C_4
REMARK    4  A    between atoms: C_4  and  C_5
REMARK    5  A    between atoms: C_5  and  C_6
REMARK    6  A    between atoms: C_10  and  C_11
REMARK                            x       y       z     vdW  Elec       q    Type
REMARK                         _______ _______ _______ _____ _____    ______ ____
ROOT
ATOM      1  C   UNL     1       3.439   4.401  17.534  0.00  0.00    +0.000 A 
ATOM      2  C   UNL     1       4.547   4.768  16.765  0.00  0.00    +0.000 A 
ATOM      3  C   UNL     1       4.918   6.109  16.660  0.00  0.00    +0.000 A 
ATOM      4  C   UNL     1       4.181   7.096  17.319  0.00  0.00    +0.000 A 
ATOM      5  C   UNL     1       3.059   6.765  18.089  0.00  0.00    +0.000 A 
ATOM      6  C   UNL     1       2.698   5.408  18.176  0.00  0.00    +0.000 A 
ENDROOT
BRANCH   5   7
ATOM      7  C   UNL     1       2.274   7.774  18.827  0.00  0.00    +0.000 A 
ATOM      8  C   UNL     1       1.859   7.738  20.150  0.00  0.00    +0.000 A 
ATOM      9  C   UNL     1       1.096   8.879  20.530  0.00  0.00    +0.000 A 
ATOM     10  C   UNL     1       0.949   9.763  19.490  0.00  0.00    +0.000 A 
ATOM     11  S   UNL     1       1.718   9.211  18.064  0.00  0.00    +0.000 S 
ENDBRANCH   5   7
BRANCH   1  12
ATOM     12  C   UNL     1       3.031   2.951  17.677  0.00  0.00    +0.000 C 
BRANCH  12  13
ATOM     13  C   UNL     1       3.091   2.463  19.140  0.00  0.00    +0.000 C 
BRANCH  13  15
ATOM     14  C   UNL     1       1.561   2.715  20.977  0.00  0.00    +0.000 C 
ATOM     15  N   UNL     1       1.790   2.036  19.696  0.00  0.00    +0.000 NA
ATOM     16  C   UNL     1       0.677   2.317  18.789  0.00  0.00    +0.000 C 
ENDBRANCH  13  15
ENDBRANCH  12  13
ENDBRANCH   1  12
TORSDOF 4
ENDMDL
MODEL 4
REMARK VINA RESULT:      -6.1      3.429      6.448
REMARK  Name = 
REMARK  6 active torsions:
REMARK  status: ('A' for Active; 'I' for Inactive)
REMARK    1  A    between atoms: C_1  and  N_2
REMARK    2  A    between atoms: N_2  and  C_3
REMARK    3  A    between atoms: N_2  and  C_4
REMARK    4  A    between atoms: C_4  and  C_5
REMARK    5  A    between atoms: C_5  and  C_6
REMARK    6  A    between atoms: C_10  and  C_11
REMARK                            x       y       z     vdW  Elec       q    Type
REMARK                         _______ _______ _______ _____ _____    ______ ____
ROOT
ATOM      1  C   UNL     1       6.357   4.416  15.939  0.00  0.00    +0.000 A 
ATOM      2  C   UNL     1       7.268   4.867  16.898  0.00  0.00    +0.000 A 
ATOM      3  C   UNL     1       6.916   4.885  18.248  0.00  0.00    +0.000 A 
ATOM      4  C   UNL     1       5.648   4.458  18.651  0.00  0.00    +0.000 A 
ATOM      5  C   UNL     1       4.707   4.010  17.714  0.00  0.00    +0.000 A 
ATOM      6  C   UNL     1       5.080   4.007  16.358  0.00  0.00    +0.000 A 
ENDROOT
BRANCH   5   7
ATOM      7  C   UNL     1       3.370   3.519  18.102  0.00  0.00    +0.000 A 
ATOM      8  C   UNL     1       2.157   4.187  18.030  0.00  0.00    +0.000 A 
ATOM      9  C   UNL     1       1.061   3.413  18.511  0.00  0.00    +0.000 A 
ATOM     10  C   UNL     1       1.462   2.171  18.935  0.00  0.00    +0.000 A 
ATOM     11  S   UNL     1       3.150   1.947  18.763  0.00  0.00    +0.000 S 
ENDBRANCH   5   7
BRANCH   1  12
ATOM     12  C   UNL     1       6.724   4.371  14.471  0.00  0.00    +0.000 C 
BRANCH  12  13
ATOM     13  C   UNL     1       5.499   4.127  13.565  0.00  0.00    +0.000 C 
BRANCH  13  15
ATOM     14  C   UNL     1       4.592   3.176  11.551  0.00  0.00    +0.000 C 
ATOM     15  N   UNL     1       5.726   3.146  12.482  0.00  0.00    +0.000 NA
ATOM     16  C   UNL     1       6.966   3.404  11.747  0.00  0.00    +0.000 C 
ENDBRANCH  13  15
ENDBRANCH  12  13
ENDBRANCH   1  12
TORSDOF 4
ENDMDL
MODEL 5
REMARK VINA RESULT:      -6.1      3.146      6.292
REMARK  Name = 
REMARK  6 active torsions:
REMARK  status: ('A' for Active; 'I' for Inactive)
REMARK    1  A    between atoms: C_1  and  N_2
REMARK    2  A    between atoms: N_2  and  C_3
REMARK    3  A    between atoms: N_2  and  C_4
REMARK    4  A    between atoms: C_4  and  C_5
REMARK    5  A    between atoms: C_5  and  C_6
REMARK    6  A    between atoms: C_10  and  C_11
REMARK                            x       y       z     vdW  Elec       q    Type
REMARK                         _______ _______ _______ _____ _____    ______ ____
ROOT
ATOM      1  C   UNL     1       5.098   4.773  16.146  0.00  0.00    +0.000 A 
ATOM      2  C   UNL     1       5.277   6.159  16.125  0.00  0.00    +0.000 A 
ATOM      3  C   UNL     1       4.583   6.972  17.021  0.00  0.00    +0.000 A 
ATOM      4  C   UNL     1       3.698   6.406  17.944  0.00  0.00    +0.000 A 
ATOM      5  C   UNL     1       3.487   5.022  17.985  0.00  0.00    +0.000 A 
ATOM      6  C   UNL     1       4.192   4.222  17.068  0.00  0.00    +0.000 A 
ENDROOT
BRANCH   5   7
ATOM      7  C   UNL     1       2.588   4.383  18.965  0.00  0.00    +0.000 A 
ATOM      8  C   UNL     1       2.471   4.647  20.322  0.00  0.00    +0.000 A 
ATOM      9  C   UNL     1       1.511   3.821  20.974  0.00  0.00    +0.000 A 
ATOM     10  C   UNL     1       0.912   2.948  20.100  0.00  0.00    +0.000 A 
ATOM     11  S   UNL     1       1.516   3.119  18.507  0.00  0.00    +0.000 S 
ENDBRANCH   5   7
BRANCH   1  12
ATOM     12  C   UNL     1       5.856   3.871  15.196  0.00  0.00    +0.000 C 
BRANCH  12  13
ATOM     13  C   UNL     1       5.513   4.151  13.718  0.00  0.00    +0.000 C 
BRANCH  13  15
ATOM     14  C   UNL     1       5.507   2.700  11.801  0.00  0.00    +0.000 C 
ATOM     15  N   UNL     1       6.361   3.429  12.746  0.00  0.00    +0.000 NA
ATOM     16  C   UNL     1       7.249   4.327  12.007  0.00  0.00    +0.000 C 
ENDBRANCH  13  15
ENDBRANCH  12  13
ENDBRANCH   1  12
TORSDOF 4
ENDMDL
MODEL 6
REMARK VINA RESULT:      -6.0      2.106      4.397
REMARK  Name = 
REMARK  6 active torsions:
REMARK  status: ('A' for Active; 'I' for Inactive)
REMARK    1  A    between atoms: C_1  and  N_2
REMARK    2  A    between atoms: N_2  and  C_3
REMARK    3  A    between atoms: N_2  and  C_4
REMARK    4  A    between atoms: C_4  and  C_5
REMARK    5  A    between atoms: C_5  and  C_6
REMARK    6  A    between atoms: C_10  and  C_11
REMARK                            x       y       z     vdW  Elec       q    Type
REMARK                         _______ _______ _______ _____ _____    ______ ____
ROOT
ATOM      1  C   UNL     1       3.346   4.309  17.419  0.00  0.00    +0.000 A 
ATOM      2  C   UNL     1       4.615   4.544  16.884  0.00  0.00    +0.000 A 
ATOM      3  C   UNL     1       5.145   5.834  16.871  0.00  0.00    +0.000 A 
ATOM      4  C   UNL     1       4.409   6.903  17.389  0.00  0.00    +0.000 A 
ATOM      5  C   UNL     1       3.129   6.704  17.923  0.00  0.00    +0.000 A 
ATOM      6  C   UNL     1       2.611   5.397  17.920  0.00  0.00    +0.000 A 
ENDROOT
BRANCH   5   7
ATOM      7  C   UNL     1       2.333   7.800  18.511  0.00  0.00    +0.000 A 
ATOM      8  C   UNL     1       1.915   8.976  17.906  0.00  0.00    +0.000 A 
ATOM      9  C   UNL     1       1.176   9.824  18.781  0.00  0.00    +0.000 A 
ATOM     10  C   UNL     1       1.043   9.274  20.031  0.00  0.00    +0.000 A 
ATOM     11  S   UNL     1       1.815   7.752  20.150  0.00  0.00    +0.000 S 
ENDBRANCH   5   7
BRANCH   1  12
ATOM     12  C   UNL     1       2.759   2.914  17.461  0.00  0.00    +0.000 C 
BRANCH  12  13
ATOM     13  C   UNL     1       3.046   2.193  18.795  0.00  0.00    +0.000 C 
BRANCH  13  15
ATOM     14  C   UNL     1       2.072   2.964  20.853  0.00  0.00    +0.000 C 
ATOM     15  N   UNL     1       1.878   2.085  19.694  0.00  0.00    +0.000 NA
ATOM     16  C   UNL     1       0.624   2.432  19.024  0.00  0.00    +0.000 C 
ENDBRANCH  13  15
ENDBRANCH  12  13
ENDBRANCH   1  12
TORSDOF 4
ENDMDL
MODEL 7
REMARK VINA RESULT:      -6.0      3.065      6.368
REMARK  Name = 
REMARK  6 active torsions:
REMARK  status: ('A' for Active; 'I' for Inactive)
REMARK    1  A    between atoms: C_1  and  N_2
REMARK    2  A    between atoms: N_2  and  C_3
REMARK    3  A    between atoms: N_2  and  C_4
REMARK    4  A    between atoms: C_4  and  C_5
REMARK    5  A    between atoms: C_5  and  C_6
REMARK    6  A    between atoms: C_10  and  C_11
REMARK                            x       y       z     vdW  Elec       q    Type
REMARK                         _______ _______ _______ _____ _____    ______ ____
ROOT
ATOM      1  C   UNL     1       5.037   4.829  16.178  0.00  0.00    +0.000 A 
ATOM      2  C   UNL     1       5.164   6.221  16.207  0.00  0.00    +0.000 A 
ATOM      3  C   UNL     1       4.398   6.978  17.094  0.00  0.00    +0.000 A 
ATOM      4  C   UNL     1       3.494   6.352  17.956  0.00  0.00    +0.000 A 
ATOM      5  C   UNL     1       3.335   4.960  17.946  0.00  0.00    +0.000 A 
ATOM      6  C   UNL     1       4.111   4.216  17.039  0.00  0.00    +0.000 A 
ENDROOT
BRANCH   5   7
ATOM      7  C   UNL     1       2.417   4.257  18.863  0.00  0.00    +0.000 A 
ATOM      8  C   UNL     1       1.457   3.306  18.553  0.00  0.00    +0.000 A 
ATOM      9  C   UNL     1       0.731   2.849  19.691  0.00  0.00    +0.000 A 
ATOM     10  C   UNL     1       1.157   3.459  20.845  0.00  0.00    +0.000 A 
ATOM     11  S   UNL     1       2.415   4.582  20.551  0.00  0.00    +0.000 S 
ENDBRANCH   5   7
BRANCH   1  12
ATOM     12  C   UNL     1       5.871   3.987  15.237  0.00  0.00    +0.000 C 
BRANCH  12  13
ATOM     13  C   UNL     1       7.108   4.742  14.709  0.00  0.00    +0.000 C 
BRANCH  13  15
ATOM     14  C   UNL     1       8.345   5.632  12.849  0.00  0.00    +0.000 C 
ATOM     15  N   UNL     1       7.057   5.068  13.268  0.00  0.00    +0.000 NA
ATOM     16  C   UNL     1       6.747   3.899  12.444  0.00  0.00    +0.000 C 
ENDBRANCH  13  15
ENDBRANCH  12  13
ENDBRANCH   1  12
TORSDOF 4
ENDMDL
MODEL 8
REMARK VINA RESULT:      -5.9      3.463      6.375
REMARK  Name = 
REMARK  6 active torsions:
REMARK  status: ('A' for Active; 'I' for Inactive)
REMARK    1  A    between atoms: C_1  and  N_2
REMARK    2  A    between atoms: N_2  and  C_3
REMARK    3  A    between atoms: N_2  and  C_4
REMARK    4  A    between atoms: C_4  and  C_5
REMARK    5  A    between atoms: C_5  and  C_6
REMARK    6  A    between atoms: C_10  and  C_11
REMARK                            x       y       z     vdW  Elec       q    Type
REMARK                         _______ _______ _______ _____ _____    ______ ____
ROOT
ATOM      1  C   UNL     1       6.361   4.742  16.297  0.00  0.00    +0.000 A 
ATOM      2  C   UNL     1       7.213   5.343  17.228  0.00  0.00    +0.000 A 
ATOM      3  C   UNL     1       6.864   5.382  18.578  0.00  0.00    +0.000 A 
ATOM      4  C   UNL     1       5.657   4.826  19.010  0.00  0.00    +0.000 A 
ATOM      5  C   UNL     1       4.774   4.226  18.102  0.00  0.00    +0.000 A 
ATOM      6  C   UNL     1       5.142   4.204  16.745  0.00  0.00    +0.000 A 
ENDROOT
BRANCH   5   7
ATOM      7  C   UNL     1       3.507   3.598  18.522  0.00  0.00    +0.000 A 
ATOM      8  C   UNL     1       3.223   2.247  18.658  0.00  0.00    +0.000 A 
ATOM      9  C   UNL     1       1.881   1.994  19.066  0.00  0.00    +0.000 A 
ATOM     10  C   UNL     1       1.172   3.157  19.235  0.00  0.00    +0.000 A 
ATOM     11  S   UNL     1       2.119   4.542  18.893  0.00  0.00    +0.000 S 
ENDBRANCH   5   7
BRANCH   1  12
ATOM     12  C   UNL     1       6.728   4.672  14.831  0.00  0.00    +0.000 C 
BRANCH  12  13
ATOM     13  C   UNL     1       5.633   3.993  13.981  0.00  0.00    +0.000 C 
BRANCH  13  15
ATOM     14  C   UNL     1       5.001   3.195  11.803  0.00  0.00    +0.000 C 
ATOM     15  N   UNL     1       6.124   3.381  12.728  0.00  0.00    +0.000 NA
ATOM     16  C   UNL     1       7.160   4.188  12.082  0.00  0.00    +0.000 C 
ENDBRANCH  13  15
ENDBRANCH  12  13
ENDBRANCH   1  12
TORSDOF 4
ENDMDL
MODEL 9
REMARK VINA RESULT:      -5.9      2.226      4.416
REMARK  Name = 
REMARK  6 active torsions:
REMARK  status: ('A' for Active; 'I' for Inactive)
REMARK    1  A    between atoms: C_1  and  N_2
REMARK    2  A    between atoms: N_2  and  C_3
REMARK    3  A    between atoms: N_2  and  C_4
REMARK    4  A    between atoms: C_4  and  C_5
REMARK    5  A    between atoms: C_5  and  C_6
REMARK    6  A    between atoms: C_10  and  C_11
REMARK                            x       y       z     vdW  Elec       q    Type
REMARK                         _______ _______ _______ _____ _____    ______ ____
ROOT
ATOM      1  C   UNL     1       3.249   4.547  17.594  0.00  0.00    +0.000 A 
ATOM      2  C   UNL     1       4.460   4.799  16.943  0.00  0.00    +0.000 A 
ATOM      3  C   UNL     1       4.924   6.107  16.802  0.00  0.00    +0.000 A 
ATOM      4  C   UNL     1       4.180   7.176  17.306  0.00  0.00    +0.000 A 
ATOM      5  C   UNL     1       2.957   6.961  17.955  0.00  0.00    +0.000 A 
ATOM      6  C   UNL     1       2.504   5.636  18.080  0.00  0.00    +0.000 A 
ENDROOT
BRANCH   5   7
ATOM      7  C   UNL     1       2.157   8.060  18.531  0.00  0.00    +0.000 A 
ATOM      8  C   UNL     1       1.687   9.201  17.899  0.00  0.00    +0.000 A 
ATOM      9  C   UNL     1       0.961  10.065  18.768  0.00  0.00    +0.000 A 
ATOM     10  C   UNL     1       0.890   9.562  20.043  0.00  0.00    +0.000 A 
ATOM     11  S   UNL     1       1.704   8.064  20.189  0.00  0.00    +0.000 S 
ENDBRANCH   5   7
BRANCH   1  12
ATOM     12  C   UNL     1       2.736   3.136  17.775  0.00  0.00    +0.000 C 
BRANCH  12  13
ATOM     13  C   UNL     1       2.116   2.908  19.170  0.00  0.00    +0.000 C 
BRANCH  13  15
ATOM     14  C   UNL     1       2.386   2.736  21.553  0.00  0.00    +0.000 C 
ATOM     15  N   UNL     1       3.066   3.056  20.293  0.00  0.00    +0.000 NA
ATOM     16  C   UNL     1       4.243   2.199  20.143  0.00  0.00    +0.000 C 
ENDBRANCH  13  15
ENDBRANCH  12  13
ENDBRANCH   1  12
TORSDOF 4
ENDMDL
