MODEL 1
REMARK VINA RESULT:      -8.0      0.000      0.000
REMARK  Name = 
REMARK  8 active torsions:
REMARK  status: ('A' for Active; 'I' for Inactive)
REMARK    1  A    between atoms: C_1  and  C_2
REMARK    2  A    between atoms: C_2  and  C_3
REMARK    3  A    between atoms: C_3  and  C_4
REMARK    4  A    between atoms: C_4  and  C_5
REMARK    5  A    between atoms: N_7  and  C_8
REMARK    6  A    between atoms: N_12  and  C_13
REMARK    7  A    between atoms: C_17  and  C_18
REMARK    8  A    between atoms: C_19  and  C_20
REMARK                            x       y       z     vdW  Elec       q    Type
REMARK                         _______ _______ _______ _____ _____    ______ ____
ROOT
ATOM      1  C   UNL     1       3.409   5.334  18.277  0.00  0.00    +0.000 A 
ATOM      2  C   UNL     1       4.481   5.173  17.445  0.00  0.00    +0.000 A 
ATOM      3  C   UNL     1       4.777   6.458  16.978  0.00  0.00    +0.000 A 
ATOM      4  N   UNL     1       3.989   7.394  17.489  0.00  0.00    +0.000 NA
ATOM      5  N   UNL     1       3.138   6.717  18.326  0.00  0.00    +0.000 N 
ATOM      6  C   UNL     1       5.831   6.604  15.951  0.00  0.00    +0.000 C 
ATOM      7  S   UNL     1       6.064   4.873  15.428  0.00  0.00    +0.000 S 
ATOM      8  O   UNL     1       5.255   4.622  14.255  0.00  0.00    +0.000 OA
ATOM      9  O   UNL     1       7.477   4.544  15.460  0.00  0.00    +0.000 OA
ATOM     10  C   UNL     1       5.251   4.067  16.851  0.00  0.00    +0.000 C 
ENDROOT
BRANCH   5  11
ATOM     11  C   UNL     1       2.239   7.411  19.199  0.00  0.00    +0.000 A 
ATOM     12  C   UNL     1       1.934   6.811  20.435  0.00  0.00    +0.000 A 
ATOM     13  C   UNL     1       1.141   7.465  21.373  0.00  0.00    +0.000 A 
ATOM     14  C   UNL     1       0.623   8.719  21.084  0.00  0.00    +0.000 A 
ATOM     15  C   UNL     1       0.883   9.340  19.852  0.00  0.00    +0.000 A 
ATOM     16  C   UNL     1       0.254  10.688  19.604  0.00  0.00    +0.000 C 
ATOM     17  C   UNL     1       1.707   8.696  18.890  0.00  0.00    +0.000 A 
ATOM     18  C   UNL     1       1.966   9.374  17.563  0.00  0.00    +0.000 C 
ENDBRANCH   5  11
BRANCH   1  21
ATOM     19  C   UNL     1       1.501   3.833  18.142  0.00  0.00    +0.000 C 
ATOM     20  O   UNL     1       1.111   4.426  17.152  0.00  0.00    +0.000 OA
ATOM     21  N   UNL     1       2.698   4.268  18.810  0.00  0.00    +0.000 N 
ATOM     22  H   UNL     1       3.103   3.732  19.566  0.00  0.00    +0.000 HD
BRANCH  19  23
ATOM     23  C   UNL     1       0.872   2.584  18.708  0.00  0.00    +0.000 C 
BRANCH  23  24
ATOM     24  C   UNL     1       1.673   2.088  19.909  0.00  0.00    +0.000 C 
BRANCH  24  26
ATOM     25  C   UNL     1       2.278   3.369  21.990  0.00  0.00    +0.000 C 
ATOM     26  C   UNL     1       1.159   2.685  21.219  0.00  0.00    +0.000 C 
ENDBRANCH  24  26
ENDBRANCH  23  24
ENDBRANCH  19  23
ENDBRANCH   1  21
TORSDOF 5
ENDMDL
MODEL 2
REMARK VINA RESULT:      -7.8      3.148      5.755
REMARK  Name = 
REMARK  8 active torsions:
REMARK  status: ('A' for Active; 'I' for Inactive)
REMARK    1  A    between atoms: C_1  and  C_2
REMARK    2  A    between atoms: C_2  and  C_3
REMARK    3  A    between atoms: C_3  and  C_4
REMARK    4  A    between atoms: C_4  and  C_5
REMARK    5  A    between atoms: N_7  and  C_8
REMARK    6  A    between atoms: N_12  and  C_13
REMARK    7  A    between atoms: C_17  and  C_18
REMARK    8  A    between atoms: C_19  and  C_20
REMARK                            x       y       z     vdW  Elec       q    Type
REMARK                         _______ _______ _______ _____ _____    ______ ____
ROOT
ATOM      1  C   UNL     1       2.374   6.769  19.758  0.00  0.00    +0.000 A 
ATOM      2  C   UNL     1       1.591   7.870  19.959  0.00  0.00    +0.000 A 
ATOM      3  C   UNL     1       1.764   8.655  18.814  0.00  0.00    +0.000 A 
ATOM      4  N   UNL     1       2.566   8.100  17.916  0.00  0.00    +0.000 NA
ATOM      5  N   UNL     1       2.942   6.904  18.475  0.00  0.00    +0.000 N 
ATOM      6  C   UNL     1       1.128   9.990  18.779  0.00  0.00    +0.000 C 
ATOM      7  S   UNL     1       0.651  10.207  20.526  0.00  0.00    +0.000 S 
ATOM      8  O   UNL     1       1.686  10.954  21.207  0.00  0.00    +0.000 OA
ATOM      9  O   UNL     1      -0.743  10.600  20.601  0.00  0.00    +0.000 OA
ATOM     10  C   UNL     1       0.789   8.462  21.044  0.00  0.00    +0.000 C 
ENDROOT
BRANCH   5  11
ATOM     11  C   UNL     1       3.682   5.931  17.728  0.00  0.00    +0.000 A 
ATOM     12  C   UNL     1       3.033   4.724  17.405  0.00  0.00    +0.000 A 
ATOM     13  C   UNL     1       3.654   3.768  16.606  0.00  0.00    +0.000 A 
ATOM     14  C   UNL     1       4.939   3.993  16.135  0.00  0.00    +0.000 A 
ATOM     15  C   UNL     1       5.629   5.172  16.456  0.00  0.00    +0.000 A 
ATOM     16  C   UNL     1       7.035   5.323  15.931  0.00  0.00    +0.000 C 
ATOM     17  C   UNL     1       5.003   6.169  17.254  0.00  0.00    +0.000 A 
ATOM     18  C   UNL     1       5.767   7.428  17.600  0.00  0.00    +0.000 C 
ENDBRANCH   5  11
BRANCH   1  21
ATOM     19  C   UNL     1       1.787   4.650  20.797  0.00  0.00    +0.000 C 
ATOM     20  O   UNL     1       0.868   4.524  20.008  0.00  0.00    +0.000 OA
ATOM     21  N   UNL     1       2.617   5.823  20.744  0.00  0.00    +0.000 N 
ATOM     22  H   UNL     1       3.450   5.904  21.313  0.00  0.00    +0.000 HD
BRANCH  19  23
ATOM     23  C   UNL     1       2.210   3.614  21.808  0.00  0.00    +0.000 C 
BRANCH  23  24
ATOM     24  C   UNL     1       2.569   2.307  21.106  0.00  0.00    +0.000 C 
BRANCH  24  26
ATOM     25  C   UNL     1       3.779   1.464  19.065  0.00  0.00    +0.000 C 
ATOM     26  C   UNL     1       3.800   2.463  20.212  0.00  0.00    +0.000 C 
ENDBRANCH  24  26
ENDBRANCH  23  24
ENDBRANCH  19  23
ENDBRANCH   1  21
TORSDOF 5
ENDMDL
MODEL 3
REMARK VINA RESULT:      -7.8      2.686      5.126
REMARK  Name = 
REMARK  8 active torsions:
REMARK  status: ('A' for Active; 'I' for Inactive)
REMARK    1  A    between atoms: C_1  and  C_2
REMARK    2  A    between atoms: C_2  and  C_3
REMARK    3  A    between atoms: C_3  and  C_4
REMARK    4  A    between atoms: C_4  and  C_5
REMARK    5  A    between atoms: N_7  and  C_8
REMARK    6  A    between atoms: N_12  and  C_13
REMARK    7  A    between atoms: C_17  and  C_18
REMARK    8  A    between atoms: C_19  and  C_20
REMARK                            x       y       z     vdW  Elec       q    Type
REMARK                         _______ _______ _______ _____ _____    ______ ____
ROOT
ATOM      1  C   UNL     1       3.772   5.877  18.228  0.00  0.00    +0.000 A 
ATOM      2  C   UNL     1       3.720   4.519  18.373  0.00  0.00    +0.000 A 
ATOM      3  C   UNL     1       2.640   4.285  19.230  0.00  0.00    +0.000 A 
ATOM      4  N   UNL     1       2.009   5.393  19.591  0.00  0.00    +0.000 NA
ATOM      5  N   UNL     1       2.685   6.404  18.955  0.00  0.00    +0.000 N 
ATOM      6  C   UNL     1       2.393   2.898  19.682  0.00  0.00    +0.000 C 
ATOM      7  S   UNL     1       3.940   2.075  19.175  0.00  0.00    +0.000 S 
ATOM      8  O   UNL     1       4.850   2.051  20.299  0.00  0.00    +0.000 OA
ATOM      9  O   UNL     1       3.625   0.872  18.427  0.00  0.00    +0.000 OA
ATOM     10  C   UNL     1       4.531   3.345  18.004  0.00  0.00    +0.000 C 
ENDROOT
BRANCH   5  11
ATOM     11  C   UNL     1       2.195   7.750  18.962  0.00  0.00    +0.000 A 
ATOM     12  C   UNL     1       2.362   8.512  17.790  0.00  0.00    +0.000 A 
ATOM     13  C   UNL     1       1.834   9.796  17.689  0.00  0.00    +0.000 A 
ATOM     14  C   UNL     1       1.150  10.347  18.762  0.00  0.00    +0.000 A 
ATOM     15  C   UNL     1       0.985   9.628  19.957  0.00  0.00    +0.000 A 
ATOM     16  C   UNL     1       0.257  10.313  21.087  0.00  0.00    +0.000 C 
ATOM     17  C   UNL     1       1.500   8.309  20.072  0.00  0.00    +0.000 A 
ATOM     18  C   UNL     1       1.323   7.555  21.371  0.00  0.00    +0.000 C 
ENDBRANCH   5  11
BRANCH   1  21
ATOM     19  C   UNL     1       6.136   6.442  18.154  0.00  0.00    +0.000 C 
ATOM     20  O   UNL     1       6.307   5.835  19.196  0.00  0.00    +0.000 OA
ATOM     21  N   UNL     1       4.816   6.530  17.589  0.00  0.00    +0.000 N 
ATOM     22  H   UNL     1       4.662   6.933  16.674  0.00  0.00    +0.000 HD
BRANCH  19  23
ATOM     23  C   UNL     1       7.230   7.061  17.322  0.00  0.00    +0.000 C 
BRANCH  23  24
ATOM     24  C   UNL     1       8.219   7.802  18.218  0.00  0.00    +0.000 C 
BRANCH  24  26
ATOM     25  C   UNL     1       9.111  10.048  18.927  0.00  0.00    +0.000 C 
ATOM     26  C   UNL     1       8.205   9.309  17.954  0.00  0.00    +0.000 C 
ENDBRANCH  24  26
ENDBRANCH  23  24
ENDBRANCH  19  23
ENDBRANCH   1  21
TORSDOF 5
ENDMDL
MODEL 4
REMARK VINA RESULT:      -7.7      0.932      1.761
REMARK  Name = 
REMARK  8 active torsions:
REMARK  status: ('A' for Active; 'I' for Inactive)
REMARK    1  A    between atoms: C_1  and  C_2
REMARK    2  A    between atoms: C_2  and  C_3
REMARK    3  A    between atoms: C_3  and  C_4
REMARK    4  A    between atoms: C_4  and  C_5
REMARK    5  A    between atoms: N_7  and  C_8
REMARK    6  A    between atoms: N_12  and  C_13
REMARK    7  A    between atoms: C_17  and  C_18
REMARK    8  A    between atoms: C_19  and  C_20
REMARK                            x       y       z     vdW  Elec       q    Type
REMARK                         _______ _______ _______ _____ _____    ______ ____
ROOT
ATOM      1  C   UNL     1       3.350   5.865  18.551  0.00  0.00    +0.000 A 
ATOM      2  C   UNL     1       4.564   5.484  18.051  0.00  0.00    +0.000 A 
ATOM      3  C   UNL     1       5.034   6.597  17.346  0.00  0.00    +0.000 A 
ATOM      4  N   UNL     1       4.215   7.637  17.406  0.00  0.00    +0.000 NA
ATOM      5  N   UNL     1       3.163   7.211  18.177  0.00  0.00    +0.000 N 
ATOM      6  C   UNL     1       6.291   6.459  16.579  0.00  0.00    +0.000 C 
ATOM      7  S   UNL     1       6.522   4.650  16.590  0.00  0.00    +0.000 S 
ATOM      8  O   UNL     1       5.970   4.098  15.372  0.00  0.00    +0.000 OA
ATOM      9  O   UNL     1       7.871   4.337  17.022  0.00  0.00    +0.000 OA
ATOM     10  C   UNL     1       5.373   4.256  17.953  0.00  0.00    +0.000 C 
ENDROOT
BRANCH   5  11
ATOM     11  C   UNL     1       2.143   8.116  18.615  0.00  0.00    +0.000 A 
ATOM     12  C   UNL     1       1.602   9.002  17.663  0.00  0.00    +0.000 A 
ATOM     13  C   UNL     1       0.548   9.849  17.990  0.00  0.00    +0.000 A 
ATOM     14  C   UNL     1       0.029   9.840  19.277  0.00  0.00    +0.000 A 
ATOM     15  C   UNL     1       0.558   8.990  20.261  0.00  0.00    +0.000 A 
ATOM     16  C   UNL     1      -0.041   9.066  21.644  0.00  0.00    +0.000 C 
ATOM     17  C   UNL     1       1.622   8.104  19.940  0.00  0.00    +0.000 A 
ATOM     18  C   UNL     1       2.187   7.204  21.017  0.00  0.00    +0.000 C 
ENDBRANCH   5  11
BRANCH   1  21
ATOM     19  C   UNL     1       1.748   4.046  18.355  0.00  0.00    +0.000 C 
ATOM     20  O   UNL     1       1.879   4.069  17.144  0.00  0.00    +0.000 OA
ATOM     21  N   UNL     1       2.476   4.982  19.169  0.00  0.00    +0.000 N 
ATOM     22  H   UNL     1       2.471   4.916  20.178  0.00  0.00    +0.000 HD
BRANCH  19  23
ATOM     23  C   UNL     1       0.930   3.035  19.119  0.00  0.00    +0.000 C 
BRANCH  23  24
ATOM     24  C   UNL     1       0.740   3.493  20.562  0.00  0.00    +0.000 C 
BRANCH  24  26
ATOM     25  C   UNL     1       2.873   2.524  21.485  0.00  0.00    +0.000 C 
ATOM     26  C   UNL     1       1.353   2.506  21.556  0.00  0.00    +0.000 C 
ENDBRANCH  24  26
ENDBRANCH  23  24
ENDBRANCH  19  23
ENDBRANCH   1  21
TORSDOF 5
ENDMDL
MODEL 5
REMARK VINA RESULT:      -7.5      0.909      1.230
REMARK  Name = 
REMARK  8 active torsions:
REMARK  status: ('A' for Active; 'I' for Inactive)
REMARK    1  A    between atoms: C_1  and  C_2
REMARK    2  A    between atoms: C_2  and  C_3
REMARK    3  A    between atoms: C_3  and  C_4
REMARK    4  A    between atoms: C_4  and  C_5
REMARK    5  A    between atoms: N_7  and  C_8
REMARK    6  A    between atoms: N_12  and  C_13
REMARK    7  A    between atoms: C_17  and  C_18
REMARK    8  A    between atoms: C_19  and  C_20
REMARK                            x       y       z     vdW  Elec       q    Type
REMARK                         _______ _______ _______ _____ _____    ______ ____
ROOT
ATOM      1  C   UNL     1       3.212   5.668  18.704  0.00  0.00    +0.000 A 
ATOM      2  C   UNL     1       4.336   5.439  17.961  0.00  0.00    +0.000 A 
ATOM      3  C   UNL     1       4.688   6.687  17.437  0.00  0.00    +0.000 A 
ATOM      4  N   UNL     1       3.884   7.665  17.833  0.00  0.00    +0.000 NA
ATOM      5  N   UNL     1       2.965   7.054  18.648  0.00  0.00    +0.000 N 
ATOM      6  C   UNL     1       5.813   6.752  16.479  0.00  0.00    +0.000 C 
ATOM      7  S   UNL     1       6.049   4.988  16.083  0.00  0.00    +0.000 S 
ATOM      8  O   UNL     1       5.318   4.676  14.874  0.00  0.00    +0.000 OA
ATOM      9  O   UNL     1       7.449   4.642  16.234  0.00  0.00    +0.000 OA
ATOM     10  C   UNL     1       5.124   4.286  17.492  0.00  0.00    +0.000 C 
ENDROOT
BRANCH   5  11
ATOM     11  C   UNL     1       2.021   7.816  19.411  0.00  0.00    +0.000 A 
ATOM     12  C   UNL     1       1.701   7.355  20.702  0.00  0.00    +0.000 A 
ATOM     13  C   UNL     1       0.863   8.087  21.537  0.00  0.00    +0.000 A 
ATOM     14  C   UNL     1       0.314   9.280  21.089  0.00  0.00    +0.000 A 
ATOM     15  C   UNL     1       0.588   9.760  19.798  0.00  0.00    +0.000 A 
ATOM     16  C   UNL     1      -0.076  11.047  19.377  0.00  0.00    +0.000 C 
ATOM     17  C   UNL     1       1.458   9.035  18.939  0.00  0.00    +0.000 A 
ATOM     18  C   UNL     1       1.732   9.561  17.547  0.00  0.00    +0.000 C 
ENDBRANCH   5  11
BRANCH   1  21
ATOM     19  C   UNL     1       1.410   4.055  18.449  0.00  0.00    +0.000 C 
ATOM     20  O   UNL     1       1.196   4.480  17.327  0.00  0.00    +0.000 OA
ATOM     21  N   UNL     1       2.447   4.648  19.251  0.00  0.00    +0.000 N 
ATOM     22  H   UNL     1       2.718   4.247  20.139  0.00  0.00    +0.000 HD
BRANCH  19  23
ATOM     23  C   UNL     1       0.724   2.864  19.070  0.00  0.00    +0.000 C 
BRANCH  23  24
ATOM     24  C   UNL     1       1.751   1.800  19.445  0.00  0.00    +0.000 C 
BRANCH  24  26
ATOM     25  C   UNL     1       4.100   1.130  18.831  0.00  0.00    +0.000 C 
ATOM     26  C   UNL     1       2.731   1.530  18.302  0.00  0.00    +0.000 C 
ENDBRANCH  24  26
ENDBRANCH  23  24
ENDBRANCH  19  23
ENDBRANCH   1  21
TORSDOF 5
ENDMDL
MODEL 6
REMARK VINA RESULT:      -7.3      1.405      2.274
REMARK  Name = 
REMARK  8 active torsions:
REMARK  status: ('A' for Active; 'I' for Inactive)
REMARK    1  A    between atoms: C_1  and  C_2
REMARK    2  A    between atoms: C_2  and  C_3
REMARK    3  A    between atoms: C_3  and  C_4
REMARK    4  A    between atoms: C_4  and  C_5
REMARK    5  A    between atoms: N_7  and  C_8
REMARK    6  A    between atoms: N_12  and  C_13
REMARK    7  A    between atoms: C_17  and  C_18
REMARK    8  A    between atoms: C_19  and  C_20
REMARK                            x       y       z     vdW  Elec       q    Type
REMARK                         _______ _______ _______ _____ _____    ______ ____
ROOT
ATOM      1  C   UNL     1       2.872   6.202  18.323  0.00  0.00    +0.000 A 
ATOM      2  C   UNL     1       4.131   5.844  17.928  0.00  0.00    +0.000 A 
ATOM      3  C   UNL     1       4.744   7.039  17.535  0.00  0.00    +0.000 A 
ATOM      4  N   UNL     1       3.966   8.101  17.693  0.00  0.00    +0.000 NA
ATOM      5  N   UNL     1       2.795   7.605  18.208  0.00  0.00    +0.000 N 
ATOM      6  C   UNL     1       6.095   6.968  16.938  0.00  0.00    +0.000 C 
ATOM      7  S   UNL     1       6.251   5.180  16.613  0.00  0.00    +0.000 S 
ATOM      8  O   UNL     1       5.865   4.916  15.243  0.00  0.00    +0.000 OA
ATOM      9  O   UNL     1       7.507   4.698  17.154  0.00  0.00    +0.000 OA
ATOM     10  C   UNL     1       4.897   4.607  17.696  0.00  0.00    +0.000 C 
ENDROOT
BRANCH   5  11
ATOM     11  C   UNL     1       1.758   8.474  18.676  0.00  0.00    +0.000 A 
ATOM     12  C   UNL     1       1.068   9.243  17.719  0.00  0.00    +0.000 A 
ATOM     13  C   UNL     1      -0.010  10.043  18.084  0.00  0.00    +0.000 A 
ATOM     14  C   UNL     1      -0.404  10.105  19.413  0.00  0.00    +0.000 A 
ATOM     15  C   UNL     1       0.274   9.373  20.400  0.00  0.00    +0.000 A 
ATOM     16  C   UNL     1      -0.198   9.522  21.826  0.00  0.00    +0.000 C 
ATOM     17  C   UNL     1       1.365   8.536  20.043  0.00  0.00    +0.000 A 
ATOM     18  C   UNL     1       2.092   7.764  21.123  0.00  0.00    +0.000 C 
ENDBRANCH   5  11
BRANCH   1  21
ATOM     19  C   UNL     1       1.958   4.560  19.867  0.00  0.00    +0.000 C 
ATOM     20  O   UNL     1       2.903   4.746  20.614  0.00  0.00    +0.000 OA
ATOM     21  N   UNL     1       1.882   5.277  18.622  0.00  0.00    +0.000 N 
ATOM     22  H   UNL     1       1.061   5.224  18.035  0.00  0.00    +0.000 HD
BRANCH  19  23
ATOM     23  C   UNL     1       0.771   3.681  20.172  0.00  0.00    +0.000 C 
BRANCH  23  24
ATOM     24  C   UNL     1       0.690   2.536  19.166  0.00  0.00    +0.000 C 
BRANCH  24  26
ATOM     25  C   UNL     1       2.615   1.922  17.663  0.00  0.00    +0.000 C 
ATOM     26  C   UNL     1       2.017   1.784  19.055  0.00  0.00    +0.000 C 
ENDBRANCH  24  26
ENDBRANCH  23  24
ENDBRANCH  19  23
ENDBRANCH   1  21
TORSDOF 5
ENDMDL
MODEL 7
REMARK VINA RESULT:      -7.3      1.329      1.572
REMARK  Name = 
REMARK  8 active torsions:
REMARK  status: ('A' for Active; 'I' for Inactive)
REMARK    1  A    between atoms: C_1  and  C_2
REMARK    2  A    between atoms: C_2  and  C_3
REMARK    3  A    between atoms: C_3  and  C_4
REMARK    4  A    between atoms: C_4  and  C_5
REMARK    5  A    between atoms: N_7  and  C_8
REMARK    6  A    between atoms: N_12  and  C_13
REMARK    7  A    between atoms: C_17  and  C_18
REMARK    8  A    between atoms: C_19  and  C_20
REMARK                            x       y       z     vdW  Elec       q    Type
REMARK                         _______ _______ _______ _____ _____    ______ ____
ROOT
ATOM      1  C   UNL     1       3.261   6.091  19.403  0.00  0.00    +0.000 A 
ATOM      2  C   UNL     1       4.288   5.780  18.556  0.00  0.00    +0.000 A 
ATOM      3  C   UNL     1       4.299   6.805  17.604  0.00  0.00    +0.000 A 
ATOM      4  N   UNL     1       3.380   7.734  17.826  0.00  0.00    +0.000 NA
ATOM      5  N   UNL     1       2.731   7.321  18.963  0.00  0.00    +0.000 N 
ATOM      6  C   UNL     1       5.236   6.691  16.466  0.00  0.00    +0.000 C 
ATOM      7  S   UNL     1       5.766   4.952  16.608  0.00  0.00    +0.000 S 
ATOM      8  O   UNL     1       4.946   4.138  15.737  0.00  0.00    +0.000 OA
ATOM      9  O   UNL     1       7.214   4.883  16.571  0.00  0.00    +0.000 OA
ATOM     10  C   UNL     1       5.217   4.660  18.325  0.00  0.00    +0.000 C 
ENDROOT
BRANCH   5  11
ATOM     11  C   UNL     1       1.774   8.157  19.622  0.00  0.00    +0.000 A 
ATOM     12  C   UNL     1       1.391   7.807  20.931  0.00  0.00    +0.000 A 
ATOM     13  C   UNL     1       0.534   8.619  21.668  0.00  0.00    +0.000 A 
ATOM     14  C   UNL     1       0.030   9.781  21.104  0.00  0.00    +0.000 A 
ATOM     15  C   UNL     1       0.368  10.152  19.793  0.00  0.00    +0.000 A 
ATOM     16  C   UNL     1      -0.250  11.414  19.244  0.00  0.00    +0.000 C 
ATOM     17  C   UNL     1       1.257   9.346  19.032  0.00  0.00    +0.000 A 
ATOM     18  C   UNL     1       1.599   9.754  17.616  0.00  0.00    +0.000 C 
ENDBRANCH   5  11
BRANCH   1  21
ATOM     19  C   UNL     1       1.746   4.308  20.068  0.00  0.00    +0.000 C 
ATOM     20  O   UNL     1       1.244   4.329  18.959  0.00  0.00    +0.000 OA
ATOM     21  N   UNL     1       2.806   5.227  20.389  0.00  0.00    +0.000 N 
ATOM     22  H   UNL     1       3.313   5.160  21.261  0.00  0.00    +0.000 HD
BRANCH  19  23
ATOM     23  C   UNL     1       1.412   3.314  21.153  0.00  0.00    +0.000 C 
BRANCH  23  24
ATOM     24  C   UNL     1       2.643   2.481  21.502  0.00  0.00    +0.000 C 
BRANCH  24  26
ATOM     25  C   UNL     1       4.869   1.760  20.573  0.00  0.00    +0.000 C 
ATOM     26  C   UNL     1       3.412   2.053  20.252  0.00  0.00    +0.000 C 
ENDBRANCH  24  26
ENDBRANCH  23  24
ENDBRANCH  19  23
ENDBRANCH   1  21
TORSDOF 5
ENDMDL
MODEL 8
REMARK VINA RESULT:      -7.1      5.825      8.932
REMARK  Name = 
REMARK  8 active torsions:
REMARK  status: ('A' for Active; 'I' for Inactive)
REMARK    1  A    between atoms: C_1  and  C_2
REMARK    2  A    between atoms: C_2  and  C_3
REMARK    3  A    between atoms: C_3  and  C_4
REMARK    4  A    between atoms: C_4  and  C_5
REMARK    5  A    between atoms: N_7  and  C_8
REMARK    6  A    between atoms: N_12  and  C_13
REMARK    7  A    between atoms: C_17  and  C_18
REMARK    8  A    between atoms: C_19  and  C_20
REMARK                            x       y       z     vdW  Elec       q    Type
REMARK                         _______ _______ _______ _____ _____    ______ ____
ROOT
ATOM      1  C   UNL     1      -0.912  11.256  19.806  0.00  0.00    +0.000 A 
ATOM      2  C   UNL     1      -1.057  12.457  20.441  0.00  0.00    +0.000 A 
ATOM      3  C   UNL     1       0.143  12.651  21.134  0.00  0.00    +0.000 A 
ATOM      4  N   UNL     1       1.020  11.676  20.942  0.00  0.00    +0.000 NA
ATOM      5  N   UNL     1       0.391  10.801  20.092  0.00  0.00    +0.000 N 
ATOM      6  C   UNL     1       0.254  13.824  22.027  0.00  0.00    +0.000 C 
ATOM      7  S   UNL     1      -1.486  14.364  22.129  0.00  0.00    +0.000 S 
ATOM      8  O   UNL     1      -2.088  13.789  23.312  0.00  0.00    +0.000 OA
ATOM      9  O   UNL     1      -1.568  15.784  21.849  0.00  0.00    +0.000 OA
ATOM     10  C   UNL     1      -2.119  13.451  20.679  0.00  0.00    +0.000 C 
ENDROOT
BRANCH   5  11
ATOM     11  C   UNL     1       1.088   9.692  19.511  0.00  0.00    +0.000 A 
ATOM     12  C   UNL     1       1.629   9.863  18.223  0.00  0.00    +0.000 A 
ATOM     13  C   UNL     1       2.395   8.864  17.629  0.00  0.00    +0.000 A 
ATOM     14  C   UNL     1       2.616   7.672  18.303  0.00  0.00    +0.000 A 
ATOM     15  C   UNL     1       2.072   7.454  19.578  0.00  0.00    +0.000 A 
ATOM     16  C   UNL     1       2.332   6.117  20.228  0.00  0.00    +0.000 C 
ATOM     17  C   UNL     1       1.304   8.470  20.209  0.00  0.00    +0.000 A 
ATOM     18  C   UNL     1       0.715   8.211  21.578  0.00  0.00    +0.000 C 
ENDBRANCH   5  11
BRANCH   1  21
ATOM     19  C   UNL     1      -2.266  11.013  17.800  0.00  0.00    +0.000 C 
ATOM     20  O   UNL     1      -1.642  11.918  17.276  0.00  0.00    +0.000 OA
ATOM     21  N   UNL     1      -1.954  10.618  19.148  0.00  0.00    +0.000 N 
ATOM     22  H   UNL     1      -2.379   9.803  19.569  0.00  0.00    +0.000 HD
BRANCH  19  23
ATOM     23  C   UNL     1      -3.316  10.174  17.116  0.00  0.00    +0.000 C 
BRANCH  23  24
ATOM     24  C   UNL     1      -3.678  10.782  15.764  0.00  0.00    +0.000 C 
BRANCH  24  26
ATOM     25  C   UNL     1      -3.902   9.946  13.399  0.00  0.00    +0.000 C 
ATOM     26  C   UNL     1      -2.989  10.050  14.611  0.00  0.00    +0.000 C 
ENDBRANCH  24  26
ENDBRANCH  23  24
ENDBRANCH  19  23
ENDBRANCH   1  21
TORSDOF 5
ENDMDL
MODEL 9
REMARK VINA RESULT:      -7.1      1.042      1.271
REMARK  Name = 
REMARK  8 active torsions:
REMARK  status: ('A' for Active; 'I' for Inactive)
REMARK    1  A    between atoms: C_1  and  C_2
REMARK    2  A    between atoms: C_2  and  C_3
REMARK    3  A    between atoms: C_3  and  C_4
REMARK    4  A    between atoms: C_4  and  C_5
REMARK    5  A    between atoms: N_7  and  C_8
REMARK    6  A    between atoms: N_12  and  C_13
REMARK    7  A    between atoms: C_17  and  C_18
REMARK    8  A    between atoms: C_19  and  C_20
REMARK                            x       y       z     vdW  Elec       q    Type
REMARK                         _______ _______ _______ _____ _____    ______ ____
ROOT
ATOM      1  C   UNL     1       4.184   5.682  18.562  0.00  0.00    +0.000 A 
ATOM      2  C   UNL     1       5.066   5.598  17.522  0.00  0.00    +0.000 A 
ATOM      3  C   UNL     1       4.692   6.619  16.642  0.00  0.00    +0.000 A 
ATOM      4  N   UNL     1       3.671   7.341  17.084  0.00  0.00    +0.000 NA
ATOM      5  N   UNL     1       3.350   6.788  18.298  0.00  0.00    +0.000 N 
ATOM      6  C   UNL     1       5.392   6.716  15.344  0.00  0.00    +0.000 C 
ATOM      7  S   UNL     1       6.267   5.117  15.288  0.00  0.00    +0.000 S 
ATOM      8  O   UNL     1       5.468   4.169  14.543  0.00  0.00    +0.000 OA
ATOM      9  O   UNL     1       7.666   5.341  14.975  0.00  0.00    +0.000 OA
ATOM     10  C   UNL     1       6.132   4.692  17.059  0.00  0.00    +0.000 C 
ENDROOT
BRANCH   5  11
ATOM     11  C   UNL     1       2.396   7.403  19.170  0.00  0.00    +0.000 A 
ATOM     12  C   UNL     1       2.052   6.718  20.351  0.00  0.00    +0.000 A 
ATOM     13  C   UNL     1       1.200   7.292  21.291  0.00  0.00    +0.000 A 
ATOM     14  C   UNL     1       0.663   8.549  21.058  0.00  0.00    +0.000 A 
ATOM     15  C   UNL     1       0.962   9.254  19.881  0.00  0.00    +0.000 A 
ATOM     16  C   UNL     1       0.309  10.600  19.690  0.00  0.00    +0.000 C 
ATOM     17  C   UNL     1       1.844   8.692  18.919  0.00  0.00    +0.000 A 
ATOM     18  C   UNL     1       2.144   9.460  17.651  0.00  0.00    +0.000 C 
ENDBRANCH   5  11
BRANCH   1  21
ATOM     19  C   UNL     1       3.565   3.434  19.252  0.00  0.00    +0.000 C 
ATOM     20  O   UNL     1       3.149   3.210  18.129  0.00  0.00    +0.000 OA
ATOM     21  N   UNL     1       4.107   4.728  19.567  0.00  0.00    +0.000 N 
ATOM     22  H   UNL     1       4.556   4.908  20.455  0.00  0.00    +0.000 HD
BRANCH  19  23
ATOM     23  C   UNL     1       3.648   2.418  20.364  0.00  0.00    +0.000 C 
BRANCH  23  24
ATOM     24  C   UNL     1       2.783   2.854  21.543  0.00  0.00    +0.000 C 
BRANCH  24  26
ATOM     25  C   UNL     1       0.633   3.527  20.417  0.00  0.00    +0.000 C 
ATOM     26  C   UNL     1       1.310   2.509  21.323  0.00  0.00    +0.000 C 
ENDBRANCH  24  26
ENDBRANCH  23  24
ENDBRANCH  19  23
ENDBRANCH   1  21
TORSDOF 5
ENDMDL
