MODEL 1
REMARK VINA RESULT:      -7.7      0.000      0.000
REMARK  Name = 
REMARK  9 active torsions:
REMARK  status: ('A' for Active; 'I' for Inactive)
REMARK    1  A    between atoms: C_1  and  C_2
REMARK    2  A    between atoms: C_7  and  N_8
REMARK    3  A    between atoms: C_10  and  C_11
REMARK    4  A    between atoms: C_11  and  N_12
REMARK    5  A    between atoms: N_12  and  C_13
REMARK    6  A    between atoms: C_13  and  C_14
REMARK    7  A    between atoms: C_15  and  C_16
REMARK    8  A    between atoms: N_18  and  C_19
REMARK    9  A    between atoms: N_18  and  C_20
REMARK                            x       y       z     vdW  Elec       q    Type
REMARK                         _______ _______ _______ _____ _____    ______ ____
ROOT
ATOM      1  C   UNL     1       2.765   6.932  18.798  0.00  0.00    +0.000 C 
ENDROOT
BRANCH   1   2
ATOM      2  C   UNL     1       3.632   5.836  18.283  0.00  0.00    +0.000 A 
ATOM      3  C   UNL     1       3.343   4.516  17.915  0.00  0.00    +0.000 A 
ATOM      4  N   UNL     1       4.474   3.923  17.390  0.00  0.00    +0.000 NA
ATOM      5  C   UNL     1       5.394   4.852  17.333  0.00  0.00    +0.000 A 
ATOM      6  C   UNL     1       6.689   4.821  16.758  0.00  0.00    +0.000 A 
ATOM      7  C   UNL     1       7.456   5.928  16.780  0.00  0.00    +0.000 A 
ATOM      8  C   UNL     1       6.984   7.149  17.411  0.00  0.00    +0.000 A 
ATOM      9 CL   UNL     1       8.011   8.525  17.429  0.00  0.00    +0.000 Cl
ATOM     10  C   UNL     1       5.758   7.185  17.955  0.00  0.00    +0.000 A 
ATOM     11  N   UNL     1       4.950   6.043  17.898  0.00  0.00    +0.000 N 
BRANCH   3  12
ATOM     12  C   UNL     1       2.048   3.805  18.053  0.00  0.00    +0.000 C 
ATOM     13  O   UNL     1       1.237   3.827  17.122  0.00  0.00    +0.000 OA
ATOM     14  N   UNL     1       1.763   3.109  19.248  0.00  0.00    +0.000 N 
ATOM     15  C   UNL     1       2.742   2.726  20.261  0.00  0.00    +0.000 C 
ATOM     16  C   UNL     1       0.494   2.409  19.350  0.00  0.00    +0.000 C 
ENDBRANCH   3  12
ENDBRANCH   1   2
BRANCH   1  17
ATOM     17  N   UNL     1       2.121   7.685  17.727  0.00  0.00    +0.000 NA
ATOM     18  H   UNL     1       2.543   7.380  16.839  0.00  0.00    +0.000 HD
BRANCH  17  19
ATOM     19  C   UNL     1       2.328   9.135  17.866  0.00  0.00    +0.000 C 
BRANCH  19  22
ATOM     20  N   UNL     1      -0.310  10.727  19.874  0.00  0.00    +0.000 N 
ATOM     21  C   UNL     1       1.023  10.440  19.661  0.00  0.00    +0.000 A 
ATOM     22  C   UNL     1       1.124   9.779  18.457  0.00  0.00    +0.000 A 
ATOM     23  C   UNL     1      -0.197   9.773  17.970  0.00  0.00    +0.000 A 
ATOM     24  N   UNL     1      -1.067  10.302  18.831  0.00  0.00    +0.000 NA
BRANCH  20  31
ATOM     25  C   UNL     1      -0.422   9.444  22.611  0.00  0.00    +0.000 C 
ATOM     26  C   UNL     1      -0.972  10.804  22.273  0.00  0.00    +0.000 A 
ATOM     27  C   UNL     1      -1.579  11.539  23.309  0.00  0.00    +0.000 A 
ATOM     28  C   UNL     1      -2.049  12.836  23.101  0.00  0.00    +0.000 A 
ATOM     29  C   UNL     1      -1.916  13.430  21.853  0.00  0.00    +0.000 A 
ATOM     30  C   UNL     1      -1.322  12.725  20.810  0.00  0.00    +0.000 A 
ATOM     31  C   UNL     1      -0.862  11.405  20.999  0.00  0.00    +0.000 A 
ENDBRANCH  20  31
ENDBRANCH  19  22
ENDBRANCH  17  19
ENDBRANCH   1  17
TORSDOF 6
ENDMDL
MODEL 2
REMARK VINA RESULT:      -7.7      3.197      5.157
REMARK  Name = 
REMARK  9 active torsions:
REMARK  status: ('A' for Active; 'I' for Inactive)
REMARK    1  A    between atoms: C_1  and  C_2
REMARK    2  A    between atoms: C_7  and  N_8
REMARK    3  A    between atoms: C_10  and  C_11
REMARK    4  A    between atoms: C_11  and  N_12
REMARK    5  A    between atoms: N_12  and  C_13
REMARK    6  A    between atoms: C_13  and  C_14
REMARK    7  A    between atoms: C_15  and  C_16
REMARK    8  A    between atoms: N_18  and  C_19
REMARK    9  A    between atoms: N_18  and  C_20
REMARK                            x       y       z     vdW  Elec       q    Type
REMARK                         _______ _______ _______ _____ _____    ______ ____
ROOT
ATOM      1  C   UNL     1       4.728   3.640  16.642  0.00  0.00    +0.000 C 
ENDROOT
BRANCH   1   2
ATOM      2  C   UNL     1       5.809   4.218  15.796  0.00  0.00    +0.000 A 
ATOM      3  C   UNL     1       7.061   4.754  16.123  0.00  0.00    +0.000 A 
ATOM      4  N   UNL     1       7.750   5.061  14.967  0.00  0.00    +0.000 NA
ATOM      5  C   UNL     1       7.015   4.644  13.969  0.00  0.00    +0.000 A 
ATOM      6  C   UNL     1       7.304   4.587  12.582  0.00  0.00    +0.000 A 
ATOM      7  C   UNL     1       6.398   4.069  11.731  0.00  0.00    +0.000 A 
ATOM      8  C   UNL     1       5.112   3.591  12.213  0.00  0.00    +0.000 A 
ATOM      9 CL   UNL     1       3.985   2.959  11.082  0.00  0.00    +0.000 Cl
ATOM     10  C   UNL     1       4.834   3.640  13.525  0.00  0.00    +0.000 A 
ATOM     11  N   UNL     1       5.793   4.145  14.409  0.00  0.00    +0.000 N 
BRANCH   3  12
ATOM     12  C   UNL     1       7.614   4.990  17.480  0.00  0.00    +0.000 C 
ATOM     13  O   UNL     1       8.124   4.054  18.103  0.00  0.00    +0.000 OA
ATOM     14  N   UNL     1       7.551   6.285  18.039  0.00  0.00    +0.000 N 
ATOM     15  C   UNL     1       7.293   7.517  17.299  0.00  0.00    +0.000 C 
ATOM     16  C   UNL     1       8.113   6.491  19.363  0.00  0.00    +0.000 C 
ENDBRANCH   3  12
ENDBRANCH   1   2
BRANCH   1  17
ATOM     17  N   UNL     1       3.624   4.572  16.850  0.00  0.00    +0.000 NA
ATOM     18  H   UNL     1       3.230   4.794  15.926  0.00  0.00    +0.000 HD
BRANCH  17  19
ATOM     19  C   UNL     1       4.069   5.825  17.480  0.00  0.00    +0.000 C 
BRANCH  19  22
ATOM     20  N   UNL     1       1.868   7.493  19.909  0.00  0.00    +0.000 N 
ATOM     21  C   UNL     1       2.610   7.528  18.746  0.00  0.00    +0.000 A 
ATOM     22  C   UNL     1       3.098   6.260  18.519  0.00  0.00    +0.000 A 
ATOM     23  C   UNL     1       2.537   5.498  19.563  0.00  0.00    +0.000 A 
ATOM     24  N   UNL     1       1.833   6.237  20.421  0.00  0.00    +0.000 NA
BRANCH  20  31
ATOM     25  C   UNL     1       0.679   9.730  18.256  0.00  0.00    +0.000 C 
ATOM     26  C   UNL     1       0.667   9.669  19.761  0.00  0.00    +0.000 A 
ATOM     27  C   UNL     1       0.051  10.728  20.453  0.00  0.00    +0.000 A 
ATOM     28  C   UNL     1      -0.070  10.717  21.842  0.00  0.00    +0.000 A 
ATOM     29  C   UNL     1       0.417   9.640  22.571  0.00  0.00    +0.000 A 
ATOM     30  C   UNL     1       1.033   8.579  21.912  0.00  0.00    +0.000 A 
ATOM     31  C   UNL     1       1.183   8.588  20.511  0.00  0.00    +0.000 A 
ENDBRANCH  20  31
ENDBRANCH  19  22
ENDBRANCH  17  19
ENDBRANCH   1  17
TORSDOF 6
ENDMDL
MODEL 3
REMARK VINA RESULT:      -7.6      0.918      1.515
REMARK  Name = 
REMARK  9 active torsions:
REMARK  status: ('A' for Active; 'I' for Inactive)
REMARK    1  A    between atoms: C_1  and  C_2
REMARK    2  A    between atoms: C_7  and  N_8
REMARK    3  A    between atoms: C_10  and  C_11
REMARK    4  A    between atoms: C_11  and  N_12
REMARK    5  A    between atoms: N_12  and  C_13
REMARK    6  A    between atoms: C_13  and  C_14
REMARK    7  A    between atoms: C_15  and  C_16
REMARK    8  A    between atoms: N_18  and  C_19
REMARK    9  A    between atoms: N_18  and  C_20
REMARK                            x       y       z     vdW  Elec       q    Type
REMARK                         _______ _______ _______ _____ _____    ______ ____
ROOT
ATOM      1  C   UNL     1       2.941   6.700  19.081  0.00  0.00    +0.000 C 
ENDROOT
BRANCH   1   2
ATOM      2  C   UNL     1       3.677   5.688  18.274  0.00  0.00    +0.000 A 
ATOM      3  C   UNL     1       3.265   4.483  17.692  0.00  0.00    +0.000 A 
ATOM      4  N   UNL     1       4.297   3.952  16.944  0.00  0.00    +0.000 NA
ATOM      5  C   UNL     1       5.269   4.828  16.969  0.00  0.00    +0.000 A 
ATOM      6  C   UNL     1       6.498   4.850  16.263  0.00  0.00    +0.000 A 
ATOM      7  C   UNL     1       7.337   5.892  16.415  0.00  0.00    +0.000 A 
ATOM      8  C   UNL     1       7.012   6.985  17.317  0.00  0.00    +0.000 A 
ATOM      9 CL   UNL     1       8.128   8.279  17.489  0.00  0.00    +0.000 Cl
ATOM     10  C   UNL     1       5.849   6.970  17.986  0.00  0.00    +0.000 A 
ATOM     11  N   UNL     1       4.964   5.904  17.797  0.00  0.00    +0.000 N 
BRANCH   3  12
ATOM     12  C   UNL     1       1.944   3.822  17.828  0.00  0.00    +0.000 C 
ATOM     13  O   UNL     1       0.994   4.207  17.140  0.00  0.00    +0.000 OA
ATOM     14  N   UNL     1       1.792   2.757  18.743  0.00  0.00    +0.000 N 
ATOM     15  C   UNL     1       2.882   1.999  19.351  0.00  0.00    +0.000 C 
ATOM     16  C   UNL     1       0.491   2.118  18.846  0.00  0.00    +0.000 C 
ENDBRANCH   3  12
ENDBRANCH   1   2
BRANCH   1  17
ATOM     17  N   UNL     1       1.828   7.296  18.348  0.00  0.00    +0.000 NA
ATOM     18  H   UNL     1       1.539   6.622  17.626  0.00  0.00    +0.000 HD
BRANCH  17  19
ATOM     19  C   UNL     1       2.211   8.553  17.686  0.00  0.00    +0.000 C 
BRANCH  19  22
ATOM     20  N   UNL     1       0.365  11.057  19.647  0.00  0.00    +0.000 N 
ATOM     21  C   UNL     1       0.635   9.738  19.340  0.00  0.00    +0.000 A 
ATOM     22  C   UNL     1       1.666   9.721  18.428  0.00  0.00    +0.000 A 
ATOM     23  C   UNL     1       2.012  11.079  18.292  0.00  0.00    +0.000 A 
ATOM     24  N   UNL     1       1.211  11.887  18.987  0.00  0.00    +0.000 NA
BRANCH  20  31
ATOM     25  C   UNL     1      -2.343  12.004  18.686  0.00  0.00    +0.000 C 
ATOM     26  C   UNL     1      -1.879  12.026  20.119  0.00  0.00    +0.000 A 
ATOM     27  C   UNL     1      -2.774  12.519  21.087  0.00  0.00    +0.000 A 
ATOM     28  C   UNL     1      -2.455  12.508  22.445  0.00  0.00    +0.000 A 
ATOM     29  C   UNL     1      -1.234  11.996  22.866  0.00  0.00    +0.000 A 
ATOM     30  C   UNL     1      -0.329  11.504  21.929  0.00  0.00    +0.000 A 
ATOM     31  C   UNL     1      -0.629  11.530  20.551  0.00  0.00    +0.000 A 
ENDBRANCH  20  31
ENDBRANCH  19  22
ENDBRANCH  17  19
ENDBRANCH   1  17
TORSDOF 6
ENDMDL
MODEL 4
REMARK VINA RESULT:      -7.6      1.683      2.503
REMARK  Name = 
REMARK  9 active torsions:
REMARK  status: ('A' for Active; 'I' for Inactive)
REMARK    1  A    between atoms: C_1  and  C_2
REMARK    2  A    between atoms: C_7  and  N_8
REMARK    3  A    between atoms: C_10  and  C_11
REMARK    4  A    between atoms: C_11  and  N_12
REMARK    5  A    between atoms: N_12  and  C_13
REMARK    6  A    between atoms: C_13  and  C_14
REMARK    7  A    between atoms: C_15  and  C_16
REMARK    8  A    between atoms: N_18  and  C_19
REMARK    9  A    between atoms: N_18  and  C_20
REMARK                            x       y       z     vdW  Elec       q    Type
REMARK                         _______ _______ _______ _____ _____    ______ ____
ROOT
ATOM      1  C   UNL     1       2.815   6.727  19.048  0.00  0.00    +0.000 C 
ENDROOT
BRANCH   1   2
ATOM      2  C   UNL     1       3.578   5.707  18.275  0.00  0.00    +0.000 A 
ATOM      3  C   UNL     1       3.193   4.481  17.718  0.00  0.00    +0.000 A 
ATOM      4  N   UNL     1       4.243   3.950  16.997  0.00  0.00    +0.000 NA
ATOM      5  C   UNL     1       5.200   4.842  17.011  0.00  0.00    +0.000 A 
ATOM      6  C   UNL     1       6.438   4.867  16.321  0.00  0.00    +0.000 A 
ATOM      7  C   UNL     1       7.258   5.926  16.457  0.00  0.00    +0.000 A 
ATOM      8  C   UNL     1       6.903   7.036  17.328  0.00  0.00    +0.000 A 
ATOM      9 CL   UNL     1       7.995   8.352  17.481  0.00  0.00    +0.000 Cl
ATOM     10  C   UNL     1       5.732   7.019  17.982  0.00  0.00    +0.000 A 
ATOM     11  N   UNL     1       4.867   5.933  17.809  0.00  0.00    +0.000 N 
BRANCH   3  12
ATOM     12  C   UNL     1       1.882   3.802  17.855  0.00  0.00    +0.000 C 
ATOM     13  O   UNL     1       0.946   4.126  17.117  0.00  0.00    +0.000 OA
ATOM     14  N   UNL     1       1.723   2.789  18.826  0.00  0.00    +0.000 N 
ATOM     15  C   UNL     1       2.807   2.091  19.509  0.00  0.00    +0.000 C 
ATOM     16  C   UNL     1       0.432   2.130  18.928  0.00  0.00    +0.000 C 
ENDBRANCH   3  12
ENDBRANCH   1   2
BRANCH   1  17
ATOM     17  N   UNL     1       1.921   7.512  18.203  0.00  0.00    +0.000 NA
ATOM     18  H   UNL     1       1.889   7.057  17.280  0.00  0.00    +0.000 HD
BRANCH  17  19
ATOM     19  C   UNL     1       2.398   8.893  18.024  0.00  0.00    +0.000 C 
BRANCH  19  22
ATOM     20  N   UNL     1      -0.660  10.927  18.208  0.00  0.00    +0.000 N 
ATOM     21  C   UNL     1      -0.038   9.722  17.955  0.00  0.00    +0.000 A 
ATOM     22  C   UNL     1       1.296   9.861  18.267  0.00  0.00    +0.000 A 
ATOM     23  C   UNL     1       1.382  11.172  18.775  0.00  0.00    +0.000 A 
ATOM     24  N   UNL     1       0.224  11.829  18.706  0.00  0.00    +0.000 NA
BRANCH  20  31
ATOM     25  C   UNL     1      -2.295  12.287  20.360  0.00  0.00    +0.000 C 
ATOM     26  C   UNL     1      -2.835  11.810  19.037  0.00  0.00    +0.000 A 
ATOM     27  C   UNL     1      -4.203  12.018  18.777  0.00  0.00    +0.000 A 
ATOM     28  C   UNL     1      -4.770  11.675  17.550  0.00  0.00    +0.000 A 
ATOM     29  C   UNL     1      -3.979  11.122  16.551  0.00  0.00    +0.000 A 
ATOM     30  C   UNL     1      -2.623  10.903  16.782  0.00  0.00    +0.000 A 
ATOM     31  C   UNL     1      -2.041  11.224  18.026  0.00  0.00    +0.000 A 
ENDBRANCH  20  31
ENDBRANCH  19  22
ENDBRANCH  17  19
ENDBRANCH   1  17
TORSDOF 6
ENDMDL
MODEL 5
REMARK VINA RESULT:      -7.5      3.668      9.672
REMARK  Name = 
REMARK  9 active torsions:
REMARK  status: ('A' for Active; 'I' for Inactive)
REMARK    1  A    between atoms: C_1  and  C_2
REMARK    2  A    between atoms: C_7  and  N_8
REMARK    3  A    between atoms: C_10  and  C_11
REMARK    4  A    between atoms: C_11  and  N_12
REMARK    5  A    between atoms: N_12  and  C_13
REMARK    6  A    between atoms: C_13  and  C_14
REMARK    7  A    between atoms: C_15  and  C_16
REMARK    8  A    between atoms: N_18  and  C_19
REMARK    9  A    between atoms: N_18  and  C_20
REMARK                            x       y       z     vdW  Elec       q    Type
REMARK                         _______ _______ _______ _____ _____    ______ ____
ROOT
ATOM      1  C   UNL     1      -0.262  10.267  22.292  0.00  0.00    +0.000 C 
ENDROOT
BRANCH   1   2
ATOM      2  C   UNL     1      -0.965  11.374  21.585  0.00  0.00    +0.000 A 
ATOM      3  C   UNL     1      -0.838  11.876  20.284  0.00  0.00    +0.000 A 
ATOM      4  N   UNL     1      -1.796  12.845  20.065  0.00  0.00    +0.000 NA
ATOM      5  C   UNL     1      -2.551  12.876  21.134  0.00  0.00    +0.000 A 
ATOM      6  C   UNL     1      -3.751  13.587  21.386  0.00  0.00    +0.000 A 
ATOM      7  C   UNL     1      -4.388  13.428  22.561  0.00  0.00    +0.000 A 
ATOM      8  C   UNL     1      -3.846  12.555  23.590  0.00  0.00    +0.000 A 
ATOM      9 CL   UNL     1      -4.688  12.405  25.079  0.00  0.00    +0.000 Cl
ATOM     10  C   UNL     1      -2.712  11.878  23.356  0.00  0.00    +0.000 A 
ATOM     11  N   UNL     1      -2.073  12.019  22.120  0.00  0.00    +0.000 N 
BRANCH   3  12
ATOM     12  C   UNL     1       0.156  11.477  19.257  0.00  0.00    +0.000 C 
ATOM     13  O   UNL     1      -0.103  10.552  18.482  0.00  0.00    +0.000 OA
ATOM     14  N   UNL     1       1.387  12.166  19.179  0.00  0.00    +0.000 N 
ATOM     15  C   UNL     1       1.674  13.461  19.788  0.00  0.00    +0.000 C 
ATOM     16  C   UNL     1       2.336  11.765  18.154  0.00  0.00    +0.000 C 
ENDBRANCH   3  12
ENDBRANCH   1   2
BRANCH   1  17
ATOM     17  N   UNL     1       0.008   9.130  21.417  0.00  0.00    +0.000 NA
ATOM     18  H   UNL     1      -0.621   8.366  21.700  0.00  0.00    +0.000 HD
BRANCH  17  19
ATOM     19  C   UNL     1       1.396   8.657  21.537  0.00  0.00    +0.000 C 
BRANCH  19  22
ATOM     20  N   UNL     1       2.335   5.928  19.257  0.00  0.00    +0.000 N 
ATOM     21  C   UNL     1       1.861   6.355  20.481  0.00  0.00    +0.000 A 
ATOM     22  C   UNL     1       1.728   7.725  20.426  0.00  0.00    +0.000 A 
ATOM     23  C   UNL     1       2.076   8.039  19.098  0.00  0.00    +0.000 A 
ATOM     24  N   UNL     1       2.479   6.974  18.405  0.00  0.00    +0.000 NA
BRANCH  20  31
ATOM     25  C   UNL     1       5.163   4.863  19.133  0.00  0.00    +0.000 C 
ATOM     26  C   UNL     1       3.930   4.082  18.764  0.00  0.00    +0.000 A 
ATOM     27  C   UNL     1       4.103   2.753  18.334  0.00  0.00    +0.000 A 
ATOM     28  C   UNL     1       3.012   1.934  18.042  0.00  0.00    +0.000 A 
ATOM     29  C   UNL     1       1.721   2.426  18.182  0.00  0.00    +0.000 A 
ATOM     30  C   UNL     1       1.520   3.738  18.603  0.00  0.00    +0.000 A 
ATOM     31  C   UNL     1       2.614   4.583  18.879  0.00  0.00    +0.000 A 
ENDBRANCH  20  31
ENDBRANCH  19  22
ENDBRANCH  17  19
ENDBRANCH   1  17
TORSDOF 6
ENDMDL
MODEL 6
REMARK VINA RESULT:      -7.5      0.693      1.408
REMARK  Name = 
REMARK  9 active torsions:
REMARK  status: ('A' for Active; 'I' for Inactive)
REMARK    1  A    between atoms: C_1  and  C_2
REMARK    2  A    between atoms: C_7  and  N_8
REMARK    3  A    between atoms: C_10  and  C_11
REMARK    4  A    between atoms: C_11  and  N_12
REMARK    5  A    between atoms: N_12  and  C_13
REMARK    6  A    between atoms: C_13  and  C_14
REMARK    7  A    between atoms: C_15  and  C_16
REMARK    8  A    between atoms: N_18  and  C_19
REMARK    9  A    between atoms: N_18  and  C_20
REMARK                            x       y       z     vdW  Elec       q    Type
REMARK                         _______ _______ _______ _____ _____    ______ ____
ROOT
ATOM      1  C   UNL     1       2.874   6.765  18.982  0.00  0.00    +0.000 C 
ENDROOT
BRANCH   1   2
ATOM      2  C   UNL     1       3.633   5.720  18.239  0.00  0.00    +0.000 A 
ATOM      3  C   UNL     1       3.238   4.489  17.700  0.00  0.00    +0.000 A 
ATOM      4  N   UNL     1       4.289   3.930  17.002  0.00  0.00    +0.000 NA
ATOM      5  C   UNL     1       5.258   4.810  17.013  0.00  0.00    +0.000 A 
ATOM      6  C   UNL     1       6.505   4.805  16.338  0.00  0.00    +0.000 A 
ATOM      7  C   UNL     1       7.338   5.855  16.466  0.00  0.00    +0.000 A 
ATOM      8  C   UNL     1       6.988   6.985  17.311  0.00  0.00    +0.000 A 
ATOM      9 CL   UNL     1       8.096   8.289  17.454  0.00  0.00    +0.000 Cl
ATOM     10  C   UNL     1       5.808   6.996  17.950  0.00  0.00    +0.000 A 
ATOM     11  N   UNL     1       4.930   5.919  17.785  0.00  0.00    +0.000 N 
BRANCH   3  12
ATOM     12  C   UNL     1       1.915   3.831  17.832  0.00  0.00    +0.000 C 
ATOM     13  O   UNL     1       0.965   4.225  17.149  0.00  0.00    +0.000 OA
ATOM     14  N   UNL     1       1.762   2.757  18.736  0.00  0.00    +0.000 N 
ATOM     15  C   UNL     1       2.850   1.990  19.334  0.00  0.00    +0.000 C 
ATOM     16  C   UNL     1       0.459   2.120  18.834  0.00  0.00    +0.000 C 
ENDBRANCH   3  12
ENDBRANCH   1   2
BRANCH   1  17
ATOM     17  N   UNL     1       1.787   7.333  18.192  0.00  0.00    +0.000 NA
ATOM     18  H   UNL     1       1.696   6.765  17.338  0.00  0.00    +0.000 HD
BRANCH  17  19
ATOM     19  C   UNL     1       2.058   8.725  17.798  0.00  0.00    +0.000 C 
BRANCH  19  22
ATOM     20  N   UNL     1      -0.131  10.940  19.753  0.00  0.00    +0.000 N 
ATOM     21  C   UNL     1       1.106  10.370  19.534  0.00  0.00    +0.000 A 
ATOM     22  C   UNL     1       1.033   9.638  18.370  0.00  0.00    +0.000 A 
ATOM     23  C   UNL     1      -0.275   9.882  17.907  0.00  0.00    +0.000 A 
ATOM     24  N   UNL     1      -0.990  10.627  18.750  0.00  0.00    +0.000 NA
BRANCH  20  31
ATOM     25  C   UNL     1       0.209  13.944  19.638  0.00  0.00    +0.000 C 
ATOM     26  C   UNL     1      -0.297  13.178  20.831  0.00  0.00    +0.000 A 
ATOM     27  C   UNL     1      -0.645  13.914  21.980  0.00  0.00    +0.000 A 
ATOM     28  C   UNL     1      -1.191  13.294  23.104  0.00  0.00    +0.000 A 
ATOM     29  C   UNL     1      -1.409  11.922  23.101  0.00  0.00    +0.000 A 
ATOM     30  C   UNL     1      -1.071  11.169  21.979  0.00  0.00    +0.000 A 
ATOM     31  C   UNL     1      -0.497  11.780  20.845  0.00  0.00    +0.000 A 
ENDBRANCH  20  31
ENDBRANCH  19  22
ENDBRANCH  17  19
ENDBRANCH   1  17
TORSDOF 6
ENDMDL
MODEL 7
REMARK VINA RESULT:      -7.4      2.400      3.973
REMARK  Name = 
REMARK  9 active torsions:
REMARK  status: ('A' for Active; 'I' for Inactive)
REMARK    1  A    between atoms: C_1  and  C_2
REMARK    2  A    between atoms: C_7  and  N_8
REMARK    3  A    between atoms: C_10  and  C_11
REMARK    4  A    between atoms: C_11  and  N_12
REMARK    5  A    between atoms: N_12  and  C_13
REMARK    6  A    between atoms: C_13  and  C_14
REMARK    7  A    between atoms: C_15  and  C_16
REMARK    8  A    between atoms: N_18  and  C_19
REMARK    9  A    between atoms: N_18  and  C_20
REMARK                            x       y       z     vdW  Elec       q    Type
REMARK                         _______ _______ _______ _____ _____    ______ ____
ROOT
ATOM      1  C   UNL     1       3.089   7.010  18.702  0.00  0.00    +0.000 C 
ENDROOT
BRANCH   1   2
ATOM      2  C   UNL     1       3.768   5.844  18.070  0.00  0.00    +0.000 A 
ATOM      3  C   UNL     1       5.063   5.684  17.561  0.00  0.00    +0.000 A 
ATOM      4  N   UNL     1       5.252   4.371  17.178  0.00  0.00    +0.000 NA
ATOM      5  C   UNL     1       4.171   3.719  17.524  0.00  0.00    +0.000 A 
ATOM      6  C   UNL     1       3.891   2.330  17.487  0.00  0.00    +0.000 A 
ATOM      7  C   UNL     1       2.709   1.875  17.943  0.00  0.00    +0.000 A 
ATOM      8  C   UNL     1       1.702   2.793  18.449  0.00  0.00    +0.000 A 
ATOM      9 CL   UNL     1       0.203   2.161  19.000  0.00  0.00    +0.000 Cl
ATOM     10  C   UNL     1       1.963   4.109  18.489  0.00  0.00    +0.000 A 
ATOM     11  N   UNL     1       3.207   4.573  18.048  0.00  0.00    +0.000 N 
BRANCH   3  12
ATOM     12  C   UNL     1       6.110   6.725  17.420  0.00  0.00    +0.000 C 
ATOM     13  O   UNL     1       5.954   7.645  16.611  0.00  0.00    +0.000 OA
ATOM     14  N   UNL     1       7.273   6.651  18.218  0.00  0.00    +0.000 N 
ATOM     15  C   UNL     1       7.427   5.837  19.420  0.00  0.00    +0.000 C 
ATOM     16  C   UNL     1       8.276   7.692  18.071  0.00  0.00    +0.000 C 
ENDBRANCH   3  12
ENDBRANCH   1   2
BRANCH   1  17
ATOM     17  N   UNL     1       2.099   7.623  17.821  0.00  0.00    +0.000 NA
ATOM     18  H   UNL     1       2.252   7.245  16.876  0.00  0.00    +0.000 HD
BRANCH  17  19
ATOM     19  C   UNL     1       2.239   9.086  17.766  0.00  0.00    +0.000 C 
BRANCH  19  22
ATOM     20  N   UNL     1      -0.328  10.720  19.831  0.00  0.00    +0.000 N 
ATOM     21  C   UNL     1       0.996  10.421  19.584  0.00  0.00    +0.000 A 
ATOM     22  C   UNL     1       1.058   9.747  18.384  0.00  0.00    +0.000 A 
ATOM     23  C   UNL     1      -0.277   9.746  17.935  0.00  0.00    +0.000 A 
ATOM     24  N   UNL     1      -1.117  10.291  18.815  0.00  0.00    +0.000 NA
BRANCH  20  31
ATOM     25  C   UNL     1      -0.408   9.452  22.576  0.00  0.00    +0.000 C 
ATOM     26  C   UNL     1      -0.937  10.822  22.243  0.00  0.00    +0.000 A 
ATOM     27  C   UNL     1      -1.507  11.574  23.288  0.00  0.00    +0.000 A 
ATOM     28  C   UNL     1      -1.955  12.879  23.084  0.00  0.00    +0.000 A 
ATOM     29  C   UNL     1      -1.836  13.465  21.831  0.00  0.00    +0.000 A 
ATOM     30  C   UNL     1      -1.278  12.743  20.779  0.00  0.00    +0.000 A 
ATOM     31  C   UNL     1      -0.842  11.415  20.964  0.00  0.00    +0.000 A 
ENDBRANCH  20  31
ENDBRANCH  19  22
ENDBRANCH  17  19
ENDBRANCH   1  17
TORSDOF 6
ENDMDL
MODEL 8
REMARK VINA RESULT:      -7.4      3.959     10.012
REMARK  Name = 
REMARK  9 active torsions:
REMARK  status: ('A' for Active; 'I' for Inactive)
REMARK    1  A    between atoms: C_1  and  C_2
REMARK    2  A    between atoms: C_7  and  N_8
REMARK    3  A    between atoms: C_10  and  C_11
REMARK    4  A    between atoms: C_11  and  N_12
REMARK    5  A    between atoms: N_12  and  C_13
REMARK    6  A    between atoms: C_13  and  C_14
REMARK    7  A    between atoms: C_15  and  C_16
REMARK    8  A    between atoms: N_18  and  C_19
REMARK    9  A    between atoms: N_18  and  C_20
REMARK                            x       y       z     vdW  Elec       q    Type
REMARK                         _______ _______ _______ _____ _____    ______ ____
ROOT
ATOM      1  C   UNL     1      -0.247  11.080  21.315  0.00  0.00    +0.000 C 
ENDROOT
BRANCH   1   2
ATOM      2  C   UNL     1      -0.233  12.435  21.935  0.00  0.00    +0.000 A 
ATOM      3  C   UNL     1       0.575  13.555  21.705  0.00  0.00    +0.000 A 
ATOM      4  N   UNL     1       0.121  14.617  22.461  0.00  0.00    +0.000 NA
ATOM      5  C   UNL     1      -0.974  14.216  23.054  0.00  0.00    +0.000 A 
ATOM      6  C   UNL     1      -1.910  14.941  23.835  0.00  0.00    +0.000 A 
ATOM      7  C   UNL     1      -3.004  14.320  24.314  0.00  0.00    +0.000 A 
ATOM      8  C   UNL     1      -3.227  12.904  24.064  0.00  0.00    +0.000 A 
ATOM      9 CL   UNL     1      -4.629  12.157  24.716  0.00  0.00    +0.000 Cl
ATOM     10  C   UNL     1      -2.346  12.214  23.324  0.00  0.00    +0.000 A 
ATOM     11  N   UNL     1      -1.229  12.872  22.798  0.00  0.00    +0.000 N 
BRANCH   3  12
ATOM     12  C   UNL     1       1.753  13.648  20.808  0.00  0.00    +0.000 C 
ATOM     13  O   UNL     1       2.886  13.476  21.268  0.00  0.00    +0.000 OA
ATOM     14  N   UNL     1       1.562  13.928  19.437  0.00  0.00    +0.000 N 
ATOM     15  C   UNL     1       0.297  13.817  18.718  0.00  0.00    +0.000 C 
ATOM     16  C   UNL     1       2.732  13.998  18.579  0.00  0.00    +0.000 C 
ENDBRANCH   3  12
ENDBRANCH   1   2
BRANCH   1  17
ATOM     17  N   UNL     1       1.027  10.384  21.468  0.00  0.00    +0.000 NA
ATOM     18  H   UNL     1       1.650  10.712  20.717  0.00  0.00    +0.000 HD
BRANCH  17  19
ATOM     19  C   UNL     1       0.878   8.925  21.343  0.00  0.00    +0.000 C 
BRANCH  19  22
ATOM     20  N   UNL     1       2.634   7.361  18.516  0.00  0.00    +0.000 N 
ATOM     21  C   UNL     1       2.180   7.310  19.818  0.00  0.00    +0.000 A 
ATOM     22  C   UNL     1       1.445   8.451  20.052  0.00  0.00    +0.000 A 
ATOM     23  C   UNL     1       1.444   9.107  18.806  0.00  0.00    +0.000 A 
ATOM     24  N   UNL     1       2.188   8.480  17.893  0.00  0.00    +0.000 NA
BRANCH  20  31
ATOM     25  C   UNL     1       1.668   4.522  18.121  0.00  0.00    +0.000 C 
ATOM     26  C   UNL     1       3.022   5.037  17.710  0.00  0.00    +0.000 A 
ATOM     27  C   UNL     1       3.904   4.133  17.089  0.00  0.00    +0.000 A 
ATOM     28  C   UNL     1       5.149   4.543  16.611  0.00  0.00    +0.000 A 
ATOM     29  C   UNL     1       5.536   5.871  16.737  0.00  0.00    +0.000 A 
ATOM     30  C   UNL     1       4.683   6.786  17.349  0.00  0.00    +0.000 A 
ATOM     31  C   UNL     1       3.432   6.381  17.858  0.00  0.00    +0.000 A 
ENDBRANCH  20  31
ENDBRANCH  19  22
ENDBRANCH  17  19
ENDBRANCH   1  17
TORSDOF 6
ENDMDL
MODEL 9
REMARK VINA RESULT:      -7.4      3.554      9.392
REMARK  Name = 
REMARK  9 active torsions:
REMARK  status: ('A' for Active; 'I' for Inactive)
REMARK    1  A    between atoms: C_1  and  C_2
REMARK    2  A    between atoms: C_7  and  N_8
REMARK    3  A    between atoms: C_10  and  C_11
REMARK    4  A    between atoms: C_11  and  N_12
REMARK    5  A    between atoms: N_12  and  C_13
REMARK    6  A    between atoms: C_13  and  C_14
REMARK    7  A    between atoms: C_15  and  C_16
REMARK    8  A    between atoms: N_18  and  C_19
REMARK    9  A    between atoms: N_18  and  C_20
REMARK                            x       y       z     vdW  Elec       q    Type
REMARK                         _______ _______ _______ _____ _____    ______ ____
ROOT
ATOM      1  C   UNL     1       0.172  11.082  18.955  0.00  0.00    +0.000 C 
ENDROOT
BRANCH   1   2
ATOM      2  C   UNL     1      -1.274  11.411  19.106  0.00  0.00    +0.000 A 
ATOM      3  C   UNL     1      -1.972  12.103  20.103  0.00  0.00    +0.000 A 
ATOM      4  N   UNL     1      -3.294  12.241  19.731  0.00  0.00    +0.000 NA
ATOM      5  C   UNL     1      -3.398  11.755  18.521  0.00  0.00    +0.000 A 
ATOM      6  C   UNL     1      -4.494  11.768  17.621  0.00  0.00    +0.000 A 
ATOM      7  C   UNL     1      -4.355  11.238  16.392  0.00  0.00    +0.000 A 
ATOM      8  C   UNL     1      -3.101  10.626  15.981  0.00  0.00    +0.000 A 
ATOM      9 CL   UNL     1      -2.985   9.947  14.408  0.00  0.00    +0.000 Cl
ATOM     10  C   UNL     1      -2.060  10.614  16.827  0.00  0.00    +0.000 A 
ATOM     11  N   UNL     1      -2.198  11.198  18.091  0.00  0.00    +0.000 N 
BRANCH   3  12
ATOM     12  C   UNL     1      -1.434  12.623  21.383  0.00  0.00    +0.000 C 
ATOM     13  O   UNL     1      -1.356  11.875  22.363  0.00  0.00    +0.000 OA
ATOM     14  N   UNL     1      -1.015  13.969  21.464  0.00  0.00    +0.000 N 
ATOM     15  C   UNL     1      -0.741  14.842  20.327  0.00  0.00    +0.000 C 
ATOM     16  C   UNL     1      -0.478  14.449  22.727  0.00  0.00    +0.000 C 
ENDBRANCH   3  12
ENDBRANCH   1   2
BRANCH   1  17
ATOM     17  N   UNL     1       0.394   9.929  18.089  0.00  0.00    +0.000 NA
ATOM     18  H   UNL     1      -0.088   9.126  18.515  0.00  0.00    +0.000 HD
BRANCH  17  19
ATOM     19  C   UNL     1       1.823   9.600  17.962  0.00  0.00    +0.000 C 
BRANCH  19  22
ATOM     20  N   UNL     1       2.414   6.074  18.824  0.00  0.00    +0.000 N 
ATOM     21  C   UNL     1       2.386   7.088  17.888  0.00  0.00    +0.000 A 
ATOM     22  C   UNL     1       2.105   8.263  18.550  0.00  0.00    +0.000 A 
ATOM     23  C   UNL     1       2.051   7.877  19.903  0.00  0.00    +0.000 A 
ATOM     24  N   UNL     1       2.195   6.562  20.070  0.00  0.00    +0.000 NA
BRANCH  20  31
ATOM     25  C   UNL     1       0.809   3.884  20.157  0.00  0.00    +0.000 C 
ATOM     26  C   UNL     1       1.968   3.658  19.223  0.00  0.00    +0.000 A 
ATOM     27  C   UNL     1       2.331   2.326  18.943  0.00  0.00    +0.000 A 
ATOM     28  C   UNL     1       3.344   2.024  18.033  0.00  0.00    +0.000 A 
ATOM     29  C   UNL     1       4.013   3.049  17.377  0.00  0.00    +0.000 A 
ATOM     30  C   UNL     1       3.677   4.375  17.637  0.00  0.00    +0.000 A 
ATOM     31  C   UNL     1       2.671   4.695  18.571  0.00  0.00    +0.000 A 
ENDBRANCH  20  31
ENDBRANCH  19  22
ENDBRANCH  17  19
ENDBRANCH   1  17
TORSDOF 6
ENDMDL
