MODEL 1
REMARK VINA RESULT:      -8.3      0.000      0.000
REMARK  Name = 
REMARK  6 active torsions:
REMARK  status: ('A' for Active; 'I' for Inactive)
REMARK    1  A    between atoms: C_2  and  C_15
REMARK    2  A    between atoms: N_3  and  C_4
REMARK    3  A    between atoms: C_11  and  O_12
REMARK    4  A    between atoms: C_19  and  N_20
REMARK    5  A    between atoms: C_23  and  C_24
REMARK    6  A    between atoms: C_24  and  O_25
REMARK                            x       y       z     vdW  Elec       q    Type
REMARK                         _______ _______ _______ _____ _____    ______ ____
ROOT
ATOM      1  O   UNL     1       3.145   7.472  18.870  0.00  0.00    +0.000 OA
ATOM      2  C   UNL     1       2.295   7.303  19.739  0.00  0.00    +0.000 C 
ATOM      3  N   UNL     1       2.140   6.101  20.408  0.00  0.00    +0.000 N 
ATOM      4  H   UNL     1       1.346   6.043  21.037  0.00  0.00    +0.000 HD
ENDROOT
BRANCH   3   5
ATOM      5  C   UNL     1       2.936   4.921  20.063  0.00  0.00    +0.000 C 
ATOM      6  C   UNL     1       2.518   3.671  20.874  0.00  0.00    +0.000 C 
ATOM      7  C   UNL     1       1.097   3.227  20.482  0.00  0.00    +0.000 C 
ATOM      8  C   UNL     1       1.037   2.904  18.978  0.00  0.00    +0.000 C 
ATOM      9  C   UNL     1       1.452   4.143  18.165  0.00  0.00    +0.000 C 
ATOM     10  C   UNL     1       2.877   4.584  18.549  0.00  0.00    +0.000 C 
ATOM     11  C   UNL     1       3.846   3.418  18.251  0.00  0.00    +0.000 C 
ATOM     12  C   UNL     1       3.442   2.172  19.055  0.00  0.00    +0.000 C 
ATOM     13  C   UNL     1       2.013   1.755  18.675  0.00  0.00    +0.000 C 
ATOM     14  C   UNL     1       3.491   2.511  20.556  0.00  0.00    +0.000 C 
BRANCH  12  15
ATOM     15  O   UNL     1       4.340   1.107  18.778  0.00  0.00    +0.000 OA
ATOM     16  H   UNL     1       4.735   0.822  19.613  0.00  0.00    +0.000 HD
ENDBRANCH  12  15
ENDBRANCH   3   5
BRANCH   2  17
ATOM     17  C   UNL     1       1.367   8.428  20.127  0.00  0.00    +0.000 A 
ATOM     18  C   UNL     1       1.377   8.831  21.454  0.00  0.00    +0.000 A 
ATOM     19  C   UNL     1       0.513   9.845  21.842  0.00  0.00    +0.000 A 
ATOM     20  C   UNL     1      -0.323  10.403  20.885  0.00  0.00    +0.000 A 
ATOM     21  C   UNL     1      -0.308   9.950  19.564  0.00  0.00    +0.000 A 
ATOM     22  N   UNL     1       0.546   8.962  19.178  0.00  0.00    +0.000 NA
BRANCH  21  23
ATOM     23  N   UNL     1      -1.243  10.443  18.673  0.00  0.00    +0.000 N 
ATOM     24  C   UNL     1      -1.645   9.608  17.547  0.00  0.00    +0.000 C 
ATOM     25  C   UNL     1      -3.178   9.590  17.491  0.00  0.00    +0.000 C 
ATOM     26  C   UNL     1      -3.763  11.011  17.410  0.00  0.00    +0.000 C 
ATOM     27  C   UNL     1      -3.260  11.830  18.614  0.00  0.00    +0.000 C 
ATOM     28  C   UNL     1      -1.731  11.823  18.700  0.00  0.00    +0.000 C 
BRANCH  26  29
ATOM     29  C   UNL     1      -3.415  11.675  16.071  0.00  0.00    +0.000 C 
BRANCH  29  30
ATOM     30  O   UNL     1      -3.537  10.751  15.003  0.00  0.00    +0.000 OA
ATOM     31  H   UNL     1      -4.386  10.292  15.105  0.00  0.00    +0.000 HD
ENDBRANCH  29  30
ENDBRANCH  26  29
ENDBRANCH  21  23
ENDBRANCH   2  17
TORSDOF 6
ENDMDL
MODEL 2
REMARK VINA RESULT:      -8.3      2.204      2.753
REMARK  Name = 
REMARK  6 active torsions:
REMARK  status: ('A' for Active; 'I' for Inactive)
REMARK    1  A    between atoms: C_2  and  C_15
REMARK    2  A    between atoms: N_3  and  C_4
REMARK    3  A    between atoms: C_11  and  O_12
REMARK    4  A    between atoms: C_19  and  N_20
REMARK    5  A    between atoms: C_23  and  C_24
REMARK    6  A    between atoms: C_24  and  O_25
REMARK                            x       y       z     vdW  Elec       q    Type
REMARK                         _______ _______ _______ _____ _____    ______ ____
ROOT
ATOM      1  O   UNL     1       2.668   7.519  18.713  0.00  0.00    +0.000 OA
ATOM      2  C   UNL     1       2.144   7.281  19.797  0.00  0.00    +0.000 C 
ATOM      3  N   UNL     1       2.291   6.068  20.447  0.00  0.00    +0.000 N 
ATOM      4  H   UNL     1       1.737   5.945  21.289  0.00  0.00    +0.000 HD
ENDROOT
BRANCH   3   5
ATOM      5  C   UNL     1       3.025   4.954  19.840  0.00  0.00    +0.000 C 
ATOM      6  C   UNL     1       2.929   3.658  20.681  0.00  0.00    +0.000 C 
ATOM      7  C   UNL     1       1.483   3.128  20.685  0.00  0.00    +0.000 C 
ATOM      8  C   UNL     1       1.018   2.839  19.246  0.00  0.00    +0.000 C 
ATOM      9  C   UNL     1       1.112   4.124  18.405  0.00  0.00    +0.000 C 
ATOM     10  C   UNL     1       2.559   4.653  18.391  0.00  0.00    +0.000 C 
ATOM     11  C   UNL     1       3.470   3.564  17.781  0.00  0.00    +0.000 C 
ATOM     12  C   UNL     1       3.385   2.274  18.611  0.00  0.00    +0.000 C 
ATOM     13  C   UNL     1       1.934   1.768  18.631  0.00  0.00    +0.000 C 
ATOM     14  C   UNL     1       3.838   2.577  20.051  0.00  0.00    +0.000 C 
BRANCH  12  15
ATOM     15  O   UNL     1       4.228   1.280  18.046  0.00  0.00    +0.000 OA
ATOM     16  H   UNL     1       3.692   0.725  17.465  0.00  0.00    +0.000 HD
ENDBRANCH  12  15
ENDBRANCH   3   5
BRANCH   2  17
ATOM     17  C   UNL     1       1.302   8.328  20.483  0.00  0.00    +0.000 A 
ATOM     18  C   UNL     1       0.496   7.909  21.532  0.00  0.00    +0.000 A 
ATOM     19  C   UNL     1      -0.308   8.848  22.161  0.00  0.00    +0.000 A 
ATOM     20  C   UNL     1      -0.272  10.160  21.710  0.00  0.00    +0.000 A 
ATOM     21  C   UNL     1       0.545  10.528  20.638  0.00  0.00    +0.000 A 
ATOM     22  N   UNL     1       1.343   9.611  20.024  0.00  0.00    +0.000 NA
BRANCH  21  23
ATOM     23  N   UNL     1       0.459  11.814  20.137  0.00  0.00    +0.000 N 
ATOM     24  C   UNL     1       1.620  12.689  20.248  0.00  0.00    +0.000 C 
ATOM     25  C   UNL     1       1.876  13.317  18.872  0.00  0.00    +0.000 C 
ATOM     26  C   UNL     1       0.634  14.052  18.340  0.00  0.00    +0.000 C 
ATOM     27  C   UNL     1      -0.549  13.066  18.290  0.00  0.00    +0.000 C 
ATOM     28  C   UNL     1      -0.789  12.406  19.651  0.00  0.00    +0.000 C 
BRANCH  26  29
ATOM     29  C   UNL     1       0.321  15.291  19.190  0.00  0.00    +0.000 C 
BRANCH  29  30
ATOM     30  O   UNL     1      -0.818  15.970  18.690  0.00  0.00    +0.000 OA
ATOM     31  H   UNL     1      -0.524  16.554  17.972  0.00  0.00    +0.000 HD
ENDBRANCH  29  30
ENDBRANCH  26  29
ENDBRANCH  21  23
ENDBRANCH   2  17
TORSDOF 6
ENDMDL
MODEL 3
REMARK VINA RESULT:      -8.2      2.771      3.605
REMARK  Name = 
REMARK  6 active torsions:
REMARK  status: ('A' for Active; 'I' for Inactive)
REMARK    1  A    between atoms: C_2  and  C_15
REMARK    2  A    between atoms: N_3  and  C_4
REMARK    3  A    between atoms: C_11  and  O_12
REMARK    4  A    between atoms: C_19  and  N_20
REMARK    5  A    between atoms: C_23  and  C_24
REMARK    6  A    between atoms: C_24  and  O_25
REMARK                            x       y       z     vdW  Elec       q    Type
REMARK                         _______ _______ _______ _____ _____    ______ ____
ROOT
ATOM      1  O   UNL     1       1.494   7.335  21.318  0.00  0.00    +0.000 OA
ATOM      2  C   UNL     1       1.716   7.762  20.189  0.00  0.00    +0.000 C 
ATOM      3  N   UNL     1       2.504   7.084  19.275  0.00  0.00    +0.000 N 
ATOM      4  H   UNL     1       2.698   7.573  18.407  0.00  0.00    +0.000 HD
ENDROOT
BRANCH   3   5
ATOM      5  C   UNL     1       3.194   5.841  19.629  0.00  0.00    +0.000 C 
ATOM      6  C   UNL     1       2.260   4.608  19.555  0.00  0.00    +0.000 C 
ATOM      7  C   UNL     1       1.840   4.341  18.097  0.00  0.00    +0.000 C 
ATOM      8  C   UNL     1       3.083   4.095  17.222  0.00  0.00    +0.000 C 
ATOM      9  C   UNL     1       4.016   5.317  17.292  0.00  0.00    +0.000 C 
ATOM     10  C   UNL     1       4.445   5.582  18.748  0.00  0.00    +0.000 C 
ATOM     11  C   UNL     1       5.185   4.331  19.274  0.00  0.00    +0.000 C 
ATOM     12  C   UNL     1       4.266   3.102  19.208  0.00  0.00    +0.000 C 
ATOM     13  C   UNL     1       3.831   2.861  17.754  0.00  0.00    +0.000 C 
ATOM     14  C   UNL     1       3.020   3.365  20.074  0.00  0.00    +0.000 C 
BRANCH  12  15
ATOM     15  O   UNL     1       4.952   1.959  19.696  0.00  0.00    +0.000 OA
ATOM     16  H   UNL     1       5.873   2.014  19.407  0.00  0.00    +0.000 HD
ENDBRANCH  12  15
ENDBRANCH   3   5
BRANCH   2  17
ATOM     17  C   UNL     1       1.118   9.072  19.738  0.00  0.00    +0.000 A 
ATOM     18  C   UNL     1       1.623   9.635  18.574  0.00  0.00    +0.000 A 
ATOM     19  C   UNL     1       1.109  10.852  18.154  0.00  0.00    +0.000 A 
ATOM     20  C   UNL     1       0.119  11.453  18.919  0.00  0.00    +0.000 A 
ATOM     21  C   UNL     1      -0.344  10.854  20.093  0.00  0.00    +0.000 A 
ATOM     22  N   UNL     1       0.151   9.653  20.504  0.00  0.00    +0.000 NA
BRANCH  21  23
ATOM     23  N   UNL     1      -1.238  11.543  20.893  0.00  0.00    +0.000 N 
ATOM     24  C   UNL     1      -1.172  11.358  22.337  0.00  0.00    +0.000 C 
ATOM     25  C   UNL     1      -1.166  12.744  22.995  0.00  0.00    +0.000 C 
ATOM     26  C   UNL     1      -2.378  13.586  22.563  0.00  0.00    +0.000 C 
ATOM     27  C   UNL     1      -2.389  13.700  21.027  0.00  0.00    +0.000 C 
ATOM     28  C   UNL     1      -2.358  12.322  20.361  0.00  0.00    +0.000 C 
BRANCH  26  29
ATOM     29  C   UNL     1      -3.684  12.993  23.110  0.00  0.00    +0.000 C 
BRANCH  29  30
ATOM     30  O   UNL     1      -3.760  13.152  24.516  0.00  0.00    +0.000 OA
ATOM     31  H   UNL     1      -3.028  13.728  24.790  0.00  0.00    +0.000 HD
ENDBRANCH  29  30
ENDBRANCH  26  29
ENDBRANCH  21  23
ENDBRANCH   2  17
TORSDOF 6
ENDMDL
MODEL 4
REMARK VINA RESULT:      -8.1      2.962      3.859
REMARK  Name = 
REMARK  6 active torsions:
REMARK  status: ('A' for Active; 'I' for Inactive)
REMARK    1  A    between atoms: C_2  and  C_15
REMARK    2  A    between atoms: N_3  and  C_4
REMARK    3  A    between atoms: C_11  and  O_12
REMARK    4  A    between atoms: C_19  and  N_20
REMARK    5  A    between atoms: C_23  and  C_24
REMARK    6  A    between atoms: C_24  and  O_25
REMARK                            x       y       z     vdW  Elec       q    Type
REMARK                         _______ _______ _______ _____ _____    ______ ____
ROOT
ATOM      1  O   UNL     1       1.472   7.203  21.367  0.00  0.00    +0.000 OA
ATOM      2  C   UNL     1       1.724   7.683  20.265  0.00  0.00    +0.000 C 
ATOM      3  N   UNL     1       2.548   7.053  19.347  0.00  0.00    +0.000 N 
ATOM      4  H   UNL     1       2.764   7.583  18.509  0.00  0.00    +0.000 HD
ENDROOT
BRANCH   3   5
ATOM      5  C   UNL     1       3.239   5.802  19.666  0.00  0.00    +0.000 C 
ATOM      6  C   UNL     1       2.297   4.576  19.601  0.00  0.00    +0.000 C 
ATOM      7  C   UNL     1       1.837   4.330  18.152  0.00  0.00    +0.000 C 
ATOM      8  C   UNL     1       3.054   4.088  17.241  0.00  0.00    +0.000 C 
ATOM      9  C   UNL     1       3.996   5.304  17.303  0.00  0.00    +0.000 C 
ATOM     10  C   UNL     1       4.465   5.548  18.750  0.00  0.00    +0.000 C 
ATOM     11  C   UNL     1       5.211   4.286  19.239  0.00  0.00    +0.000 C 
ATOM     12  C   UNL     1       4.283   3.063  19.182  0.00  0.00    +0.000 C 
ATOM     13  C   UNL     1       3.809   2.843  17.737  0.00  0.00    +0.000 C 
ATOM     14  C   UNL     1       3.063   3.322  20.084  0.00  0.00    +0.000 C 
BRANCH  12  15
ATOM     15  O   UNL     1       4.975   1.910  19.637  0.00  0.00    +0.000 OA
ATOM     16  H   UNL     1       4.324   1.280  19.973  0.00  0.00    +0.000 HD
ENDBRANCH  12  15
ENDBRANCH   3   5
BRANCH   2  17
ATOM     17  C   UNL     1       1.127   9.006  19.855  0.00  0.00    +0.000 A 
ATOM     18  C   UNL     1       1.292   9.396  18.534  0.00  0.00    +0.000 A 
ATOM     19  C   UNL     1       0.776  10.621  18.139  0.00  0.00    +0.000 A 
ATOM     20  C   UNL     1       0.124  11.401  19.084  0.00  0.00    +0.000 A 
ATOM     21  C   UNL     1      -0.001  10.971  20.407  0.00  0.00    +0.000 A 
ATOM     22  N   UNL     1       0.496   9.764  20.796  0.00  0.00    +0.000 NA
BRANCH  21  23
ATOM     23  N   UNL     1      -0.543  11.830  21.345  0.00  0.00    +0.000 N 
ATOM     24  C   UNL     1      -0.662  13.245  21.013  0.00  0.00    +0.000 C 
ATOM     25  C   UNL     1      -2.091  13.694  21.348  0.00  0.00    +0.000 C 
ATOM     26  C   UNL     1      -2.453  13.400  22.814  0.00  0.00    +0.000 C 
ATOM     27  C   UNL     1      -2.265  11.895  23.086  0.00  0.00    +0.000 C 
ATOM     28  C   UNL     1      -0.853  11.429  22.719  0.00  0.00    +0.000 C 
BRANCH  26  29
ATOM     29  C   UNL     1      -1.626  14.269  23.771  0.00  0.00    +0.000 C 
BRANCH  29  30
ATOM     30  O   UNL     1      -2.382  14.615  24.919  0.00  0.00    +0.000 OA
ATOM     31  H   UNL     1      -1.758  14.836  25.629  0.00  0.00    +0.000 HD
ENDBRANCH  29  30
ENDBRANCH  26  29
ENDBRANCH  21  23
ENDBRANCH   2  17
TORSDOF 6
ENDMDL
MODEL 5
REMARK VINA RESULT:      -8.0      3.433      9.465
REMARK  Name = 
REMARK  6 active torsions:
REMARK  status: ('A' for Active; 'I' for Inactive)
REMARK    1  A    between atoms: C_2  and  C_15
REMARK    2  A    between atoms: N_3  and  C_4
REMARK    3  A    between atoms: C_11  and  O_12
REMARK    4  A    between atoms: C_19  and  N_20
REMARK    5  A    between atoms: C_23  and  C_24
REMARK    6  A    between atoms: C_24  and  O_25
REMARK                            x       y       z     vdW  Elec       q    Type
REMARK                         _______ _______ _______ _____ _____    ______ ____
ROOT
ATOM      1  O   UNL     1       0.643   9.786  22.712  0.00  0.00    +0.000 OA
ATOM      2  C   UNL     1       0.479  10.241  21.583  0.00  0.00    +0.000 C 
ATOM      3  N   UNL     1      -0.230  11.406  21.344  0.00  0.00    +0.000 N 
ATOM      4  H   UNL     1      -0.384  11.638  20.368  0.00  0.00    +0.000 HD
ENDROOT
BRANCH   3   5
ATOM      5  C   UNL     1      -0.901  12.132  22.424  0.00  0.00    +0.000 C 
ATOM      6  C   UNL     1      -0.528  13.634  22.444  0.00  0.00    +0.000 C 
ATOM      7  C   UNL     1      -1.076  14.340  21.190  0.00  0.00    +0.000 C 
ATOM      8  C   UNL     1      -2.607  14.196  21.125  0.00  0.00    +0.000 C 
ATOM      9  C   UNL     1      -2.986  12.704  21.106  0.00  0.00    +0.000 C 
ATOM     10  C   UNL     1      -2.446  11.996  22.363  0.00  0.00    +0.000 C 
ATOM     11  C   UNL     1      -3.064  12.673  23.607  0.00  0.00    +0.000 C 
ATOM     12  C   UNL     1      -2.696  14.165  23.639  0.00  0.00    +0.000 C 
ATOM     13  C   UNL     1      -3.224  14.853  22.371  0.00  0.00    +0.000 C 
ATOM     14  C   UNL     1      -1.163  14.298  23.689  0.00  0.00    +0.000 C 
BRANCH  12  15
ATOM     15  O   UNL     1      -3.264  14.778  24.787  0.00  0.00    +0.000 OA
ATOM     16  H   UNL     1      -3.576  15.658  24.535  0.00  0.00    +0.000 HD
ENDBRANCH  12  15
ENDBRANCH   3   5
BRANCH   2  17
ATOM     17  C   UNL     1       1.063   9.535  20.385  0.00  0.00    +0.000 A 
ATOM     18  C   UNL     1       0.993  10.192  19.164  0.00  0.00    +0.000 A 
ATOM     19  C   UNL     1       1.498   9.553  18.042  0.00  0.00    +0.000 A 
ATOM     20  C   UNL     1       2.045   8.286  18.191  0.00  0.00    +0.000 A 
ATOM     21  C   UNL     1       2.077   7.660  19.440  0.00  0.00    +0.000 A 
ATOM     22  N   UNL     1       1.591   8.289  20.546  0.00  0.00    +0.000 NA
BRANCH  21  23
ATOM     23  N   UNL     1       2.513   6.350  19.525  0.00  0.00    +0.000 N 
ATOM     24  C   UNL     1       1.878   5.462  20.491  0.00  0.00    +0.000 C 
ATOM     25  C   UNL     1       1.501   4.163  19.766  0.00  0.00    +0.000 C 
ATOM     26  C   UNL     1       2.718   3.517  19.083  0.00  0.00    +0.000 C 
ATOM     27  C   UNL     1       3.346   4.533  18.110  0.00  0.00    +0.000 C 
ATOM     28  C   UNL     1       3.692   5.848  18.816  0.00  0.00    +0.000 C 
BRANCH  26  29
ATOM     29  C   UNL     1       3.727   3.008  20.121  0.00  0.00    +0.000 C 
BRANCH  29  30
ATOM     30  O   UNL     1       4.914   2.556  19.491  0.00  0.00    +0.000 OA
ATOM     31  H   UNL     1       4.854   1.591  19.403  0.00  0.00    +0.000 HD
ENDBRANCH  29  30
ENDBRANCH  26  29
ENDBRANCH  21  23
ENDBRANCH   2  17
TORSDOF 6
ENDMDL
MODEL 6
REMARK VINA RESULT:      -7.9      2.985      4.198
REMARK  Name = 
REMARK  6 active torsions:
REMARK  status: ('A' for Active; 'I' for Inactive)
REMARK    1  A    between atoms: C_2  and  C_15
REMARK    2  A    between atoms: N_3  and  C_4
REMARK    3  A    between atoms: C_11  and  O_12
REMARK    4  A    between atoms: C_19  and  N_20
REMARK    5  A    between atoms: C_23  and  C_24
REMARK    6  A    between atoms: C_24  and  O_25
REMARK                            x       y       z     vdW  Elec       q    Type
REMARK                         _______ _______ _______ _____ _____    ______ ____
ROOT
ATOM      1  O   UNL     1       2.376   8.345  17.083  0.00  0.00    +0.000 OA
ATOM      2  C   UNL     1       2.466   7.886  18.219  0.00  0.00    +0.000 C 
ATOM      3  N   UNL     1       3.143   6.712  18.498  0.00  0.00    +0.000 N 
ATOM      4  H   UNL     1       3.073   6.376  19.453  0.00  0.00    +0.000 HD
ENDROOT
BRANCH   3   5
ATOM      5  C   UNL     1       3.734   5.893  17.436  0.00  0.00    +0.000 C 
ATOM      6  C   UNL     1       4.913   6.605  16.731  0.00  0.00    +0.000 C 
ATOM      7  C   UNL     1       6.096   6.774  17.703  0.00  0.00    +0.000 C 
ATOM      8  C   UNL     1       6.562   5.400  18.218  0.00  0.00    +0.000 C 
ATOM      9  C   UNL     1       5.392   4.686  18.919  0.00  0.00    +0.000 C 
ATOM     10  C   UNL     1       4.211   4.508  17.946  0.00  0.00    +0.000 C 
ATOM     11  C   UNL     1       4.691   3.662  16.746  0.00  0.00    +0.000 C 
ATOM     12  C   UNL     1       5.860   4.363  16.036  0.00  0.00    +0.000 C 
ATOM     13  C   UNL     1       7.024   4.550  17.022  0.00  0.00    +0.000 C 
ATOM     14  C   UNL     1       5.388   5.741  15.539  0.00  0.00    +0.000 C 
BRANCH  12  15
ATOM     15  O   UNL     1       6.292   3.581  14.932  0.00  0.00    +0.000 OA
ATOM     16  H   UNL     1       6.923   4.105  14.420  0.00  0.00    +0.000 HD
ENDBRANCH  12  15
ENDBRANCH   3   5
BRANCH   2  17
ATOM     17  C   UNL     1       1.832   8.606  19.383  0.00  0.00    +0.000 A 
ATOM     18  C   UNL     1       1.641   7.880  20.551  0.00  0.00    +0.000 A 
ATOM     19  C   UNL     1       1.035   8.511  21.627  0.00  0.00    +0.000 A 
ATOM     20  C   UNL     1       0.645   9.835  21.484  0.00  0.00    +0.000 A 
ATOM     21  C   UNL     1       0.844  10.517  20.281  0.00  0.00    +0.000 A 
ATOM     22  N   UNL     1       1.448   9.904  19.226  0.00  0.00    +0.000 NA
BRANCH  21  23
ATOM     23  N   UNL     1       0.327  11.792  20.137  0.00  0.00    +0.000 N 
ATOM     24  C   UNL     1       0.796  12.843  21.032  0.00  0.00    +0.000 C 
ATOM     25  C   UNL     1       1.180  14.059  20.179  0.00  0.00    +0.000 C 
ATOM     26  C   UNL     1       0.015  14.521  19.287  0.00  0.00    +0.000 C 
ATOM     27  C   UNL     1      -0.439  13.343  18.404  0.00  0.00    +0.000 C 
ATOM     28  C   UNL     1      -0.789  12.112  19.245  0.00  0.00    +0.000 C 
BRANCH  26  29
ATOM     29  C   UNL     1      -1.134  15.089  20.131  0.00  0.00    +0.000 C 
BRANCH  29  30
ATOM     30  O   UNL     1      -1.811  16.119  19.433  0.00  0.00    +0.000 OA
ATOM     31  H   UNL     1      -2.605  16.350  19.942  0.00  0.00    +0.000 HD
ENDBRANCH  29  30
ENDBRANCH  26  29
ENDBRANCH  21  23
ENDBRANCH   2  17
TORSDOF 6
ENDMDL
MODEL 7
REMARK VINA RESULT:      -7.9      3.044      4.010
REMARK  Name = 
REMARK  6 active torsions:
REMARK  status: ('A' for Active; 'I' for Inactive)
REMARK    1  A    between atoms: C_2  and  C_15
REMARK    2  A    between atoms: N_3  and  C_4
REMARK    3  A    between atoms: C_11  and  O_12
REMARK    4  A    between atoms: C_19  and  N_20
REMARK    5  A    between atoms: C_23  and  C_24
REMARK    6  A    between atoms: C_24  and  O_25
REMARK                            x       y       z     vdW  Elec       q    Type
REMARK                         _______ _______ _______ _____ _____    ______ ____
ROOT
ATOM      1  O   UNL     1       2.450   8.274  17.096  0.00  0.00    +0.000 OA
ATOM      2  C   UNL     1       2.546   7.770  18.211  0.00  0.00    +0.000 C 
ATOM      3  N   UNL     1       3.242   6.596  18.442  0.00  0.00    +0.000 N 
ATOM      4  H   UNL     1       3.177   6.219  19.383  0.00  0.00    +0.000 HD
ENDROOT
BRANCH   3   5
ATOM      5  C   UNL     1       3.847   5.833  17.348  0.00  0.00    +0.000 C 
ATOM      6  C   UNL     1       5.041   6.576  16.702  0.00  0.00    +0.000 C 
ATOM      7  C   UNL     1       6.208   6.686  17.701  0.00  0.00    +0.000 C 
ATOM      8  C   UNL     1       6.660   5.285  18.149  0.00  0.00    +0.000 C 
ATOM      9  C   UNL     1       5.476   4.540  18.792  0.00  0.00    +0.000 C 
ATOM     10  C   UNL     1       4.310   4.420  17.792  0.00  0.00    +0.000 C 
ATOM     11  C   UNL     1       4.807   3.637  16.555  0.00  0.00    +0.000 C 
ATOM     12  C   UNL     1       5.991   4.369  15.904  0.00  0.00    +0.000 C 
ATOM     13  C   UNL     1       7.139   4.498  16.918  0.00  0.00    +0.000 C 
ATOM     14  C   UNL     1       5.532   5.774  15.473  0.00  0.00    +0.000 C 
BRANCH  12  15
ATOM     15  O   UNL     1       6.439   3.646  14.767  0.00  0.00    +0.000 OA
ATOM     16  H   UNL     1       5.714   3.082  14.464  0.00  0.00    +0.000 HD
ENDBRANCH  12  15
ENDBRANCH   3   5
BRANCH   2  17
ATOM     17  C   UNL     1       1.899   8.429  19.404  0.00  0.00    +0.000 A 
ATOM     18  C   UNL     1       1.744   7.660  20.549  0.00  0.00    +0.000 A 
ATOM     19  C   UNL     1       1.127   8.235  21.650  0.00  0.00    +0.000 A 
ATOM     20  C   UNL     1       0.690   9.549  21.553  0.00  0.00    +0.000 A 
ATOM     21  C   UNL     1       0.855  10.276  20.372  0.00  0.00    +0.000 A 
ATOM     22  N   UNL     1       1.469   9.718  19.292  0.00  0.00    +0.000 NA
BRANCH  21  23
ATOM     23  N   UNL     1       0.294  11.536  20.274  0.00  0.00    +0.000 N 
ATOM     24  C   UNL     1       0.491  12.297  19.045  0.00  0.00    +0.000 C 
ATOM     25  C   UNL     1      -0.875  12.823  18.587  0.00  0.00    +0.000 C 
ATOM     26  C   UNL     1      -1.567  13.648  19.686  0.00  0.00    +0.000 C 
ATOM     27  C   UNL     1      -1.701  12.783  20.953  0.00  0.00    +0.000 C 
ATOM     28  C   UNL     1      -0.347  12.221  21.398  0.00  0.00    +0.000 C 
BRANCH  26  29
ATOM     29  C   UNL     1      -0.808  14.955  19.954  0.00  0.00    +0.000 C 
BRANCH  29  30
ATOM     30  O   UNL     1      -0.874  15.816  18.831  0.00  0.00    +0.000 OA
ATOM     31  H   UNL     1      -1.423  16.579  19.073  0.00  0.00    +0.000 HD
ENDBRANCH  29  30
ENDBRANCH  26  29
ENDBRANCH  21  23
ENDBRANCH   2  17
TORSDOF 6
ENDMDL
MODEL 8
REMARK VINA RESULT:      -7.9      0.773      1.258
REMARK  Name = 
REMARK  6 active torsions:
REMARK  status: ('A' for Active; 'I' for Inactive)
REMARK    1  A    between atoms: C_2  and  C_15
REMARK    2  A    between atoms: N_3  and  C_4
REMARK    3  A    between atoms: C_11  and  O_12
REMARK    4  A    between atoms: C_19  and  N_20
REMARK    5  A    between atoms: C_23  and  C_24
REMARK    6  A    between atoms: C_24  and  O_25
REMARK                            x       y       z     vdW  Elec       q    Type
REMARK                         _______ _______ _______ _____ _____    ______ ____
ROOT
ATOM      1  O   UNL     1       3.113   7.429  19.050  0.00  0.00    +0.000 OA
ATOM      2  C   UNL     1       2.312   7.199  19.951  0.00  0.00    +0.000 C 
ATOM      3  N   UNL     1       2.194   5.954  20.546  0.00  0.00    +0.000 N 
ATOM      4  H   UNL     1       1.435   5.851  21.212  0.00  0.00    +0.000 HD
ENDROOT
BRANCH   3   5
ATOM      5  C   UNL     1       2.970   4.803  20.080  0.00  0.00    +0.000 C 
ATOM      6  C   UNL     1       2.587   3.497  20.818  0.00  0.00    +0.000 C 
ATOM      7  C   UNL     1       1.148   3.082  20.460  0.00  0.00    +0.000 C 
ATOM      8  C   UNL     1       1.017   2.868  18.941  0.00  0.00    +0.000 C 
ATOM      9  C   UNL     1       1.398   4.163  18.202  0.00  0.00    +0.000 C 
ATOM     10  C   UNL     1       2.840   4.577  18.550  0.00  0.00    +0.000 C 
ATOM     11  C   UNL     1       3.791   3.435  18.124  0.00  0.00    +0.000 C 
ATOM     12  C   UNL     1       3.421   2.135  18.854  0.00  0.00    +0.000 C 
ATOM     13  C   UNL     1       1.975   1.745  18.512  0.00  0.00    +0.000 C 
ATOM     14  C   UNL     1       3.541   2.364  20.372  0.00  0.00    +0.000 C 
BRANCH  12  15
ATOM     15  O   UNL     1       4.302   1.093  18.460  0.00  0.00    +0.000 OA
ATOM     16  H   UNL     1       4.202   0.361  19.083  0.00  0.00    +0.000 HD
ENDBRANCH  12  15
ENDBRANCH   3   5
BRANCH   2  17
ATOM     17  C   UNL     1       1.406   8.292  20.463  0.00  0.00    +0.000 A 
ATOM     18  C   UNL     1       1.522   8.638  21.802  0.00  0.00    +0.000 A 
ATOM     19  C   UNL     1       0.682   9.621  22.303  0.00  0.00    +0.000 A 
ATOM     20  C   UNL     1      -0.238  10.208  21.444  0.00  0.00    +0.000 A 
ATOM     21  C   UNL     1      -0.327   9.811  20.108  0.00  0.00    +0.000 A 
ATOM     22  N   UNL     1       0.503   8.853  19.610  0.00  0.00    +0.000 NA
BRANCH  21  23
ATOM     23  N   UNL     1      -1.339  10.327  19.319  0.00  0.00    +0.000 N 
ATOM     24  C   UNL     1      -1.665  11.743  19.436  0.00  0.00    +0.000 C 
ATOM     25  C   UNL     1      -1.717  12.338  18.022  0.00  0.00    +0.000 C 
ATOM     26  C   UNL     1      -2.704  11.579  17.120  0.00  0.00    +0.000 C 
ATOM     27  C   UNL     1      -2.307  10.091  17.082  0.00  0.00    +0.000 C 
ATOM     28  C   UNL     1      -2.216   9.497  18.491  0.00  0.00    +0.000 C 
BRANCH  26  29
ATOM     29  C   UNL     1      -4.150  11.782  17.592  0.00  0.00    +0.000 C 
BRANCH  29  30
ATOM     30  O   UNL     1      -4.903  12.489  16.621  0.00  0.00    +0.000 OA
ATOM     31  H   UNL     1      -5.078  13.377  16.971  0.00  0.00    +0.000 HD
ENDBRANCH  29  30
ENDBRANCH  26  29
ENDBRANCH  21  23
ENDBRANCH   2  17
TORSDOF 6
ENDMDL
MODEL 9
REMARK VINA RESULT:      -7.7      3.181      9.143
REMARK  Name = 
REMARK  6 active torsions:
REMARK  status: ('A' for Active; 'I' for Inactive)
REMARK    1  A    between atoms: C_2  and  C_15
REMARK    2  A    between atoms: N_3  and  C_4
REMARK    3  A    between atoms: C_11  and  O_12
REMARK    4  A    between atoms: C_19  and  N_20
REMARK    5  A    between atoms: C_23  and  C_24
REMARK    6  A    between atoms: C_24  and  O_25
REMARK                            x       y       z     vdW  Elec       q    Type
REMARK                         _______ _______ _______ _____ _____    ______ ____
ROOT
ATOM      1  O   UNL     1       2.086  10.228  17.423  0.00  0.00    +0.000 OA
ATOM      2  C   UNL     1       1.636   9.510  18.312  0.00  0.00    +0.000 C 
ATOM      3  N   UNL     1       0.560   9.883  19.100  0.00  0.00    +0.000 N 
ATOM      4  H   UNL     1       0.333   9.257  19.865  0.00  0.00    +0.000 HD
ENDROOT
BRANCH   3   5
ATOM      5  C   UNL     1      -0.064  11.202  18.974  0.00  0.00    +0.000 C 
ATOM      6  C   UNL     1      -1.322  11.346  19.863  0.00  0.00    +0.000 C 
ATOM      7  C   UNL     1      -0.932  11.314  21.353  0.00  0.00    +0.000 C 
ATOM      8  C   UNL     1       0.050  12.456  21.670  0.00  0.00    +0.000 C 
ATOM      9  C   UNL     1       1.304  12.320  20.787  0.00  0.00    +0.000 C 
ATOM     10  C   UNL     1       0.918  12.360  19.296  0.00  0.00    +0.000 C 
ATOM     11  C   UNL     1       0.224  13.710  19.008  0.00  0.00    +0.000 C 
ATOM     12  C   UNL     1      -1.030  13.860  19.884  0.00  0.00    +0.000 C 
ATOM     13  C   UNL     1      -0.632  13.800  21.367  0.00  0.00    +0.000 C 
ATOM     14  C   UNL     1      -1.998  12.706  19.570  0.00  0.00    +0.000 C 
BRANCH  12  15
ATOM     15  O   UNL     1      -1.664  15.101  19.610  0.00  0.00    +0.000 OA
ATOM     16  H   UNL     1      -1.508  15.321  18.682  0.00  0.00    +0.000 HD
ENDBRANCH  12  15
ENDBRANCH   3   5
BRANCH   2  17
ATOM     17  C   UNL     1       2.247   8.158  18.583  0.00  0.00    +0.000 A 
ATOM     18  C   UNL     1       1.950   7.558  19.799  0.00  0.00    +0.000 A 
ATOM     19  C   UNL     1       2.522   6.327  20.083  0.00  0.00    +0.000 A 
ATOM     20  C   UNL     1       3.367   5.756  19.142  0.00  0.00    +0.000 A 
ATOM     21  C   UNL     1       3.649   6.408  17.939  0.00  0.00    +0.000 A 
ATOM     22  N   UNL     1       3.081   7.613  17.652  0.00  0.00    +0.000 NA
BRANCH  21  23
ATOM     23  N   UNL     1       4.592   5.868  17.085  0.00  0.00    +0.000 N 
ATOM     24  C   UNL     1       5.666   6.725  16.595  0.00  0.00    +0.000 C 
ATOM     25  C   UNL     1       6.995   5.988  16.804  0.00  0.00    +0.000 C 
ATOM     26  C   UNL     1       6.992   4.604  16.133  0.00  0.00    +0.000 C 
ATOM     27  C   UNL     1       5.811   3.783  16.681  0.00  0.00    +0.000 C 
ATOM     28  C   UNL     1       4.482   4.526  16.511  0.00  0.00    +0.000 C 
BRANCH  26  29
ATOM     29  C   UNL     1       6.950   4.733  14.604  0.00  0.00    +0.000 C 
BRANCH  29  30
ATOM     30  O   UNL     1       7.974   5.598  14.142  0.00  0.00    +0.000 OA
ATOM     31  H   UNL     1       7.707   6.509  14.347  0.00  0.00    +0.000 HD
ENDBRANCH  29  30
ENDBRANCH  26  29
ENDBRANCH  21  23
ENDBRANCH   2  17
TORSDOF 6
ENDMDL
