MODEL 1
REMARK VINA RESULT:      -8.9      0.000      0.000
REMARK  Name = 
REMARK  4 active torsions:
REMARK  status: ('A' for Active; 'I' for Inactive)
REMARK    1  A    between atoms: C_1  and  C_2
REMARK    2  A    between atoms: C_5  and  C_6
REMARK    3  A    between atoms: N_8  and  C_9
REMARK    4  A    between atoms: C_13  and  C_14
REMARK                            x       y       z     vdW  Elec       q    Type
REMARK                         _______ _______ _______ _____ _____    ______ ____
ROOT
ATOM      1  C   UNL     1       2.552   7.108  18.476  0.00  0.00    +0.000 A 
ATOM      2  C   UNL     1       2.040   8.202  17.734  0.00  0.00    +0.000 A 
ATOM      3  N   UNL     1       1.445   9.328  18.216  0.00  0.00    +0.000 NA
ATOM      4  C   UNL     1       1.297   9.346  19.535  0.00  0.00    +0.000 A 
ATOM      5  C   UNL     1       1.737   8.326  20.366  0.00  0.00    +0.000 A 
ATOM      6  C   UNL     1       2.381   7.208  19.863  0.00  0.00    +0.000 A 
ATOM      7  N   UNL     1       1.410   8.584  21.667  0.00  0.00    +0.000 N 
ATOM      8  C   UNL     1       0.738   9.786  21.776  0.00  0.00    +0.000 C 
ATOM      9  O   UNL     1       0.326  10.237  22.824  0.00  0.00    +0.000 OA
ATOM     10  C   UNL     1       0.622  10.425  20.360  0.00  0.00    +0.000 C 
ATOM     11  C   UNL     1       1.385  11.751  20.313  0.00  0.00    +0.000 C 
ATOM     12  C   UNL     1       0.643  12.830  21.095  0.00  0.00    +0.000 C 
ATOM     13  O   UNL     1      -0.692  12.967  20.611  0.00  0.00    +0.000 OA
ATOM     14  C   UNL     1      -1.460  11.778  20.780  0.00  0.00    +0.000 C 
ATOM     15  C   UNL     1      -0.851  10.628  19.981  0.00  0.00    +0.000 C 
ATOM     16  H   UNL     1       1.595   7.992  22.464  0.00  0.00    +0.000 HD
ENDROOT
BRANCH   1  23
ATOM     17  C   UNL     1       1.419   4.246  18.772  0.00  0.00    +0.000 C 
ATOM     18  C   UNL     1       2.669   4.584  17.999  0.00  0.00    +0.000 A 
ATOM     19  C   UNL     1       3.336   3.503  17.395  0.00  0.00    +0.000 A 
ATOM     20  C   UNL     1       4.487   3.695  16.634  0.00  0.00    +0.000 A 
ATOM     21  C   UNL     1       5.012   4.974  16.467  0.00  0.00    +0.000 A 
ATOM     22  C   UNL     1       4.361   6.060  17.069  0.00  0.00    +0.000 A 
ATOM     23  C   UNL     1       3.182   5.904  17.857  0.00  0.00    +0.000 A 
BRANCH  21  24
ATOM     24  C   UNL     1       6.247   5.099  15.630  0.00  0.00    +0.000 C 
ATOM     25  O   UNL     1       7.128   5.876  15.982  0.00  0.00    +0.000 OA
ATOM     26  N   UNL     1       6.320   4.341  14.474  0.00  0.00    +0.000 N 
ATOM     27  H   UNL     1       5.544   3.754  14.200  0.00  0.00    +0.000 HD
BRANCH  26  28
ATOM     28  C   UNL     1       7.435   4.447  13.576  0.00  0.00    +0.000 C 
ATOM     29  C   UNL     1       7.267   4.139  12.112  0.00  0.00    +0.000 C 
ATOM     30  C   UNL     1       7.522   5.550  12.556  0.00  0.00    +0.000 C 
ENDBRANCH  26  28
ENDBRANCH  21  24
ENDBRANCH   1  23
TORSDOF 3
ENDMDL
MODEL 2
REMARK VINA RESULT:      -8.8      2.749      8.542
REMARK  Name = 
REMARK  4 active torsions:
REMARK  status: ('A' for Active; 'I' for Inactive)
REMARK    1  A    between atoms: C_1  and  C_2
REMARK    2  A    between atoms: C_5  and  C_6
REMARK    3  A    between atoms: N_8  and  C_9
REMARK    4  A    between atoms: C_13  and  C_14
REMARK                            x       y       z     vdW  Elec       q    Type
REMARK                         _______ _______ _______ _____ _____    ______ ____
ROOT
ATOM      1  C   UNL     1       1.994   8.116  19.020  0.00  0.00    +0.000 A 
ATOM      2  C   UNL     1       2.858   8.357  17.923  0.00  0.00    +0.000 A 
ATOM      3  N   UNL     1       3.836   7.541  17.440  0.00  0.00    +0.000 NA
ATOM      4  C   UNL     1       4.005   6.421  18.132  0.00  0.00    +0.000 A 
ATOM      5  C   UNL     1       3.235   6.084  19.236  0.00  0.00    +0.000 A 
ATOM      6  C   UNL     1       2.215   6.904  19.687  0.00  0.00    +0.000 A 
ATOM      7  N   UNL     1       3.658   4.905  19.781  0.00  0.00    +0.000 N 
ATOM      8  C   UNL     1       4.728   4.391  19.074  0.00  0.00    +0.000 C 
ATOM      9  O   UNL     1       5.296   3.359  19.363  0.00  0.00    +0.000 OA
ATOM     10  C   UNL     1       5.045   5.346  17.884  0.00  0.00    +0.000 C 
ATOM     11  C   UNL     1       4.823   4.624  16.552  0.00  0.00    +0.000 C 
ATOM     12  C   UNL     1       5.925   3.599  16.303  0.00  0.00    +0.000 C 
ATOM     13  O   UNL     1       7.208   4.222  16.364  0.00  0.00    +0.000 OA
ATOM     14  C   UNL     1       7.486   4.776  17.648  0.00  0.00    +0.000 C 
ATOM     15  C   UNL     1       6.482   5.875  17.987  0.00  0.00    +0.000 C 
ATOM     16  H   UNL     1       3.283   4.450  20.601  0.00  0.00    +0.000 HD
ENDROOT
BRANCH   1  23
ATOM     17  C   UNL     1       1.736   9.062  21.952  0.00  0.00    +0.000 C 
ATOM     18  C   UNL     1       0.825   9.510  20.837  0.00  0.00    +0.000 A 
ATOM     19  C   UNL     1      -0.197  10.409  21.194  0.00  0.00    +0.000 A 
ATOM     20  C   UNL     1      -1.084  10.912  20.244  0.00  0.00    +0.000 A 
ATOM     21  C   UNL     1      -0.983  10.520  18.912  0.00  0.00    +0.000 A 
ATOM     22  C   UNL     1       0.027   9.619  18.544  0.00  0.00    +0.000 A 
ATOM     23  C   UNL     1       0.952   9.080  19.486  0.00  0.00    +0.000 A 
BRANCH  21  24
ATOM     24  C   UNL     1      -1.968  11.109  17.951  0.00  0.00    +0.000 C 
ATOM     25  O   UNL     1      -2.791  11.918  18.364  0.00  0.00    +0.000 OA
ATOM     26  N   UNL     1      -1.914  10.683  16.635  0.00  0.00    +0.000 N 
ATOM     27  H   UNL     1      -1.249   9.974  16.355  0.00  0.00    +0.000 HD
BRANCH  26  28
ATOM     28  C   UNL     1      -2.861  11.142  15.658  0.00  0.00    +0.000 C 
ATOM     29  C   UNL     1      -3.197  10.290  14.463  0.00  0.00    +0.000 C 
ATOM     30  C   UNL     1      -4.225  10.519  15.532  0.00  0.00    +0.000 C 
ENDBRANCH  26  28
ENDBRANCH  21  24
ENDBRANCH   1  23
TORSDOF 3
ENDMDL
MODEL 3
REMARK VINA RESULT:      -8.8      1.102      1.285
REMARK  Name = 
REMARK  4 active torsions:
REMARK  status: ('A' for Active; 'I' for Inactive)
REMARK    1  A    between atoms: C_1  and  C_2
REMARK    2  A    between atoms: C_5  and  C_6
REMARK    3  A    between atoms: N_8  and  C_9
REMARK    4  A    between atoms: C_13  and  C_14
REMARK                            x       y       z     vdW  Elec       q    Type
REMARK                         _______ _______ _______ _____ _____    ______ ____
ROOT
ATOM      1  C   UNL     1       2.127   7.058  19.487  0.00  0.00    +0.000 A 
ATOM      2  C   UNL     1       1.897   8.098  18.551  0.00  0.00    +0.000 A 
ATOM      3  N   UNL     1       1.383   9.336  18.793  0.00  0.00    +0.000 NA
ATOM      4  C   UNL     1       1.020   9.540  20.053  0.00  0.00    +0.000 A 
ATOM      5  C   UNL     1       1.176   8.593  21.055  0.00  0.00    +0.000 A 
ATOM      6  C   UNL     1       1.741   7.355  20.801  0.00  0.00    +0.000 A 
ATOM      7  N   UNL     1       0.672   9.051  22.239  0.00  0.00    +0.000 N 
ATOM      8  C   UNL     1       0.155  10.325  22.095  0.00  0.00    +0.000 C 
ATOM      9  O   UNL     1      -0.362  10.950  22.996  0.00  0.00    +0.000 OA
ATOM     10  C   UNL     1       0.365  10.784  20.620  0.00  0.00    +0.000 C 
ATOM     11  C   UNL     1       1.294  12.000  20.572  0.00  0.00    +0.000 C 
ATOM     12  C   UNL     1       0.580  13.247  21.085  0.00  0.00    +0.000 C 
ATOM     13  O   UNL     1      -0.624  13.469  20.353  0.00  0.00    +0.000 OA
ATOM     14  C   UNL     1      -1.561  12.404  20.507  0.00  0.00    +0.000 C 
ATOM     15  C   UNL     1      -0.984  11.100  19.960  0.00  0.00    +0.000 C 
ATOM     16  H   UNL     1       0.641   8.551  23.115  0.00  0.00    +0.000 HD
ENDROOT
BRANCH   1  23
ATOM     17  C   UNL     1       0.907   4.383  20.441  0.00  0.00    +0.000 C 
ATOM     18  C   UNL     1       2.134   4.489  19.571  0.00  0.00    +0.000 A 
ATOM     19  C   UNL     1       2.736   3.274  19.197  0.00  0.00    +0.000 A 
ATOM     20  C   UNL     1       3.860   3.245  18.374  0.00  0.00    +0.000 A 
ATOM     21  C   UNL     1       4.423   4.432  17.912  0.00  0.00    +0.000 A 
ATOM     22  C   UNL     1       3.836   5.651  18.283  0.00  0.00    +0.000 A 
ATOM     23  C   UNL     1       2.688   5.722  19.126  0.00  0.00    +0.000 A 
BRANCH  21  24
ATOM     24  C   UNL     1       5.625   4.319  17.028  0.00  0.00    +0.000 C 
ATOM     25  O   UNL     1       6.725   4.617  17.477  0.00  0.00    +0.000 OA
ATOM     26  N   UNL     1       5.425   3.902  15.723  0.00  0.00    +0.000 N 
ATOM     27  H   UNL     1       4.490   3.717  15.384  0.00  0.00    +0.000 HD
BRANCH  26  28
ATOM     28  C   UNL     1       6.508   3.828  14.784  0.00  0.00    +0.000 C 
ATOM     29  C   UNL     1       6.234   3.811  13.304  0.00  0.00    +0.000 C 
ATOM     30  C   UNL     1       6.890   5.007  13.930  0.00  0.00    +0.000 C 
ENDBRANCH  26  28
ENDBRANCH  21  24
ENDBRANCH   1  23
TORSDOF 3
ENDMDL
MODEL 4
REMARK VINA RESULT:      -8.6      3.519      8.074
REMARK  Name = 
REMARK  4 active torsions:
REMARK  status: ('A' for Active; 'I' for Inactive)
REMARK    1  A    between atoms: C_1  and  C_2
REMARK    2  A    between atoms: C_5  and  C_6
REMARK    3  A    between atoms: N_8  and  C_9
REMARK    4  A    between atoms: C_13  and  C_14
REMARK                            x       y       z     vdW  Elec       q    Type
REMARK                         _______ _______ _______ _____ _____    ______ ____
ROOT
ATOM      1  C   UNL     1       1.527   9.504  18.731  0.00  0.00    +0.000 A 
ATOM      2  C   UNL     1       2.218   8.835  17.690  0.00  0.00    +0.000 A 
ATOM      3  N   UNL     1       2.658   7.546  17.678  0.00  0.00    +0.000 NA
ATOM      4  C   UNL     1       2.441   6.885  18.808  0.00  0.00    +0.000 A 
ATOM      5  C   UNL     1       1.794   7.437  19.904  0.00  0.00    +0.000 A 
ATOM      6  C   UNL     1       1.314   8.736  19.883  0.00  0.00    +0.000 A 
ATOM      7  N   UNL     1       1.755   6.552  20.943  0.00  0.00    +0.000 N 
ATOM      8  C   UNL     1       2.370   5.363  20.600  0.00  0.00    +0.000 C 
ATOM      9  O   UNL     1       2.480   4.417  21.352  0.00  0.00    +0.000 OA
ATOM     10  C   UNL     1       2.865   5.463  19.125  0.00  0.00    +0.000 C 
ATOM     11  C   UNL     1       2.140   4.436  18.252  0.00  0.00    +0.000 C 
ATOM     12  C   UNL     1       2.639   3.026  18.549  0.00  0.00    +0.000 C 
ATOM     13  O   UNL     1       4.055   2.954  18.390  0.00  0.00    +0.000 OA
ATOM     14  C   UNL     1       4.751   3.804  19.300  0.00  0.00    +0.000 C 
ATOM     15  C   UNL     1       4.385   5.266  19.055  0.00  0.00    +0.000 C 
ATOM     16  H   UNL     1       1.362   6.713  21.859  0.00  0.00    +0.000 HD
ENDROOT
BRANCH   1  23
ATOM     17  C   UNL     1      -1.434  10.390  18.816  0.00  0.00    +0.000 C 
ATOM     18  C   UNL     1      -0.271  11.341  18.687  0.00  0.00    +0.000 A 
ATOM     19  C   UNL     1      -0.595  12.707  18.597  0.00  0.00    +0.000 A 
ATOM     20  C   UNL     1       0.396  13.682  18.500  0.00  0.00    +0.000 A 
ATOM     21  C   UNL     1       1.739  13.317  18.478  0.00  0.00    +0.000 A 
ATOM     22  C   UNL     1       2.076  11.958  18.561  0.00  0.00    +0.000 A 
ATOM     23  C   UNL     1       1.091  10.931  18.658  0.00  0.00    +0.000 A 
BRANCH  21  24
ATOM     24  C   UNL     1       2.745  14.422  18.379  0.00  0.00    +0.000 C 
ATOM     25  O   UNL     1       2.382  15.576  18.575  0.00  0.00    +0.000 OA
ATOM     26  N   UNL     1       4.043  14.080  18.040  0.00  0.00    +0.000 N 
ATOM     27  H   UNL     1       4.280  13.119  17.836  0.00  0.00    +0.000 HD
BRANCH  26  28
ATOM     28  C   UNL     1       5.058  15.078  17.855  0.00  0.00    +0.000 C 
ATOM     29  C   UNL     1       6.014  15.408  18.970  0.00  0.00    +0.000 C 
ATOM     30  C   UNL     1       6.512  14.710  17.739  0.00  0.00    +0.000 C 
ENDBRANCH  26  28
ENDBRANCH  21  24
ENDBRANCH   1  23
TORSDOF 3
ENDMDL
MODEL 5
REMARK VINA RESULT:      -8.4      1.324      2.284
REMARK  Name = 
REMARK  4 active torsions:
REMARK  status: ('A' for Active; 'I' for Inactive)
REMARK    1  A    between atoms: C_1  and  C_2
REMARK    2  A    between atoms: C_5  and  C_6
REMARK    3  A    between atoms: N_8  and  C_9
REMARK    4  A    between atoms: C_13  and  C_14
REMARK                            x       y       z     vdW  Elec       q    Type
REMARK                         _______ _______ _______ _____ _____    ______ ____
ROOT
ATOM      1  C   UNL     1       2.159   7.135  19.349  0.00  0.00    +0.000 A 
ATOM      2  C   UNL     1       1.602   7.513  20.596  0.00  0.00    +0.000 A 
ATOM      3  N   UNL     1       1.016   8.699  20.920  0.00  0.00    +0.000 NA
ATOM      4  C   UNL     1       1.031   9.600  19.945  0.00  0.00    +0.000 A 
ATOM      5  C   UNL     1       1.565   9.355  18.688  0.00  0.00    +0.000 A 
ATOM      6  C   UNL     1       2.117   8.128  18.362  0.00  0.00    +0.000 A 
ATOM      7  N   UNL     1       1.492  10.471  17.903  0.00  0.00    +0.000 N 
ATOM      8  C   UNL     1       0.905  11.517  18.589  0.00  0.00    +0.000 C 
ATOM      9  O   UNL     1       0.734  12.622  18.118  0.00  0.00    +0.000 OA
ATOM     10  C   UNL     1       0.515  11.024  20.015  0.00  0.00    +0.000 C 
ATOM     11  C   UNL     1      -1.004  11.081  20.198  0.00  0.00    +0.000 C 
ATOM     12  C   UNL     1      -1.479  12.524  20.333  0.00  0.00    +0.000 C 
ATOM     13  O   UNL     1      -0.791  13.178  21.398  0.00  0.00    +0.000 OA
ATOM     14  C   UNL     1       0.615  13.259  21.171  0.00  0.00    +0.000 C 
ATOM     15  C   UNL     1       1.226  11.863  21.085  0.00  0.00    +0.000 C 
ATOM     16  H   UNL     1       1.829  10.565  16.956  0.00  0.00    +0.000 HD
ENDROOT
BRANCH   1  23
ATOM     17  C   UNL     1       1.146   4.488  20.585  0.00  0.00    +0.000 C 
ATOM     18  C   UNL     1       2.336   4.590  19.664  0.00  0.00    +0.000 A 
ATOM     19  C   UNL     1       3.004   3.385  19.378  0.00  0.00    +0.000 A 
ATOM     20  C   UNL     1       4.100   3.350  18.519  0.00  0.00    +0.000 A 
ATOM     21  C   UNL     1       4.569   4.522  17.932  0.00  0.00    +0.000 A 
ATOM     22  C   UNL     1       3.917   5.731  18.214  0.00  0.00    +0.000 A 
ATOM     23  C   UNL     1       2.793   5.808  19.089  0.00  0.00    +0.000 A 
BRANCH  21  24
ATOM     24  C   UNL     1       5.748   4.402  17.017  0.00  0.00    +0.000 C 
ATOM     25  O   UNL     1       6.856   4.726  17.427  0.00  0.00    +0.000 OA
ATOM     26  N   UNL     1       5.517   3.950  15.728  0.00  0.00    +0.000 N 
ATOM     27  H   UNL     1       4.576   3.745  15.421  0.00  0.00    +0.000 HD
BRANCH  26  28
ATOM     28  C   UNL     1       6.574   3.868  14.761  0.00  0.00    +0.000 C 
ATOM     29  C   UNL     1       6.260   3.812  13.290  0.00  0.00    +0.000 C 
ATOM     30  C   UNL     1       6.918   5.030  13.870  0.00  0.00    +0.000 C 
ENDBRANCH  26  28
ENDBRANCH  21  24
ENDBRANCH   1  23
TORSDOF 3
ENDMDL
MODEL 6
REMARK VINA RESULT:      -8.3      2.672      9.037
REMARK  Name = 
REMARK  4 active torsions:
REMARK  status: ('A' for Active; 'I' for Inactive)
REMARK    1  A    between atoms: C_1  and  C_2
REMARK    2  A    between atoms: C_5  and  C_6
REMARK    3  A    between atoms: N_8  and  C_9
REMARK    4  A    between atoms: C_13  and  C_14
REMARK                            x       y       z     vdW  Elec       q    Type
REMARK                         _______ _______ _______ _____ _____    ______ ____
ROOT
ATOM      1  C   UNL     1       1.826   8.306  19.184  0.00  0.00    +0.000 A 
ATOM      2  C   UNL     1       2.580   8.506  18.001  0.00  0.00    +0.000 A 
ATOM      3  N   UNL     1       3.526   7.683  17.468  0.00  0.00    +0.000 NA
ATOM      4  C   UNL     1       3.781   6.602  18.194  0.00  0.00    +0.000 A 
ATOM      5  C   UNL     1       3.124   6.307  19.380  0.00  0.00    +0.000 A 
ATOM      6  C   UNL     1       2.134   7.132  19.885  0.00  0.00    +0.000 A 
ATOM      7  N   UNL     1       3.621   5.164  19.939  0.00  0.00    +0.000 N 
ATOM      8  C   UNL     1       4.631   4.633  19.160  0.00  0.00    +0.000 C 
ATOM      9  O   UNL     1       5.245   3.626  19.443  0.00  0.00    +0.000 OA
ATOM     10  C   UNL     1       4.816   5.533  17.901  0.00  0.00    +0.000 C 
ATOM     11  C   UNL     1       4.487   4.742  16.632  0.00  0.00    +0.000 C 
ATOM     12  C   UNL     1       5.582   3.725  16.330  0.00  0.00    +0.000 C 
ATOM     13  O   UNL     1       6.852   4.370  16.240  0.00  0.00    +0.000 OA
ATOM     14  C   UNL     1       7.236   4.992  17.464  0.00  0.00    +0.000 C 
ATOM     15  C   UNL     1       6.245   6.089  17.843  0.00  0.00    +0.000 C 
ATOM     16  H   UNL     1       3.333   4.744  20.811  0.00  0.00    +0.000 HD
ENDROOT
BRANCH   1  23
ATOM     17  C   UNL     1       1.641   9.164  22.149  0.00  0.00    +0.000 C 
ATOM     18  C   UNL     1       0.719   9.664  21.065  0.00  0.00    +0.000 A 
ATOM     19  C   UNL     1      -0.278  10.570  21.469  0.00  0.00    +0.000 A 
ATOM     20  C   UNL     1      -1.172  11.120  20.552  0.00  0.00    +0.000 A 
ATOM     21  C   UNL     1      -1.103  10.768  19.207  0.00  0.00    +0.000 A 
ATOM     22  C   UNL     1      -0.118   9.860  18.792  0.00  0.00    +0.000 A 
ATOM     23  C   UNL     1       0.813   9.274  19.700  0.00  0.00    +0.000 A 
BRANCH  21  24
ATOM     24  C   UNL     1      -2.094  11.405  18.283  0.00  0.00    +0.000 C 
ATOM     25  O   UNL     1      -1.706  12.255  17.489  0.00  0.00    +0.000 OA
ATOM     26  N   UNL     1      -3.418  11.016  18.394  0.00  0.00    +0.000 N 
ATOM     27  H   UNL     1      -3.696  10.349  19.101  0.00  0.00    +0.000 HD
BRANCH  26  28
ATOM     28  C   UNL     1      -4.447  11.621  17.597  0.00  0.00    +0.000 C 
ATOM     29  C   UNL     1      -5.883  11.201  17.759  0.00  0.00    +0.000 C 
ATOM     30  C   UNL     1      -5.451  12.569  18.196  0.00  0.00    +0.000 C 
ENDBRANCH  26  28
ENDBRANCH  21  24
ENDBRANCH   1  23
TORSDOF 3
ENDMDL
MODEL 7
REMARK VINA RESULT:      -8.2      3.797      5.333
REMARK  Name = 
REMARK  4 active torsions:
REMARK  status: ('A' for Active; 'I' for Inactive)
REMARK    1  A    between atoms: C_1  and  C_2
REMARK    2  A    between atoms: C_5  and  C_6
REMARK    3  A    between atoms: N_8  and  C_9
REMARK    4  A    between atoms: C_13  and  C_14
REMARK                            x       y       z     vdW  Elec       q    Type
REMARK                         _______ _______ _______ _____ _____    ______ ____
ROOT
ATOM      1  C   UNL     1       0.507   9.631  20.560  0.00  0.00    +0.000 A 
ATOM      2  C   UNL     1       0.644   9.890  21.947  0.00  0.00    +0.000 A 
ATOM      3  N   UNL     1      -0.070  10.769  22.704  0.00  0.00    +0.000 NA
ATOM      4  C   UNL     1      -0.953  11.486  22.021  0.00  0.00    +0.000 A 
ATOM      5  C   UNL     1      -1.164  11.339  20.657  0.00  0.00    +0.000 A 
ATOM      6  C   UNL     1      -0.461  10.409  19.911  0.00  0.00    +0.000 A 
ATOM      7  N   UNL     1      -2.091  12.237  20.209  0.00  0.00    +0.000 N 
ATOM      8  C   UNL     1      -2.550  13.029  21.244  0.00  0.00    +0.000 C 
ATOM      9  O   UNL     1      -3.369  13.913  21.107  0.00  0.00    +0.000 OA
ATOM     10  C   UNL     1      -1.850  12.582  22.563  0.00  0.00    +0.000 C 
ATOM     11  C   UNL     1      -2.884  12.044  23.555  0.00  0.00    +0.000 C 
ATOM     12  C   UNL     1      -3.722  13.180  24.133  0.00  0.00    +0.000 C 
ATOM     13  O   UNL     1      -2.881  14.168  24.725  0.00  0.00    +0.000 OA
ATOM     14  C   UNL     1      -2.008  14.782  23.779  0.00  0.00    +0.000 C 
ATOM     15  C   UNL     1      -1.061  13.748  23.174  0.00  0.00    +0.000 C 
ATOM     16  H   UNL     1      -2.407  12.354  19.257  0.00  0.00    +0.000 HD
ENDROOT
BRANCH   1  23
ATOM     17  C   UNL     1       2.005  10.320  17.945  0.00  0.00    +0.000 C 
ATOM     18  C   UNL     1       2.029   8.962  18.600  0.00  0.00    +0.000 A 
ATOM     19  C   UNL     1       2.787   7.972  17.947  0.00  0.00    +0.000 A 
ATOM     20  C   UNL     1       2.905   6.687  18.471  0.00  0.00    +0.000 A 
ATOM     21  C   UNL     1       2.258   6.350  19.657  0.00  0.00    +0.000 A 
ATOM     22  C   UNL     1       1.494   7.325  20.315  0.00  0.00    +0.000 A 
ATOM     23  C   UNL     1       1.347   8.651  19.809  0.00  0.00    +0.000 A 
BRANCH  21  24
ATOM     24  C   UNL     1       2.438   4.952  20.160  0.00  0.00    +0.000 C 
ATOM     25  O   UNL     1       2.354   4.736  21.363  0.00  0.00    +0.000 OA
ATOM     26  N   UNL     1       2.720   3.966  19.229  0.00  0.00    +0.000 N 
ATOM     27  H   UNL     1       2.831   4.204  18.252  0.00  0.00    +0.000 HD
BRANCH  26  28
ATOM     28  C   UNL     1       2.975   2.610  19.625  0.00  0.00    +0.000 C 
ATOM     29  C   UNL     1       3.549   1.624  18.644  0.00  0.00    +0.000 C 
ATOM     30  C   UNL     1       4.377   2.093  19.804  0.00  0.00    +0.000 C 
ENDBRANCH  26  28
ENDBRANCH  21  24
ENDBRANCH   1  23
TORSDOF 3
ENDMDL
MODEL 8
REMARK VINA RESULT:      -8.2      0.926      1.014
REMARK  Name = 
REMARK  4 active torsions:
REMARK  status: ('A' for Active; 'I' for Inactive)
REMARK    1  A    between atoms: C_1  and  C_2
REMARK    2  A    between atoms: C_5  and  C_6
REMARK    3  A    between atoms: N_8  and  C_9
REMARK    4  A    between atoms: C_13  and  C_14
REMARK                            x       y       z     vdW  Elec       q    Type
REMARK                         _______ _______ _______ _____ _____    ______ ____
ROOT
ATOM      1  C   UNL     1       2.551   7.223  18.694  0.00  0.00    +0.000 A 
ATOM      2  C   UNL     1       2.211   8.300  17.837  0.00  0.00    +0.000 A 
ATOM      3  N   UNL     1       1.552   9.446  18.163  0.00  0.00    +0.000 NA
ATOM      4  C   UNL     1       1.153   9.506  19.428  0.00  0.00    +0.000 A 
ATOM      5  C   UNL     1       1.408   8.506  20.356  0.00  0.00    +0.000 A 
ATOM      6  C   UNL     1       2.118   7.367  20.018  0.00  0.00    +0.000 A 
ATOM      7  N   UNL     1       0.840   8.807  21.561  0.00  0.00    +0.000 N 
ATOM      8  C   UNL     1       0.179  10.019  21.506  0.00  0.00    +0.000 C 
ATOM      9  O   UNL     1      -0.420  10.506  22.442  0.00  0.00    +0.000 OA
ATOM     10  C   UNL     1       0.350  10.616  20.077  0.00  0.00    +0.000 C 
ATOM     11  C   UNL     1       1.130  11.932  20.142  0.00  0.00    +0.000 C 
ATOM     12  C   UNL     1       0.269  13.042  20.736  0.00  0.00    +0.000 C 
ATOM     13  O   UNL     1      -0.945  13.179  19.999  0.00  0.00    +0.000 OA
ATOM     14  C   UNL     1      -1.751  12.004  20.049  0.00  0.00    +0.000 C 
ATOM     15  C   UNL     1      -1.019  10.824  19.415  0.00  0.00    +0.000 C 
ATOM     16  H   UNL     1       0.857   8.238  22.396  0.00  0.00    +0.000 HD
ENDROOT
BRANCH   1  23
ATOM     17  C   UNL     1       2.416   4.521  20.190  0.00  0.00    +0.000 C 
ATOM     18  C   UNL     1       3.217   4.751  18.933  0.00  0.00    +0.000 A 
ATOM     19  C   UNL     1       3.938   3.646  18.446  0.00  0.00    +0.000 A 
ATOM     20  C   UNL     1       4.694   3.732  17.278  0.00  0.00    +0.000 A 
ATOM     21  C   UNL     1       4.760   4.929  16.571  0.00  0.00    +0.000 A 
ATOM     22  C   UNL     1       4.051   6.040  17.049  0.00  0.00    +0.000 A 
ATOM     23  C   UNL     1       3.269   5.994  18.241  0.00  0.00    +0.000 A 
BRANCH  21  24
ATOM     24  C   UNL     1       5.587   4.940  15.323  0.00  0.00    +0.000 C 
ATOM     25  O   UNL     1       6.507   5.744  15.226  0.00  0.00    +0.000 OA
ATOM     26  N   UNL     1       5.249   4.047  14.321  0.00  0.00    +0.000 N 
ATOM     27  H   UNL     1       4.447   3.439  14.429  0.00  0.00    +0.000 HD
BRANCH  26  28
ATOM     28  C   UNL     1       5.941   4.031  13.064  0.00  0.00    +0.000 C 
ATOM     29  C   UNL     1       6.320   2.725  12.418  0.00  0.00    +0.000 C 
ATOM     30  C   UNL     1       5.262   3.589  11.796  0.00  0.00    +0.000 C 
ENDBRANCH  26  28
ENDBRANCH  21  24
ENDBRANCH   1  23
TORSDOF 3
ENDMDL
MODEL 9
REMARK VINA RESULT:      -8.1      2.983      9.770
REMARK  Name = 
REMARK  4 active torsions:
REMARK  status: ('A' for Active; 'I' for Inactive)
REMARK    1  A    between atoms: C_1  and  C_2
REMARK    2  A    between atoms: C_5  and  C_6
REMARK    3  A    between atoms: N_8  and  C_9
REMARK    4  A    between atoms: C_13  and  C_14
REMARK                            x       y       z     vdW  Elec       q    Type
REMARK                         _______ _______ _______ _____ _____    ______ ____
ROOT
ATOM      1  C   UNL     1       1.112   9.748  19.109  0.00  0.00    +0.000 A 
ATOM      2  C   UNL     1       1.661   9.319  17.874  0.00  0.00    +0.000 A 
ATOM      3  N   UNL     1       2.223   8.112  17.588  0.00  0.00    +0.000 NA
ATOM      4  C   UNL     1       2.295   7.284  18.623  0.00  0.00    +0.000 A 
ATOM      5  C   UNL     1       1.812   7.597  19.886  0.00  0.00    +0.000 A 
ATOM      6  C   UNL     1       1.202   8.812  20.148  0.00  0.00    +0.000 A 
ATOM      7  N   UNL     1       2.063   6.584  20.767  0.00  0.00    +0.000 N 
ATOM      8  C   UNL     1       2.723   5.542  20.145  0.00  0.00    +0.000 C 
ATOM      9  O   UNL     1       3.071   4.528  20.712  0.00  0.00    +0.000 OA
ATOM     10  C   UNL     1       2.917   5.901  18.641  0.00  0.00    +0.000 C 
ATOM     11  C   UNL     1       2.152   4.912  17.757  0.00  0.00    +0.000 C 
ATOM     12  C   UNL     1       2.844   3.553  17.743  0.00  0.00    +0.000 C 
ATOM     13  O   UNL     1       4.204   3.690  17.335  0.00  0.00    +0.000 OA
ATOM     14  C   UNL     1       4.966   4.495  18.232  0.00  0.00    +0.000 C 
ATOM     15  C   UNL     1       4.409   5.916  18.281  0.00  0.00    +0.000 C 
ATOM     16  H   UNL     1       1.834   6.570  21.751  0.00  0.00    +0.000 HD
ENDROOT
BRANCH   1  23
ATOM     17  C   UNL     1       2.501  12.375  18.254  0.00  0.00    +0.000 C 
ATOM     18  C   UNL     1       1.164  12.313  18.949  0.00  0.00    +0.000 A 
ATOM     19  C   UNL     1       0.545  13.549  19.213  0.00  0.00    +0.000 A 
ATOM     20  C   UNL     1      -0.703  13.617  19.827  0.00  0.00    +0.000 A 
ATOM     21  C   UNL     1      -1.363  12.452  20.207  0.00  0.00    +0.000 A 
ATOM     22  C   UNL     1      -0.755  11.214  19.956  0.00  0.00    +0.000 A 
ATOM     23  C   UNL     1       0.523  11.102  19.332  0.00  0.00    +0.000 A 
BRANCH  21  24
ATOM     24  C   UNL     1      -2.704  12.607  20.856  0.00  0.00    +0.000 C 
ATOM     25  O   UNL     1      -3.689  12.789  20.150  0.00  0.00    +0.000 OA
ATOM     26  N   UNL     1      -2.757  12.563  22.239  0.00  0.00    +0.000 N 
ATOM     27  H   UNL     1      -1.908  12.463  22.779  0.00  0.00    +0.000 HD
BRANCH  26  28
ATOM     28  C   UNL     1      -3.987  12.770  22.949  0.00  0.00    +0.000 C 
ATOM     29  C   UNL     1      -4.073  12.485  24.425  0.00  0.00    +0.000 C 
ATOM     30  C   UNL     1      -4.149  13.899  23.930  0.00  0.00    +0.000 C 
ENDBRANCH  26  28
ENDBRANCH  21  24
ENDBRANCH   1  23
TORSDOF 3
ENDMDL
