MODEL 1
REMARK VINA RESULT:      -6.9      0.000      0.000
REMARK  Name = 
REMARK  7 active torsions:
REMARK  status: ('A' for Active; 'I' for Inactive)
REMARK    1  A    between atoms: O_1  and  C_2
REMARK    2  A    between atoms: C_2  and  C_3
REMARK    3  A    between atoms: C_3  and  N_4
REMARK    4  A    between atoms: N_4  and  C_5
REMARK    5  A    between atoms: N_4  and  C_12
REMARK    6  A    between atoms: C_5  and  C_6
REMARK    7  A    between atoms: C_12  and  C_13
REMARK                            x       y       z     vdW  Elec       q    Type
REMARK                         _______ _______ _______ _____ _____    ______ ____
ROOT
ATOM      1  N   UNL     1       6.177   4.694  17.221  0.00  0.00    +0.000 NA
ENDROOT
BRANCH   1   2
ATOM      2  C   UNL     1       7.538   4.756  17.808  0.00  0.00    +0.000 C 
BRANCH   2   3
ATOM      3  C   UNL     1       7.782   5.883  18.826  0.00  0.00    +0.000 C 
BRANCH   3   4
ATOM      4  O   UNL     1       8.429   5.342  19.977  0.00  0.00    +0.000 OA
ATOM      5  H   UNL     1       8.766   4.463  19.731  0.00  0.00    +0.000 HD
ENDBRANCH   3   4
ENDBRANCH   2   3
ENDBRANCH   1   2
BRANCH   1   6
ATOM      6  C   UNL     1       5.152   5.085  18.224  0.00  0.00    +0.000 C 
BRANCH   6   7
ATOM      7  C   UNL     1       3.882   4.244  18.191  0.00  0.00    +0.000 A 
ATOM      8  C   UNL     1       2.667   4.819  17.821  0.00  0.00    +0.000 A 
ATOM      9  C   UNL     1       1.512   4.042  17.883  0.00  0.00    +0.000 A 
ATOM     10  C   UNL     1       1.600   2.719  18.301  0.00  0.00    +0.000 A 
ATOM     11  C   UNL     1       2.847   2.221  18.635  0.00  0.00    +0.000 A 
ATOM     12  N   UNL     1       3.984   2.951  18.591  0.00  0.00    +0.000 NA
ENDBRANCH   6   7
ENDBRANCH   1   6
BRANCH   1  13
ATOM     13  C   UNL     1       6.107   5.645  16.069  0.00  0.00    +0.000 C 
BRANCH  13  14
ATOM     14  C   UNL     1       6.430   5.042  14.712  0.00  0.00    +0.000 A 
ATOM     15  C   UNL     1       5.589   4.085  14.145  0.00  0.00    +0.000 A 
ATOM     16  C   UNL     1       5.907   3.571  12.890  0.00  0.00    +0.000 A 
ATOM     17  C   UNL     1       7.047   4.023  12.238  0.00  0.00    +0.000 A 
ATOM     18  C   UNL     1       7.829   4.974  12.871  0.00  0.00    +0.000 A 
ATOM     19  N   UNL     1       7.548   5.491  14.086  0.00  0.00    +0.000 NA
ENDBRANCH  13  14
ENDBRANCH   1  13
TORSDOF 7
ENDMDL
MODEL 2
REMARK VINA RESULT:      -6.6      1.402      1.617
REMARK  Name = 
REMARK  7 active torsions:
REMARK  status: ('A' for Active; 'I' for Inactive)
REMARK    1  A    between atoms: O_1  and  C_2
REMARK    2  A    between atoms: C_2  and  C_3
REMARK    3  A    between atoms: C_3  and  N_4
REMARK    4  A    between atoms: N_4  and  C_5
REMARK    5  A    between atoms: N_4  and  C_12
REMARK    6  A    between atoms: C_5  and  C_6
REMARK    7  A    between atoms: C_12  and  C_13
REMARK                            x       y       z     vdW  Elec       q    Type
REMARK                         _______ _______ _______ _____ _____    ______ ____
ROOT
ATOM      1  N   UNL     1       5.082   5.267  18.048  0.00  0.00    +0.000 NA
ENDROOT
BRANCH   1   2
ATOM      2  C   UNL     1       5.883   5.300  19.296  0.00  0.00    +0.000 C 
BRANCH   2   3
ATOM      3  C   UNL     1       7.379   5.613  19.129  0.00  0.00    +0.000 C 
BRANCH   3   4
ATOM      4  O   UNL     1       8.021   5.520  20.400  0.00  0.00    +0.000 OA
ATOM      5  H   UNL     1       8.276   6.422  20.660  0.00  0.00    +0.000 HD
ENDBRANCH   3   4
ENDBRANCH   2   3
ENDBRANCH   1   2
BRANCH   1   6
ATOM      6  C   UNL     1       3.726   5.834  18.277  0.00  0.00    +0.000 C 
BRANCH   6   7
ATOM      7  C   UNL     1       2.715   4.844  18.843  0.00  0.00    +0.000 A 
ATOM      8  C   UNL     1       2.145   3.873  18.021  0.00  0.00    +0.000 A 
ATOM      9  C   UNL     1       1.163   3.038  18.551  0.00  0.00    +0.000 A 
ATOM     10  C   UNL     1       0.783   3.189  19.879  0.00  0.00    +0.000 A 
ATOM     11  C   UNL     1       1.410   4.167  20.631  0.00  0.00    +0.000 A 
ATOM     12  N   UNL     1       2.361   4.995  20.145  0.00  0.00    +0.000 NA
ENDBRANCH   6   7
ENDBRANCH   1   6
BRANCH   1  13
ATOM     13  C   UNL     1       5.774   6.091  17.010  0.00  0.00    +0.000 C 
BRANCH  13  14
ATOM     14  C   UNL     1       6.082   5.368  15.709  0.00  0.00    +0.000 A 
ATOM     15  C   UNL     1       5.163   4.474  15.163  0.00  0.00    +0.000 A 
ATOM     16  C   UNL     1       5.471   3.847  13.959  0.00  0.00    +0.000 A 
ATOM     17  C   UNL     1       6.679   4.127  13.334  0.00  0.00    +0.000 A 
ATOM     18  C   UNL     1       7.537   5.027  13.944  0.00  0.00    +0.000 A 
ATOM     19  N   UNL     1       7.267   5.651  15.110  0.00  0.00    +0.000 NA
ENDBRANCH  13  14
ENDBRANCH   1  13
TORSDOF 7
ENDMDL
MODEL 3
REMARK VINA RESULT:      -6.5      0.931      1.018
REMARK  Name = 
REMARK  7 active torsions:
REMARK  status: ('A' for Active; 'I' for Inactive)
REMARK    1  A    between atoms: O_1  and  C_2
REMARK    2  A    between atoms: C_2  and  C_3
REMARK    3  A    between atoms: C_3  and  N_4
REMARK    4  A    between atoms: N_4  and  C_5
REMARK    5  A    between atoms: N_4  and  C_12
REMARK    6  A    between atoms: C_5  and  C_6
REMARK    7  A    between atoms: C_12  and  C_13
REMARK                            x       y       z     vdW  Elec       q    Type
REMARK                         _______ _______ _______ _____ _____    ______ ____
ROOT
ATOM      1  N   UNL     1       5.415   4.820  17.562  0.00  0.00    +0.000 NA
ENDROOT
BRANCH   1   2
ATOM      2  C   UNL     1       6.075   4.772  18.889  0.00  0.00    +0.000 C 
BRANCH   2   3
ATOM      3  C   UNL     1       7.290   5.698  19.072  0.00  0.00    +0.000 C 
BRANCH   3   4
ATOM      4  O   UNL     1       7.866   5.466  20.357  0.00  0.00    +0.000 OA
ATOM      5  H   UNL     1       8.542   4.776  20.248  0.00  0.00    +0.000 HD
ENDBRANCH   3   4
ENDBRANCH   2   3
ENDBRANCH   1   2
BRANCH   1   6
ATOM      6  C   UNL     1       4.057   5.417  17.670  0.00  0.00    +0.000 C 
BRANCH   6   7
ATOM      7  C   UNL     1       2.979   4.450  18.143  0.00  0.00    +0.000 A 
ATOM      8  C   UNL     1       2.106   4.814  19.168  0.00  0.00    +0.000 A 
ATOM      9  C   UNL     1       1.187   3.875  19.631  0.00  0.00    +0.000 A 
ATOM     10  C   UNL     1       1.157   2.609  19.060  0.00  0.00    +0.000 A 
ATOM     11  C   UNL     1       2.047   2.333  18.036  0.00  0.00    +0.000 A 
ATOM     12  N   UNL     1       2.953   3.220  17.568  0.00  0.00    +0.000 NA
ENDBRANCH   6   7
ENDBRANCH   1   6
BRANCH   1  13
ATOM     13  C   UNL     1       6.238   5.668  16.645  0.00  0.00    +0.000 C 
BRANCH  13  14
ATOM     14  C   UNL     1       6.448   5.099  15.252  0.00  0.00    +0.000 A 
ATOM     15  C   UNL     1       5.527   4.205  14.706  0.00  0.00    +0.000 A 
ATOM     16  C   UNL     1       5.744   3.722  13.419  0.00  0.00    +0.000 A 
ATOM     17  C   UNL     1       6.864   4.141  12.713  0.00  0.00    +0.000 A 
ATOM     18  C   UNL     1       7.730   5.029  13.328  0.00  0.00    +0.000 A 
ATOM     19  N   UNL     1       7.548   5.515  14.574  0.00  0.00    +0.000 NA
ENDBRANCH  13  14
ENDBRANCH   1  13
TORSDOF 7
ENDMDL
MODEL 4
REMARK VINA RESULT:      -6.4      1.370      5.723
REMARK  Name = 
REMARK  7 active torsions:
REMARK  status: ('A' for Active; 'I' for Inactive)
REMARK    1  A    between atoms: O_1  and  C_2
REMARK    2  A    between atoms: C_2  and  C_3
REMARK    3  A    between atoms: C_3  and  N_4
REMARK    4  A    between atoms: N_4  and  C_5
REMARK    5  A    between atoms: N_4  and  C_12
REMARK    6  A    between atoms: C_5  and  C_6
REMARK    7  A    between atoms: C_12  and  C_13
REMARK                            x       y       z     vdW  Elec       q    Type
REMARK                         _______ _______ _______ _____ _____    ______ ____
ROOT
ATOM      1  N   UNL     1       5.644   5.219  16.788  0.00  0.00    +0.000 NA
ENDROOT
BRANCH   1   2
ATOM      2  C   UNL     1       5.981   6.649  16.993  0.00  0.00    +0.000 C 
BRANCH   2   3
ATOM      3  C   UNL     1       7.342   6.934  17.649  0.00  0.00    +0.000 C 
BRANCH   3   4
ATOM      4  O   UNL     1       7.808   8.214  17.224  0.00  0.00    +0.000 OA
ATOM      5  H   UNL     1       7.104   8.609  16.681  0.00  0.00    +0.000 HD
ENDBRANCH   3   4
ENDBRANCH   2   3
ENDBRANCH   1   2
BRANCH   1   6
ATOM      6  C   UNL     1       6.804   4.480  16.223  0.00  0.00    +0.000 C 
BRANCH   6   7
ATOM      7  C   UNL     1       6.901   4.525  14.703  0.00  0.00    +0.000 A 
ATOM      8  C   UNL     1       6.133   3.662  13.923  0.00  0.00    +0.000 A 
ATOM      9  C   UNL     1       6.309   3.671  12.541  0.00  0.00    +0.000 A 
ATOM     10  C   UNL     1       7.234   4.541  11.976  0.00  0.00    +0.000 A 
ATOM     11  C   UNL     1       7.945   5.376  12.820  0.00  0.00    +0.000 A 
ATOM     12  N   UNL     1       7.802   5.386  14.164  0.00  0.00    +0.000 NA
ENDBRANCH   6   7
ENDBRANCH   1   6
BRANCH   1  13
ATOM     13  C   UNL     1       5.289   4.614  18.109  0.00  0.00    +0.000 C 
BRANCH  13  14
ATOM     14  C   UNL     1       3.909   3.982  18.181  0.00  0.00    +0.000 A 
ATOM     15  C   UNL     1       3.759   2.657  18.590  0.00  0.00    +0.000 A 
ATOM     16  C   UNL     1       2.477   2.119  18.664  0.00  0.00    +0.000 A 
ATOM     17  C   UNL     1       1.386   2.911  18.332  0.00  0.00    +0.000 A 
ATOM     18  C   UNL     1       1.621   4.216  17.934  0.00  0.00    +0.000 A 
ATOM     19  N   UNL     1       2.851   4.766  17.852  0.00  0.00    +0.000 NA
ENDBRANCH  13  14
ENDBRANCH   1  13
TORSDOF 7
ENDMDL
MODEL 5
REMARK VINA RESULT:      -6.4      1.367      1.512
REMARK  Name = 
REMARK  7 active torsions:
REMARK  status: ('A' for Active; 'I' for Inactive)
REMARK    1  A    between atoms: O_1  and  C_2
REMARK    2  A    between atoms: C_2  and  C_3
REMARK    3  A    between atoms: C_3  and  N_4
REMARK    4  A    between atoms: N_4  and  C_5
REMARK    5  A    between atoms: N_4  and  C_12
REMARK    6  A    between atoms: C_5  and  C_6
REMARK    7  A    between atoms: C_12  and  C_13
REMARK                            x       y       z     vdW  Elec       q    Type
REMARK                         _______ _______ _______ _____ _____    ______ ____
ROOT
ATOM      1  N   UNL     1       4.996   4.779  16.786  0.00  0.00    +0.000 NA
ENDROOT
BRANCH   1   2
ATOM      2  C   UNL     1       5.757   4.100  17.863  0.00  0.00    +0.000 C 
BRANCH   2   3
ATOM      3  C   UNL     1       6.882   4.921  18.516  0.00  0.00    +0.000 C 
BRANCH   3   4
ATOM      4  O   UNL     1       6.465   5.337  19.815  0.00  0.00    +0.000 OA
ATOM      5  H   UNL     1       5.986   6.176  19.708  0.00  0.00    +0.000 HD
ENDBRANCH   3   4
ENDBRANCH   2   3
ENDBRANCH   1   2
BRANCH   1   6
ATOM      6  C   UNL     1       3.952   5.669  17.360  0.00  0.00    +0.000 C 
BRANCH   6   7
ATOM      7  C   UNL     1       3.055   5.003  18.396  0.00  0.00    +0.000 A 
ATOM      8  C   UNL     1       2.052   4.120  17.996  0.00  0.00    +0.000 A 
ATOM      9  C   UNL     1       1.197   3.594  18.962  0.00  0.00    +0.000 A 
ATOM     10  C   UNL     1       1.367   3.955  20.293  0.00  0.00    +0.000 A 
ATOM     11  C   UNL     1       2.396   4.825  20.608  0.00  0.00    +0.000 A 
ATOM     12  N   UNL     1       3.238   5.356  19.694  0.00  0.00    +0.000 NA
ENDBRANCH   6   7
ENDBRANCH   1   6
BRANCH   1  13
ATOM     13  C   UNL     1       5.942   5.611  15.980  0.00  0.00    +0.000 C 
BRANCH  13  14
ATOM     14  C   UNL     1       6.347   5.015  14.642  0.00  0.00    +0.000 A 
ATOM     15  C   UNL     1       5.556   4.043  14.031  0.00  0.00    +0.000 A 
ATOM     16  C   UNL     1       5.950   3.537  12.796  0.00  0.00    +0.000 A 
ATOM     17  C   UNL     1       7.113   4.011  12.204  0.00  0.00    +0.000 A 
ATOM     18  C   UNL     1       7.842   4.976  12.877  0.00  0.00    +0.000 A 
ATOM     19  N   UNL     1       7.488   5.487  14.076  0.00  0.00    +0.000 NA
ENDBRANCH  13  14
ENDBRANCH   1  13
TORSDOF 7
ENDMDL
MODEL 6
REMARK VINA RESULT:      -6.3      3.531      5.401
REMARK  Name = 
REMARK  7 active torsions:
REMARK  status: ('A' for Active; 'I' for Inactive)
REMARK    1  A    between atoms: O_1  and  C_2
REMARK    2  A    between atoms: C_2  and  C_3
REMARK    3  A    between atoms: C_3  and  N_4
REMARK    4  A    between atoms: N_4  and  C_5
REMARK    5  A    between atoms: N_4  and  C_12
REMARK    6  A    between atoms: C_5  and  C_6
REMARK    7  A    between atoms: C_12  and  C_13
REMARK                            x       y       z     vdW  Elec       q    Type
REMARK                         _______ _______ _______ _____ _____    ______ ____
ROOT
ATOM      1  N   UNL     1       3.131   5.023  18.413  0.00  0.00    +0.000 NA
ENDROOT
BRANCH   1   2
ATOM      2  C   UNL     1       2.052   4.009  18.312  0.00  0.00    +0.000 C 
BRANCH   2   3
ATOM      3  C   UNL     1       2.382   2.615  18.872  0.00  0.00    +0.000 C 
BRANCH   3   4
ATOM      4  O   UNL     1       1.292   1.734  18.608  0.00  0.00    +0.000 OA
ATOM      5  H   UNL     1       1.157   1.725  17.645  0.00  0.00    +0.000 HD
ENDBRANCH   3   4
ENDBRANCH   2   3
ENDBRANCH   1   2
BRANCH   1   6
ATOM      6  C   UNL     1       2.938   5.878  19.614  0.00  0.00    +0.000 C 
BRANCH   6   7
ATOM      7  C   UNL     1       2.284   7.225  19.332  0.00  0.00    +0.000 A 
ATOM      8  C   UNL     1       2.376   7.800  18.065  0.00  0.00    +0.000 A 
ATOM      9  C   UNL     1       1.838   9.071  17.866  0.00  0.00    +0.000 A 
ATOM     10  C   UNL     1       1.222   9.726  18.925  0.00  0.00    +0.000 A 
ATOM     11  C   UNL     1       1.160   9.078  20.146  0.00  0.00    +0.000 A 
ATOM     12  N   UNL     1       1.676   7.849  20.373  0.00  0.00    +0.000 NA
ENDBRANCH   6   7
ENDBRANCH   1   6
BRANCH   1  13
ATOM     13  C   UNL     1       4.444   4.318  18.533  0.00  0.00    +0.000 C 
BRANCH  13  14
ATOM     14  C   UNL     1       5.669   5.211  18.425  0.00  0.00    +0.000 A 
ATOM     15  C   UNL     1       5.752   6.181  17.427  0.00  0.00    +0.000 A 
ATOM     16  C   UNL     1       6.881   6.993  17.374  0.00  0.00    +0.000 A 
ATOM     17  C   UNL     1       7.890   6.820  18.312  0.00  0.00    +0.000 A 
ATOM     18  C   UNL     1       7.731   5.833  19.270  0.00  0.00    +0.000 A 
ATOM     19  N   UNL     1       6.649   5.029  19.348  0.00  0.00    +0.000 NA
ENDBRANCH  13  14
ENDBRANCH   1  13
TORSDOF 7
ENDMDL
MODEL 7
REMARK VINA RESULT:      -6.3      3.227      4.818
REMARK  Name = 
REMARK  7 active torsions:
REMARK  status: ('A' for Active; 'I' for Inactive)
REMARK    1  A    between atoms: O_1  and  C_2
REMARK    2  A    between atoms: C_2  and  C_3
REMARK    3  A    between atoms: C_3  and  N_4
REMARK    4  A    between atoms: N_4  and  C_5
REMARK    5  A    between atoms: N_4  and  C_12
REMARK    6  A    between atoms: C_5  and  C_6
REMARK    7  A    between atoms: C_12  and  C_13
REMARK                            x       y       z     vdW  Elec       q    Type
REMARK                         _______ _______ _______ _____ _____    ______ ____
ROOT
ATOM      1  N   UNL     1       2.876   4.488  19.101  0.00  0.00    +0.000 NA
ENDROOT
BRANCH   1   2
ATOM      2  C   UNL     1       1.860   3.772  19.912  0.00  0.00    +0.000 C 
BRANCH   2   3
ATOM      3  C   UNL     1       2.025   3.867  21.438  0.00  0.00    +0.000 C 
BRANCH   3   4
ATOM      4  O   UNL     1       2.233   2.559  21.968  0.00  0.00    +0.000 OA
ATOM      5  H   UNL     1       1.472   2.016  21.699  0.00  0.00    +0.000 HD
ENDBRANCH   3   4
ENDBRANCH   2   3
ENDBRANCH   1   2
BRANCH   1   6
ATOM      6  C   UNL     1       3.321   5.728  19.791  0.00  0.00    +0.000 C 
BRANCH   6   7
ATOM      7  C   UNL     1       2.585   6.990  19.356  0.00  0.00    +0.000 A 
ATOM      8  C   UNL     1       2.703   7.459  18.048  0.00  0.00    +0.000 A 
ATOM      9  C   UNL     1       2.085   8.660  17.708  0.00  0.00    +0.000 A 
ATOM     10  C   UNL     1       1.364   9.354  18.673  0.00  0.00    +0.000 A 
ATOM     11  C   UNL     1       1.283   8.812  19.944  0.00  0.00    +0.000 A 
ATOM     12  N   UNL     1       1.875   7.652  20.305  0.00  0.00    +0.000 NA
ENDBRANCH   6   7
ENDBRANCH   1   6
BRANCH   1  13
ATOM     13  C   UNL     1       4.060   3.594  18.916  0.00  0.00    +0.000 C 
BRANCH  13  14
ATOM     14  C   UNL     1       5.089   4.083  17.911  0.00  0.00    +0.000 A 
ATOM     15  C   UNL     1       4.728   4.313  16.583  0.00  0.00    +0.000 A 
ATOM     16  C   UNL     1       5.694   4.781  15.697  0.00  0.00    +0.000 A 
ATOM     17  C   UNL     1       6.985   5.008  16.154  0.00  0.00    +0.000 A 
ATOM     18  C   UNL     1       7.262   4.754  17.486  0.00  0.00    +0.000 A 
ATOM     19  N   UNL     1       6.349   4.300  18.370  0.00  0.00    +0.000 NA
ENDBRANCH  13  14
ENDBRANCH   1  13
TORSDOF 7
ENDMDL
MODEL 8
REMARK VINA RESULT:      -6.3      3.109      4.838
REMARK  Name = 
REMARK  7 active torsions:
REMARK  status: ('A' for Active; 'I' for Inactive)
REMARK    1  A    between atoms: O_1  and  C_2
REMARK    2  A    between atoms: C_2  and  C_3
REMARK    3  A    between atoms: C_3  and  N_4
REMARK    4  A    between atoms: N_4  and  C_5
REMARK    5  A    between atoms: N_4  and  C_12
REMARK    6  A    between atoms: C_5  and  C_6
REMARK    7  A    between atoms: C_12  and  C_13
REMARK                            x       y       z     vdW  Elec       q    Type
REMARK                         _______ _______ _______ _____ _____    ______ ____
ROOT
ATOM      1  N   UNL     1       3.121   4.187  19.290  0.00  0.00    +0.000 NA
ENDROOT
BRANCH   1   2
ATOM      2  C   UNL     1       2.207   3.107  19.737  0.00  0.00    +0.000 C 
BRANCH   2   3
ATOM      3  C   UNL     1       1.009   2.814  18.818  0.00  0.00    +0.000 C 
BRANCH   3   4
ATOM      4  O   UNL     1       1.118   3.608  17.638  0.00  0.00    +0.000 OA
ATOM      5  H   UNL     1       0.473   4.332  17.718  0.00  0.00    +0.000 HD
ENDBRANCH   3   4
ENDBRANCH   2   3
ENDBRANCH   1   2
BRANCH   1   6
ATOM      6  C   UNL     1       3.025   5.364  20.194  0.00  0.00    +0.000 C 
BRANCH   6   7
ATOM      7  C   UNL     1       2.557   6.645  19.514  0.00  0.00    +0.000 A 
ATOM      8  C   UNL     1       2.934   6.923  18.201  0.00  0.00    +0.000 A 
ATOM      9  C   UNL     1       2.558   8.142  17.639  0.00  0.00    +0.000 A 
ATOM     10  C   UNL     1       1.815   9.042  18.395  0.00  0.00    +0.000 A 
ATOM     11  C   UNL     1       1.469   8.682  19.685  0.00  0.00    +0.000 A 
ATOM     12  N   UNL     1       1.823   7.510  20.260  0.00  0.00    +0.000 NA
ENDBRANCH   6   7
ENDBRANCH   1   6
BRANCH   1  13
ATOM     13  C   UNL     1       4.524   3.673  19.323  0.00  0.00    +0.000 C 
BRANCH  13  14
ATOM     14  C   UNL     1       5.375   4.040  18.118  0.00  0.00    +0.000 A 
ATOM     15  C   UNL     1       4.834   4.011  16.834  0.00  0.00    +0.000 A 
ATOM     16  C   UNL     1       5.639   4.374  15.758  0.00  0.00    +0.000 A 
ATOM     17  C   UNL     1       6.953   4.757  15.989  0.00  0.00    +0.000 A 
ATOM     18  C   UNL     1       7.414   4.757  17.294  0.00  0.00    +0.000 A 
ATOM     19  N   UNL     1       6.659   4.410  18.358  0.00  0.00    +0.000 NA
ENDBRANCH  13  14
ENDBRANCH   1  13
TORSDOF 7
ENDMDL
MODEL 9
REMARK VINA RESULT:      -6.3      1.201      1.434
REMARK  Name = 
REMARK  7 active torsions:
REMARK  status: ('A' for Active; 'I' for Inactive)
REMARK    1  A    between atoms: O_1  and  C_2
REMARK    2  A    between atoms: C_2  and  C_3
REMARK    3  A    between atoms: C_3  and  N_4
REMARK    4  A    between atoms: N_4  and  C_5
REMARK    5  A    between atoms: N_4  and  C_12
REMARK    6  A    between atoms: C_5  and  C_6
REMARK    7  A    between atoms: C_12  and  C_13
REMARK                            x       y       z     vdW  Elec       q    Type
REMARK                         _______ _______ _______ _____ _____    ______ ____
ROOT
ATOM      1  N   UNL     1       5.765   4.537  17.026  0.00  0.00    +0.000 NA
ENDROOT
BRANCH   1   2
ATOM      2  C   UNL     1       7.185   4.818  17.346  0.00  0.00    +0.000 C 
BRANCH   2   3
ATOM      3  C   UNL     1       7.491   6.228  17.879  0.00  0.00    +0.000 C 
BRANCH   3   4
ATOM      4  O   UNL     1       7.803   7.086  16.782  0.00  0.00    +0.000 OA
ATOM      5  H   UNL     1       7.659   6.574  15.967  0.00  0.00    +0.000 HD
ENDBRANCH   3   4
ENDBRANCH   2   3
ENDBRANCH   1   2
BRANCH   1   6
ATOM      6  C   UNL     1       4.881   4.944  18.150  0.00  0.00    +0.000 C 
BRANCH   6   7
ATOM      7  C   UNL     1       3.635   4.083  18.318  0.00  0.00    +0.000 A 
ATOM      8  C   UNL     1       3.602   2.786  17.809  0.00  0.00    +0.000 A 
ATOM      9  C   UNL     1       2.419   2.057  17.906  0.00  0.00    +0.000 A 
ATOM     10  C   UNL     1       1.309   2.634  18.511  0.00  0.00    +0.000 A 
ATOM     11  C   UNL     1       1.430   3.922  19.004  0.00  0.00    +0.000 A 
ATOM     12  N   UNL     1       2.562   4.656  18.920  0.00  0.00    +0.000 NA
ENDBRANCH   6   7
ENDBRANCH   1   6
BRANCH   1  13
ATOM     13  C   UNL     1       5.382   5.319  15.810  0.00  0.00    +0.000 C 
BRANCH  13  14
ATOM     14  C   UNL     1       6.016   4.847  14.512  0.00  0.00    +0.000 A 
ATOM     15  C   UNL     1       5.416   3.840  13.756  0.00  0.00    +0.000 A 
ATOM     16  C   UNL     1       6.016   3.449  12.562  0.00  0.00    +0.000 A 
ATOM     17  C   UNL     1       7.189   4.070  12.154  0.00  0.00    +0.000 A 
ATOM     18  C   UNL     1       7.721   5.059  12.963  0.00  0.00    +0.000 A 
ATOM     19  N   UNL     1       7.164   5.460  14.125  0.00  0.00    +0.000 NA
ENDBRANCH  13  14
ENDBRANCH   1  13
TORSDOF 7
ENDMDL
