MODEL 1
REMARK VINA RESULT:      -9.7      0.000      0.000
REMARK  Name = 
REMARK  6 active torsions:
REMARK  status: ('A' for Active; 'I' for Inactive)
REMARK    1  A    between atoms: C_1  and  C_2
REMARK    2  A    between atoms: C_4  and  N_5
REMARK    3  A    between atoms: C_6  and  C_8
REMARK    4  A    between atoms: C_8  and  C_9
REMARK    5  A    between atoms: C_13  and  C_14
REMARK    6  A    between atoms: C_16  and  C_17
REMARK                            x       y       z     vdW  Elec       q    Type
REMARK                         _______ _______ _______ _____ _____    ______ ____
ROOT
ATOM      1  C   UNL     1       3.805   4.649  18.854  0.00  0.00    +0.000 A 
ATOM      2  N   UNL     1       3.144   4.527  17.718  0.00  0.00    +0.000 NA
ATOM      3  N   UNL     1       4.034   4.640  16.689  0.00  0.00    +0.000 NA
ATOM      4  C   UNL     1       5.228   4.860  17.200  0.00  0.00    +0.000 A 
ATOM      5  C   UNL     1       6.516   5.050  16.601  0.00  0.00    +0.000 A 
ATOM      6  C   UNL     1       7.555   5.364  17.412  0.00  0.00    +0.000 A 
ATOM      7  C   UNL     1       7.404   5.492  18.856  0.00  0.00    +0.000 A 
ATOM      8  C   UNL     1       6.203   5.254  19.411  0.00  0.00    +0.000 A 
ATOM      9  N   UNL     1       5.127   4.933  18.587  0.00  0.00    +0.000 N 
ENDROOT
BRANCH   5  10
ATOM     10  C   UNL     1       6.743   4.917  15.192  0.00  0.00    +0.000 A 
ATOM     11  N   UNL     1       6.043   4.194  14.326  0.00  0.00    +0.000 NA
ATOM     12  C   UNL     1       6.701   4.386  13.140  0.00  0.00    +0.000 A 
ATOM     13  N   UNL     1       7.747   5.208  13.209  0.00  0.00    +0.000 NA
ATOM     14  O   UNL     1       7.782   5.566  14.548  0.00  0.00    +0.000 OA
BRANCH  12  15
ATOM     15  C   UNL     1       6.323   3.690  11.846  0.00  0.00    +0.000 C 
ATOM     16  C   UNL     1       6.080   2.194  11.903  0.00  0.00    +0.000 C 
ATOM     17  C   UNL     1       4.933   3.118  11.671  0.00  0.00    +0.000 C 
ENDBRANCH  12  15
ENDBRANCH   5  10
BRANCH   1  18
ATOM     18  C   UNL     1       3.206   4.496  20.200  0.00  0.00    +0.000 C 
BRANCH  18  20
ATOM     19  N   UNL     1       2.473   6.826  20.242  0.00  0.00    +0.000 N 
ATOM     20  C   UNL     1       2.079   5.501  20.368  0.00  0.00    +0.000 C 
ATOM     21  O   UNL     1       0.952   5.102  20.657  0.00  0.00    +0.000 OA
ATOM     22  H   UNL     1       3.450   6.994  20.014  0.00  0.00    +0.000 HD
BRANCH  19  26
ATOM     23  C   UNL     1      -0.438   9.892  22.886  0.00  0.00    +0.000 C 
ATOM     24  C   UNL     1       0.234   9.504  21.606  0.00  0.00    +0.000 A 
ATOM     25  C   UNL     1       1.023   8.347  21.538  0.00  0.00    +0.000 A 
ATOM     26  C   UNL     1       1.653   7.969  20.349  0.00  0.00    +0.000 A 
ATOM     27  C   UNL     1       1.460   8.751  19.200  0.00  0.00    +0.000 A 
ATOM     28  C   UNL     1       0.689   9.916  19.261  0.00  0.00    +0.000 A 
ATOM     29  C   UNL     1       0.089  10.285  20.460  0.00  0.00    +0.000 A 
ATOM     30  F   UNL     1      -0.641  11.408  20.504  0.00  0.00    +0.000 F 
ENDBRANCH  19  26
ENDBRANCH  18  20
ENDBRANCH   1  18
TORSDOF 5
ENDMDL
MODEL 2
REMARK VINA RESULT:      -9.3      0.498      1.329
REMARK  Name = 
REMARK  6 active torsions:
REMARK  status: ('A' for Active; 'I' for Inactive)
REMARK    1  A    between atoms: C_1  and  C_2
REMARK    2  A    between atoms: C_4  and  N_5
REMARK    3  A    between atoms: C_6  and  C_8
REMARK    4  A    between atoms: C_8  and  C_9
REMARK    5  A    between atoms: C_13  and  C_14
REMARK    6  A    between atoms: C_16  and  C_17
REMARK                            x       y       z     vdW  Elec       q    Type
REMARK                         _______ _______ _______ _____ _____    ______ ____
ROOT
ATOM      1  C   UNL     1       3.808   4.295  18.688  0.00  0.00    +0.000 A 
ATOM      2  N   UNL     1       3.192   4.084  17.541  0.00  0.00    +0.000 NA
ATOM      3  N   UNL     1       4.086   4.291  16.530  0.00  0.00    +0.000 NA
ATOM      4  C   UNL     1       5.234   4.655  17.063  0.00  0.00    +0.000 A 
ATOM      5  C   UNL     1       6.504   4.990  16.490  0.00  0.00    +0.000 A 
ATOM      6  C   UNL     1       7.480   5.433  17.320  0.00  0.00    +0.000 A 
ATOM      7  C   UNL     1       7.282   5.556  18.758  0.00  0.00    +0.000 A 
ATOM      8  C   UNL     1       6.105   5.184  19.289  0.00  0.00    +0.000 A 
ATOM      9  N   UNL     1       5.093   4.730  18.447  0.00  0.00    +0.000 N 
ENDROOT
BRANCH   5  10
ATOM     10  C   UNL     1       6.777   4.870  15.088  0.00  0.00    +0.000 A 
ATOM     11  N   UNL     1       6.129   4.127  14.199  0.00  0.00    +0.000 NA
ATOM     12  C   UNL     1       6.815   4.347  13.034  0.00  0.00    +0.000 A 
ATOM     13  N   UNL     1       7.830   5.204  13.137  0.00  0.00    +0.000 NA
ATOM     14  O   UNL     1       7.812   5.558  14.477  0.00  0.00    +0.000 OA
BRANCH  12  15
ATOM     15  C   UNL     1       6.501   3.643  11.727  0.00  0.00    +0.000 C 
ATOM     16  C   UNL     1       7.102   2.267  11.512  0.00  0.00    +0.000 C 
ATOM     17  C   UNL     1       5.633   2.404  11.723  0.00  0.00    +0.000 C 
ENDBRANCH  12  15
ENDBRANCH   5  10
BRANCH   1  18
ATOM     18  C   UNL     1       3.201   4.085  20.023  0.00  0.00    +0.000 C 
BRANCH  18  20
ATOM     19  N   UNL     1       2.568   6.444  20.091  0.00  0.00    +0.000 N 
ATOM     20  C   UNL     1       2.131   5.137  20.261  0.00  0.00    +0.000 C 
ATOM     21  O   UNL     1       1.012   4.788  20.635  0.00  0.00    +0.000 OA
ATOM     22  H   UNL     1       3.531   6.569  19.791  0.00  0.00    +0.000 HD
BRANCH  19  26
ATOM     23  C   UNL     1       0.721  10.722  18.316  0.00  0.00    +0.000 C 
ATOM     24  C   UNL     1       0.869   9.714  19.413  0.00  0.00    +0.000 A 
ATOM     25  C   UNL     1       1.654   8.568  19.227  0.00  0.00    +0.000 A 
ATOM     26  C   UNL     1       1.805   7.621  20.244  0.00  0.00    +0.000 A 
ATOM     27  C   UNL     1       1.182   7.846  21.480  0.00  0.00    +0.000 A 
ATOM     28  C   UNL     1       0.382   8.978  21.670  0.00  0.00    +0.000 A 
ATOM     29  C   UNL     1       0.228   9.897  20.638  0.00  0.00    +0.000 A 
ATOM     30  F   UNL     1      -0.547  10.972  20.834  0.00  0.00    +0.000 F 
ENDBRANCH  19  26
ENDBRANCH  18  20
ENDBRANCH   1  18
TORSDOF 5
ENDMDL
MODEL 3
REMARK VINA RESULT:      -8.4      0.852      1.076
REMARK  Name = 
REMARK  6 active torsions:
REMARK  status: ('A' for Active; 'I' for Inactive)
REMARK    1  A    between atoms: C_1  and  C_2
REMARK    2  A    between atoms: C_4  and  N_5
REMARK    3  A    between atoms: C_6  and  C_8
REMARK    4  A    between atoms: C_8  and  C_9
REMARK    5  A    between atoms: C_13  and  C_14
REMARK    6  A    between atoms: C_16  and  C_17
REMARK                            x       y       z     vdW  Elec       q    Type
REMARK                         _______ _______ _______ _____ _____    ______ ____
ROOT
ATOM      1  C   UNL     1       3.783   4.515  18.578  0.00  0.00    +0.000 A 
ATOM      2  N   UNL     1       2.960   4.094  17.637  0.00  0.00    +0.000 NA
ATOM      3  N   UNL     1       3.632   4.089  16.449  0.00  0.00    +0.000 NA
ATOM      4  C   UNL     1       4.853   4.535  16.664  0.00  0.00    +0.000 A 
ATOM      5  C   UNL     1       5.976   4.736  15.799  0.00  0.00    +0.000 A 
ATOM      6  C   UNL     1       7.084   5.318  16.318  0.00  0.00    +0.000 A 
ATOM      7  C   UNL     1       7.170   5.721  17.715  0.00  0.00    +0.000 A 
ATOM      8  C   UNL     1       6.130   5.474  18.531  0.00  0.00    +0.000 A 
ATOM      9  N   UNL     1       4.985   4.879  18.008  0.00  0.00    +0.000 N 
ENDROOT
BRANCH   5  10
ATOM     10  C   UNL     1       5.972   4.343  14.420  0.00  0.00    +0.000 A 
ATOM     11  N   UNL     1       4.965   3.819  13.733  0.00  0.00    +0.000 NA
ATOM     12  C   UNL     1       5.502   3.598  12.492  0.00  0.00    +0.000 A 
ATOM     13  N   UNL     1       6.771   3.980  12.357  0.00  0.00    +0.000 NA
ATOM     14  O   UNL     1       7.089   4.475  13.612  0.00  0.00    +0.000 OA
BRANCH  12  15
ATOM     15  C   UNL     1       4.752   2.923  11.358  0.00  0.00    +0.000 C 
ATOM     16  C   UNL     1       3.236   2.984  11.390  0.00  0.00    +0.000 C 
ATOM     17  C   UNL     1       3.983   3.756  10.357  0.00  0.00    +0.000 C 
ENDBRANCH  12  15
ENDBRANCH   5  10
BRANCH   1  18
ATOM     18  C   UNL     1       3.455   4.576  20.021  0.00  0.00    +0.000 C 
BRANCH  18  20
ATOM     19  N   UNL     1       2.598   6.859  20.176  0.00  0.00    +0.000 N 
ATOM     20  C   UNL     1       2.275   5.509  20.231  0.00  0.00    +0.000 C 
ATOM     21  O   UNL     1       1.169   5.037  20.489  0.00  0.00    +0.000 OA
ATOM     22  H   UNL     1       3.566   7.090  19.965  0.00  0.00    +0.000 HD
BRANCH  19  26
ATOM     23  C   UNL     1      -0.360   9.723  22.989  0.00  0.00    +0.000 C 
ATOM     24  C   UNL     1       0.271   9.385  21.674  0.00  0.00    +0.000 A 
ATOM     25  C   UNL     1       1.124   8.279  21.556  0.00  0.00    +0.000 A 
ATOM     26  C   UNL     1       1.717   7.949  20.334  0.00  0.00    +0.000 A 
ATOM     27  C   UNL     1       1.422   8.727  19.205  0.00  0.00    +0.000 A 
ATOM     28  C   UNL     1       0.587   9.843  19.315  0.00  0.00    +0.000 A 
ATOM     29  C   UNL     1       0.024  10.165  20.545  0.00  0.00    +0.000 A 
ATOM     30  F   UNL     1      -0.769  11.242  20.636  0.00  0.00    +0.000 F 
ENDBRANCH  19  26
ENDBRANCH  18  20
ENDBRANCH   1  18
TORSDOF 5
ENDMDL
MODEL 4
REMARK VINA RESULT:      -8.4      5.324     11.719
REMARK  Name = 
REMARK  6 active torsions:
REMARK  status: ('A' for Active; 'I' for Inactive)
REMARK    1  A    between atoms: C_1  and  C_2
REMARK    2  A    between atoms: C_4  and  N_5
REMARK    3  A    between atoms: C_6  and  C_8
REMARK    4  A    between atoms: C_8  and  C_9
REMARK    5  A    between atoms: C_13  and  C_14
REMARK    6  A    between atoms: C_16  and  C_17
REMARK                            x       y       z     vdW  Elec       q    Type
REMARK                         _______ _______ _______ _____ _____    ______ ____
ROOT
ATOM      1  C   UNL     1       0.429  10.389  21.875  0.00  0.00    +0.000 A 
ATOM      2  N   UNL     1       0.093  10.354  23.151  0.00  0.00    +0.000 NA
ATOM      3  N   UNL     1      -1.045  11.091  23.315  0.00  0.00    +0.000 NA
ATOM      4  C   UNL     1      -1.381  11.596  22.146  0.00  0.00    +0.000 A 
ATOM      5  C   UNL     1      -2.470  12.429  21.729  0.00  0.00    +0.000 A 
ATOM      6  C   UNL     1      -2.479  12.871  20.448  0.00  0.00    +0.000 A 
ATOM      7  C   UNL     1      -1.440  12.510  19.493  0.00  0.00    +0.000 A 
ATOM      8  C   UNL     1      -0.455  11.681  19.881  0.00  0.00    +0.000 A 
ATOM      9  N   UNL     1      -0.433  11.223  21.196  0.00  0.00    +0.000 N 
ENDROOT
BRANCH   5  10
ATOM     10  C   UNL     1      -3.539  12.804  22.608  0.00  0.00    +0.000 A 
ATOM     11  N   UNL     1      -4.765  12.299  22.648  0.00  0.00    +0.000 NA
ATOM     12  C   UNL     1      -5.384  13.031  23.626  0.00  0.00    +0.000 A 
ATOM     13  N   UNL     1      -4.609  13.939  24.217  0.00  0.00    +0.000 NA
ATOM     14  O   UNL     1      -3.396  13.796  23.562  0.00  0.00    +0.000 OA
BRANCH  12  15
ATOM     15  C   UNL     1      -6.849  12.879  23.992  0.00  0.00    +0.000 C 
ATOM     16  C   UNL     1      -7.848  13.741  23.244  0.00  0.00    +0.000 C 
ATOM     17  C   UNL     1      -7.818  12.270  23.003  0.00  0.00    +0.000 C 
ENDBRANCH  12  15
ENDBRANCH   5  10
BRANCH   1  18
ATOM     18  C   UNL     1       1.558   9.638  21.279  0.00  0.00    +0.000 C 
BRANCH  18  20
ATOM     19  N   UNL     1       2.102   7.417  20.419  0.00  0.00    +0.000 N 
ATOM     20  C   UNL     1       1.121   8.211  20.996  0.00  0.00    +0.000 C 
ATOM     21  O   UNL     1      -0.041   7.878  21.226  0.00  0.00    +0.000 OA
ATOM     22  H   UNL     1       3.014   7.846  20.279  0.00  0.00    +0.000 HD
BRANCH  19  26
ATOM     23  C   UNL     1       1.470   2.604  21.561  0.00  0.00    +0.000 C 
ATOM     24  C   UNL     1       1.668   3.698  20.557  0.00  0.00    +0.000 A 
ATOM     25  C   UNL     1       1.799   5.030  20.972  0.00  0.00    +0.000 A 
ATOM     26  C   UNL     1       1.988   6.061  20.047  0.00  0.00    +0.000 A 
ATOM     27  C   UNL     1       2.080   5.742  18.684  0.00  0.00    +0.000 A 
ATOM     28  C   UNL     1       1.934   4.418  18.258  0.00  0.00    +0.000 A 
ATOM     29  C   UNL     1       1.725   3.411  19.194  0.00  0.00    +0.000 A 
ATOM     30  F   UNL     1       1.579   2.148  18.769  0.00  0.00    +0.000 F 
ENDBRANCH  19  26
ENDBRANCH  18  20
ENDBRANCH   1  18
TORSDOF 5
ENDMDL
MODEL 5
REMARK VINA RESULT:      -8.2      3.667      5.135
REMARK  Name = 
REMARK  6 active torsions:
REMARK  status: ('A' for Active; 'I' for Inactive)
REMARK    1  A    between atoms: C_1  and  C_2
REMARK    2  A    between atoms: C_4  and  N_5
REMARK    3  A    between atoms: C_6  and  C_8
REMARK    4  A    between atoms: C_8  and  C_9
REMARK    5  A    between atoms: C_13  and  C_14
REMARK    6  A    between atoms: C_16  and  C_17
REMARK                            x       y       z     vdW  Elec       q    Type
REMARK                         _______ _______ _______ _____ _____    ______ ____
ROOT
ATOM      1  C   UNL     1       1.385   9.165  19.030  0.00  0.00    +0.000 A 
ATOM      2  N   UNL     1       1.930   9.679  17.944  0.00  0.00    +0.000 NA
ATOM      3  N   UNL     1       2.790   8.758  17.418  0.00  0.00    +0.000 NA
ATOM      4  C   UNL     1       2.788   7.699  18.201  0.00  0.00    +0.000 A 
ATOM      5  C   UNL     1       3.484   6.448  18.137  0.00  0.00    +0.000 A 
ATOM      6  C   UNL     1       3.341   5.587  19.174  0.00  0.00    +0.000 A 
ATOM      7  C   UNL     1       2.497   5.885  20.323  0.00  0.00    +0.000 A 
ATOM      8  C   UNL     1       1.804   7.037  20.343  0.00  0.00    +0.000 A 
ATOM      9  N   UNL     1       1.945   7.931  19.285  0.00  0.00    +0.000 N 
ENDROOT
BRANCH   5  10
ATOM     10  C   UNL     1       4.312   6.077  17.028  0.00  0.00    +0.000 A 
ATOM     11  N   UNL     1       4.545   4.854  16.567  0.00  0.00    +0.000 NA
ATOM     12  C   UNL     1       5.424   5.060  15.537  0.00  0.00    +0.000 A 
ATOM     13  N   UNL     1       5.728   6.336  15.309  0.00  0.00    +0.000 NA
ATOM     14  O   UNL     1       5.002   7.013  16.276  0.00  0.00    +0.000 OA
BRANCH  12  15
ATOM     15  C   UNL     1       6.059   3.938  14.736  0.00  0.00    +0.000 C 
ATOM     16  C   UNL     1       5.523   3.686  13.339  0.00  0.00    +0.000 C 
ATOM     17  C   UNL     1       6.889   4.256  13.512  0.00  0.00    +0.000 C 
ENDBRANCH  12  15
ENDBRANCH   5  10
BRANCH   1  18
ATOM     18  C   UNL     1       0.331   9.821  19.837  0.00  0.00    +0.000 C 
BRANCH  18  20
ATOM     19  N   UNL     1       0.558  12.076  18.924  0.00  0.00    +0.000 N 
ATOM     20  C   UNL     1       0.696  11.280  20.053  0.00  0.00    +0.000 C 
ATOM     21  O   UNL     1       1.132  11.638  21.146  0.00  0.00    +0.000 OA
ATOM     22  H   UNL     1       0.195  11.625  18.088  0.00  0.00    +0.000 HD
BRANCH  19  26
ATOM     23  C   UNL     1       3.659  15.889  18.079  0.00  0.00    +0.000 C 
ATOM     24  C   UNL     1       2.298  15.353  18.403  0.00  0.00    +0.000 A 
ATOM     25  C   UNL     1       2.085  13.973  18.517  0.00  0.00    +0.000 A 
ATOM     26  C   UNL     1       0.821  13.458  18.823  0.00  0.00    +0.000 A 
ATOM     27  C   UNL     1      -0.238  14.349  19.050  0.00  0.00    +0.000 A 
ATOM     28  C   UNL     1      -0.039  15.728  18.923  0.00  0.00    +0.000 A 
ATOM     29  C   UNL     1       1.221  16.217  18.597  0.00  0.00    +0.000 A 
ATOM     30  F   UNL     1       1.393  17.540  18.471  0.00  0.00    +0.000 F 
ENDBRANCH  19  26
ENDBRANCH  18  20
ENDBRANCH   1  18
TORSDOF 5
ENDMDL
MODEL 6
REMARK VINA RESULT:      -8.1      2.032      3.050
REMARK  Name = 
REMARK  6 active torsions:
REMARK  status: ('A' for Active; 'I' for Inactive)
REMARK    1  A    between atoms: C_1  and  C_2
REMARK    2  A    between atoms: C_4  and  N_5
REMARK    3  A    between atoms: C_6  and  C_8
REMARK    4  A    between atoms: C_8  and  C_9
REMARK    5  A    between atoms: C_13  and  C_14
REMARK    6  A    between atoms: C_16  and  C_17
REMARK                            x       y       z     vdW  Elec       q    Type
REMARK                         _______ _______ _______ _____ _____    ______ ____
ROOT
ATOM      1  C   UNL     1       2.589   6.478  19.423  0.00  0.00    +0.000 A 
ATOM      2  N   UNL     1       3.239   7.366  18.695  0.00  0.00    +0.000 NA
ATOM      3  N   UNL     1       4.035   6.696  17.811  0.00  0.00    +0.000 NA
ATOM      4  C   UNL     1       3.890   5.405  18.023  0.00  0.00    +0.000 A 
ATOM      5  C   UNL     1       4.466   4.251  17.399  0.00  0.00    +0.000 A 
ATOM      6  C   UNL     1       4.186   3.035  17.927  0.00  0.00    +0.000 A 
ATOM      7  C   UNL     1       3.312   2.870  19.080  0.00  0.00    +0.000 A 
ATOM      8  C   UNL     1       2.732   3.955  19.621  0.00  0.00    +0.000 A 
ATOM      9  N   UNL     1       3.014   5.210  19.089  0.00  0.00    +0.000 N 
ENDROOT
BRANCH   5  10
ATOM     10  C   UNL     1       5.316   4.336  16.247  0.00  0.00    +0.000 A 
ATOM     11  N   UNL     1       4.975   4.155  14.978  0.00  0.00    +0.000 NA
ATOM     12  C   UNL     1       6.156   4.310  14.301  0.00  0.00    +0.000 A 
ATOM     13  N   UNL     1       7.203   4.606  15.068  0.00  0.00    +0.000 NA
ATOM     14  O   UNL     1       6.664   4.632  16.345  0.00  0.00    +0.000 OA
BRANCH  12  15
ATOM     15  C   UNL     1       6.300   4.112  12.803  0.00  0.00    +0.000 C 
ATOM     16  C   UNL     1       6.331   2.685  12.287  0.00  0.00    +0.000 C 
ATOM     17  C   UNL     1       5.149   3.547  11.999  0.00  0.00    +0.000 C 
ENDBRANCH  12  15
ENDBRANCH   5  10
BRANCH   1  18
ATOM     18  C   UNL     1       1.558   6.808  20.435  0.00  0.00    +0.000 C 
BRANCH  18  20
ATOM     19  N   UNL     1       0.861   8.866  19.318  0.00  0.00    +0.000 N 
ATOM     20  C   UNL     1       1.367   8.314  20.488  0.00  0.00    +0.000 C 
ATOM     21  O   UNL     1       1.715   8.933  21.492  0.00  0.00    +0.000 OA
ATOM     22  H   UNL     1       0.634   8.219  18.567  0.00  0.00    +0.000 HD
BRANCH  19  26
ATOM     23  C   UNL     1       2.326  13.512  18.251  0.00  0.00    +0.000 C 
ATOM     24  C   UNL     1       1.250  12.510  18.539  0.00  0.00    +0.000 A 
ATOM     25  C   UNL     1       1.574  11.172  18.799  0.00  0.00    +0.000 A 
ATOM     26  C   UNL     1       0.581  10.227  19.073  0.00  0.00    +0.000 A 
ATOM     27  C   UNL     1      -0.758  10.643  19.120  0.00  0.00    +0.000 A 
ATOM     28  C   UNL     1      -1.093  11.973  18.845  0.00  0.00    +0.000 A 
ATOM     29  C   UNL     1      -0.091  12.891  18.553  0.00  0.00    +0.000 A 
ATOM     30  F   UNL     1      -0.429  14.160  18.285  0.00  0.00    +0.000 F 
ENDBRANCH  19  26
ENDBRANCH  18  20
ENDBRANCH   1  18
TORSDOF 5
ENDMDL
MODEL 7
REMARK VINA RESULT:      -8.1      0.970      1.701
REMARK  Name = 
REMARK  6 active torsions:
REMARK  status: ('A' for Active; 'I' for Inactive)
REMARK    1  A    between atoms: C_1  and  C_2
REMARK    2  A    between atoms: C_4  and  N_5
REMARK    3  A    between atoms: C_6  and  C_8
REMARK    4  A    between atoms: C_8  and  C_9
REMARK    5  A    between atoms: C_13  and  C_14
REMARK    6  A    between atoms: C_16  and  C_17
REMARK                            x       y       z     vdW  Elec       q    Type
REMARK                         _______ _______ _______ _____ _____    ______ ____
ROOT
ATOM      1  C   UNL     1       3.812   4.465  18.534  0.00  0.00    +0.000 A 
ATOM      2  N   UNL     1       3.019   3.925  17.629  0.00  0.00    +0.000 NA
ATOM      3  N   UNL     1       3.667   3.939  16.428  0.00  0.00    +0.000 NA
ATOM      4  C   UNL     1       4.839   4.514  16.598  0.00  0.00    +0.000 A 
ATOM      5  C   UNL     1       5.921   4.790  15.701  0.00  0.00    +0.000 A 
ATOM      6  C   UNL     1       6.973   5.502  16.172  0.00  0.00    +0.000 A 
ATOM      7  C   UNL     1       7.043   5.968  17.550  0.00  0.00    +0.000 A 
ATOM      8  C   UNL     1       6.048   5.652  18.397  0.00  0.00    +0.000 A 
ATOM      9  N   UNL     1       4.960   4.924  17.924  0.00  0.00    +0.000 N 
ENDROOT
BRANCH   5  10
ATOM     10  C   UNL     1       5.932   4.342  14.338  0.00  0.00    +0.000 A 
ATOM     11  N   UNL     1       4.903   3.901  13.626  0.00  0.00    +0.000 NA
ATOM     12  C   UNL     1       5.464   3.571  12.420  0.00  0.00    +0.000 A 
ATOM     13  N   UNL     1       6.771   3.809  12.330  0.00  0.00    +0.000 NA
ATOM     14  O   UNL     1       7.089   4.319  13.579  0.00  0.00    +0.000 OA
BRANCH  12  15
ATOM     15  C   UNL     1       4.692   2.934  11.279  0.00  0.00    +0.000 C 
ATOM     16  C   UNL     1       3.178   2.963  11.358  0.00  0.00    +0.000 C 
ATOM     17  C   UNL     1       3.878   3.797  10.340  0.00  0.00    +0.000 C 
ENDBRANCH  12  15
ENDBRANCH   5  10
BRANCH   1  18
ATOM     18  C   UNL     1       3.506   4.553  19.981  0.00  0.00    +0.000 C 
BRANCH  18  20
ATOM     19  N   UNL     1       2.608   6.817  20.176  0.00  0.00    +0.000 N 
ATOM     20  C   UNL     1       2.306   5.462  20.189  0.00  0.00    +0.000 C 
ATOM     21  O   UNL     1       1.203   4.965  20.409  0.00  0.00    +0.000 OA
ATOM     22  H   UNL     1       3.576   7.068  19.992  0.00  0.00    +0.000 HD
BRANCH  19  26
ATOM     23  C   UNL     1       0.095  10.737  18.392  0.00  0.00    +0.000 C 
ATOM     24  C   UNL     1       0.447   9.805  19.510  0.00  0.00    +0.000 A 
ATOM     25  C   UNL     1       1.365   8.765  19.307  0.00  0.00    +0.000 A 
ATOM     26  C   UNL     1       1.706   7.889  20.342  0.00  0.00    +0.000 A 
ATOM     27  C   UNL     1       1.140   8.083  21.610  0.00  0.00    +0.000 A 
ATOM     28  C   UNL     1       0.210   9.106  21.819  0.00  0.00    +0.000 A 
ATOM     29  C   UNL     1      -0.131   9.953  20.770  0.00  0.00    +0.000 A 
ATOM     30  F   UNL     1      -1.029  10.925  20.984  0.00  0.00    +0.000 F 
ENDBRANCH  19  26
ENDBRANCH  18  20
ENDBRANCH   1  18
TORSDOF 5
ENDMDL
MODEL 8
REMARK VINA RESULT:      -8.1      5.095     11.631
REMARK  Name = 
REMARK  6 active torsions:
REMARK  status: ('A' for Active; 'I' for Inactive)
REMARK    1  A    between atoms: C_1  and  C_2
REMARK    2  A    between atoms: C_4  and  N_5
REMARK    3  A    between atoms: C_6  and  C_8
REMARK    4  A    between atoms: C_8  and  C_9
REMARK    5  A    between atoms: C_13  and  C_14
REMARK    6  A    between atoms: C_16  and  C_17
REMARK                            x       y       z     vdW  Elec       q    Type
REMARK                         _______ _______ _______ _____ _____    ______ ____
ROOT
ATOM      1  C   UNL     1       0.675   9.998  22.079  0.00  0.00    +0.000 A 
ATOM      2  N   UNL     1       0.295   9.945  23.341  0.00  0.00    +0.000 NA
ATOM      3  N   UNL     1      -0.799  10.747  23.494  0.00  0.00    +0.000 NA
ATOM      4  C   UNL     1      -1.065  11.308  22.332  0.00  0.00    +0.000 A 
ATOM      5  C   UNL     1      -2.085  12.220  21.909  0.00  0.00    +0.000 A 
ATOM      6  C   UNL     1      -2.024  12.701  20.644  0.00  0.00    +0.000 A 
ATOM      7  C   UNL     1      -0.979  12.305  19.710  0.00  0.00    +0.000 A 
ATOM      8  C   UNL     1      -0.061  11.404  20.101  0.00  0.00    +0.000 A 
ATOM      9  N   UNL     1      -0.111  10.905  21.400  0.00  0.00    +0.000 N 
ENDROOT
BRANCH   5  10
ATOM     10  C   UNL     1      -3.157  12.635  22.766  0.00  0.00    +0.000 A 
ATOM     11  N   UNL     1      -4.437  12.294  22.680  0.00  0.00    +0.000 NA
ATOM     12  C   UNL     1      -5.026  12.991  23.702  0.00  0.00    +0.000 A 
ATOM     13  N   UNL     1      -4.186  13.719  24.436  0.00  0.00    +0.000 NA
ATOM     14  O   UNL     1      -2.958  13.490  23.836  0.00  0.00    +0.000 OA
BRANCH  12  15
ATOM     15  C   UNL     1      -6.520  12.994  23.967  0.00  0.00    +0.000 C 
ATOM     16  C   UNL     1      -7.368  13.966  23.169  0.00  0.00    +0.000 C 
ATOM     17  C   UNL     1      -7.479  12.504  22.905  0.00  0.00    +0.000 C 
ENDBRANCH  12  15
ENDBRANCH   5  10
BRANCH   1  18
ATOM     18  C   UNL     1       1.774   9.196  21.493  0.00  0.00    +0.000 C 
BRANCH  18  20
ATOM     19  N   UNL     1       2.196   6.985  20.543  0.00  0.00    +0.000 N 
ATOM     20  C   UNL     1       1.233   7.846  21.053  0.00  0.00    +0.000 C 
ATOM     21  O   UNL     1       0.024   7.631  21.111  0.00  0.00    +0.000 OA
ATOM     22  H   UNL     1       3.157   7.317  20.550  0.00  0.00    +0.000 HD
BRANCH  19  26
ATOM     23  C   UNL     1       2.627   3.520  16.983  0.00  0.00    +0.000 C 
ATOM     24  C   UNL     1       2.194   3.945  18.352  0.00  0.00    +0.000 A 
ATOM     25  C   UNL     1       2.396   5.263  18.785  0.00  0.00    +0.000 A 
ATOM     26  C   UNL     1       1.993   5.675  20.059  0.00  0.00    +0.000 A 
ATOM     27  C   UNL     1       1.348   4.755  20.898  0.00  0.00    +0.000 A 
ATOM     28  C   UNL     1       1.157   3.434  20.482  0.00  0.00    +0.000 A 
ATOM     29  C   UNL     1       1.585   3.039  19.219  0.00  0.00    +0.000 A 
ATOM     30  F   UNL     1       1.402   1.768  18.837  0.00  0.00    +0.000 F 
ENDBRANCH  19  26
ENDBRANCH  18  20
ENDBRANCH   1  18
TORSDOF 5
ENDMDL
MODEL 9
REMARK VINA RESULT:      -8.0      5.326     11.767
REMARK  Name = 
REMARK  6 active torsions:
REMARK  status: ('A' for Active; 'I' for Inactive)
REMARK    1  A    between atoms: C_1  and  C_2
REMARK    2  A    between atoms: C_4  and  N_5
REMARK    3  A    between atoms: C_6  and  C_8
REMARK    4  A    between atoms: C_8  and  C_9
REMARK    5  A    between atoms: C_13  and  C_14
REMARK    6  A    between atoms: C_16  and  C_17
REMARK                            x       y       z     vdW  Elec       q    Type
REMARK                         _______ _______ _______ _____ _____    ______ ____
ROOT
ATOM      1  C   UNL     1       0.391  10.354  22.144  0.00  0.00    +0.000 A 
ATOM      2  N   UNL     1      -0.153  10.379  23.345  0.00  0.00    +0.000 NA
ATOM      3  N   UNL     1      -1.274  11.155  23.293  0.00  0.00    +0.000 NA
ATOM      4  C   UNL     1      -1.393  11.625  22.068  0.00  0.00    +0.000 A 
ATOM      5  C   UNL     1      -2.366  12.475  21.449  0.00  0.00    +0.000 A 
ATOM      6  C   UNL     1      -2.146  12.867  20.170  0.00  0.00    +0.000 A 
ATOM      7  C   UNL     1      -0.977  12.439  19.415  0.00  0.00    +0.000 A 
ATOM      8  C   UNL     1      -0.101  11.595  19.989  0.00  0.00    +0.000 A 
ATOM      9  N   UNL     1      -0.315  11.187  21.303  0.00  0.00    +0.000 N 
ENDROOT
BRANCH   5  10
ATOM     10  C   UNL     1      -3.552  12.916  22.123  0.00  0.00    +0.000 A 
ATOM     11  N   UNL     1      -4.040  14.149  22.173  0.00  0.00    +0.000 NA
ATOM     12  C   UNL     1      -5.148  14.024  22.969  0.00  0.00    +0.000 A 
ATOM     13  N   UNL     1      -5.396  12.785  23.391  0.00  0.00    +0.000 NA
ATOM     14  O   UNL     1      -4.359  12.049  22.838  0.00  0.00    +0.000 OA
BRANCH  12  15
ATOM     15  C   UNL     1      -6.013  15.196  23.397  0.00  0.00    +0.000 C 
ATOM     16  C   UNL     1      -7.163  15.584  22.487  0.00  0.00    +0.000 C 
ATOM     17  C   UNL     1      -7.449  14.966  23.813  0.00  0.00    +0.000 C 
ENDBRANCH  12  15
ENDBRANCH   5  10
BRANCH   1  18
ATOM     18  C   UNL     1       1.575   9.546  21.769  0.00  0.00    +0.000 C 
BRANCH  18  20
ATOM     19  N   UNL     1       2.137   7.465  20.619  0.00  0.00    +0.000 N 
ATOM     20  C   UNL     1       1.117   8.225  21.176  0.00  0.00    +0.000 C 
ATOM     21  O   UNL     1      -0.082   7.950  21.167  0.00  0.00    +0.000 OA
ATOM     22  H   UNL     1       3.080   7.839  20.695  0.00  0.00    +0.000 HD
BRANCH  19  26
ATOM     23  C   UNL     1       1.321   2.550  20.823  0.00  0.00    +0.000 C 
ATOM     24  C   UNL     1       1.608   3.800  20.049  0.00  0.00    +0.000 A 
ATOM     25  C   UNL     1       1.743   5.030  20.708  0.00  0.00    +0.000 A 
ATOM     26  C   UNL     1       2.015   6.204  20.000  0.00  0.00    +0.000 A 
ATOM     27  C   UNL     1       2.186   6.134  18.609  0.00  0.00    +0.000 A 
ATOM     28  C   UNL     1       2.036   4.914  17.941  0.00  0.00    +0.000 A 
ATOM     29  C   UNL     1       1.745   3.762  18.662  0.00  0.00    +0.000 A 
ATOM     30  F   UNL     1       1.597   2.603  18.007  0.00  0.00    +0.000 F 
ENDBRANCH  19  26
ENDBRANCH  18  20
ENDBRANCH   1  18
TORSDOF 5
ENDMDL
