MODEL 1
REMARK VINA RESULT:      -7.6      0.000      0.000
REMARK  Name = 
REMARK  7 active torsions:
REMARK  status: ('A' for Active; 'I' for Inactive)
REMARK    1  A    between atoms: C_1  and  C_2
REMARK    2  A    between atoms: C_2  and  O_3
REMARK    3  A    between atoms: O_3  and  C_4
REMARK    4  A    between atoms: C_7  and  C_8
REMARK    5  A    between atoms: N_10  and  C_11
REMARK    6  A    between atoms: N_19  and  C_20
REMARK    7  A    between atoms: C_20  and  C_21
REMARK                            x       y       z     vdW  Elec       q    Type
REMARK                         _______ _______ _______ _____ _____    ______ ____
ROOT
ATOM      1  C   UNL     1       2.960   5.883  17.560  0.00  0.00    +0.000 C 
ATOM      2  C   UNL     1       4.168   6.582  16.923  0.00  0.00    +0.000 C 
ATOM      3  C   UNL     1       5.494   5.813  16.969  0.00  0.00    +0.000 C 
ATOM      4  C   UNL     1       6.277   6.070  18.265  0.00  0.00    +0.000 C 
ATOM      5  C   UNL     1       5.801   5.290  19.483  0.00  0.00    +0.000 C 
ATOM      6  C   UNL     1       5.234   3.915  19.155  0.00  0.00    +0.000 C 
ATOM      7  C   UNL     1       4.498   3.803  17.807  0.00  0.00    +0.000 C 
ATOM      8  C   UNL     1       3.081   4.384  17.847  0.00  0.00    +0.000 C 
ATOM      9  N   UNL     1       5.329   4.369  16.735  0.00  0.00    +0.000 NA
ENDROOT
BRANCH   1  12
ATOM     10  C   UNL     1       1.903   7.851  18.552  0.00  0.00    +0.000 C 
ATOM     11  O   UNL     1       1.782   8.377  17.448  0.00  0.00    +0.000 OA
ATOM     12  N   UNL     1       2.478   6.611  18.727  0.00  0.00    +0.000 N 
ATOM     13  H   UNL     1       2.740   6.291  19.647  0.00  0.00    +0.000 HD
BRANCH  10  17
ATOM     14  C   UNL     1       0.501  10.118  21.915  0.00  0.00    +0.000 A 
ATOM     15  C   UNL     1       0.319  10.554  20.605  0.00  0.00    +0.000 A 
ATOM     16  C   UNL     1       0.795   9.798  19.539  0.00  0.00    +0.000 A 
ATOM     17  C   UNL     1       1.449   8.585  19.760  0.00  0.00    +0.000 A 
ATOM     18  C   UNL     1       1.614   8.127  21.072  0.00  0.00    +0.000 A 
ATOM     19  C   UNL     1       1.144   8.903  22.149  0.00  0.00    +0.000 A 
BRANCH  14  20
ATOM     20  O   UNL     1       0.080  10.797  23.032  0.00  0.00    +0.000 OA
BRANCH  20  22
ATOM     21  C   UNL     1      -1.299  12.772  23.053  0.00  0.00    +0.000 C 
ATOM     22  C   UNL     1      -1.269  11.260  22.985  0.00  0.00    +0.000 C 
ENDBRANCH  20  22
ENDBRANCH  14  20
ENDBRANCH  10  17
ENDBRANCH   1  12
BRANCH   9  23
ATOM     23  C   UNL     1       4.822   4.111  15.371  0.00  0.00    +0.000 C 
BRANCH  23  24
ATOM     24  C   UNL     1       5.852   4.223  14.268  0.00  0.00    +0.000 A 
ATOM     25  C   UNL     1       5.680   3.512  13.068  0.00  0.00    +0.000 A 
ATOM     26  C   UNL     1       6.599   3.643  12.027  0.00  0.00    +0.000 A 
ATOM     27  C   UNL     1       7.695   4.489  12.173  0.00  0.00    +0.000 A 
ATOM     28  C   UNL     1       7.880   5.195  13.363  0.00  0.00    +0.000 A 
ATOM     29  C   UNL     1       6.965   5.061  14.405  0.00  0.00    +0.000 A 
ENDBRANCH  23  24
ENDBRANCH   9  23
TORSDOF 6
ENDMDL
MODEL 2
REMARK VINA RESULT:      -7.6      1.170      1.410
REMARK  Name = 
REMARK  7 active torsions:
REMARK  status: ('A' for Active; 'I' for Inactive)
REMARK    1  A    between atoms: C_1  and  C_2
REMARK    2  A    between atoms: C_2  and  O_3
REMARK    3  A    between atoms: O_3  and  C_4
REMARK    4  A    between atoms: C_7  and  C_8
REMARK    5  A    between atoms: N_10  and  C_11
REMARK    6  A    between atoms: N_19  and  C_20
REMARK    7  A    between atoms: C_20  and  C_21
REMARK                            x       y       z     vdW  Elec       q    Type
REMARK                         _______ _______ _______ _____ _____    ______ ____
ROOT
ATOM      1  C   UNL     1       4.287   5.859  17.476  0.00  0.00    +0.000 C 
ATOM      2  C   UNL     1       5.057   6.485  16.307  0.00  0.00    +0.000 C 
ATOM      3  C   UNL     1       6.562   6.195  16.257  0.00  0.00    +0.000 C 
ATOM      4  C   UNL     1       7.381   7.201  17.079  0.00  0.00    +0.000 C 
ATOM      5  C   UNL     1       7.401   6.957  18.582  0.00  0.00    +0.000 C 
ATOM      6  C   UNL     1       7.322   5.487  18.972  0.00  0.00    +0.000 C 
ATOM      7  C   UNL     1       6.487   4.594  18.036  0.00  0.00    +0.000 C 
ATOM      8  C   UNL     1       4.978   4.739  18.259  0.00  0.00    +0.000 C 
ATOM      9  N   UNL     1       6.893   4.812  16.641  0.00  0.00    +0.000 NA
ENDROOT
BRANCH   1  12
ATOM     10  C   UNL     1       2.424   6.820  18.733  0.00  0.00    +0.000 C 
ATOM     11  O   UNL     1       1.664   5.942  18.332  0.00  0.00    +0.000 OA
ATOM     12  N   UNL     1       3.752   6.879  18.369  0.00  0.00    +0.000 N 
ATOM     13  H   UNL     1       4.299   7.708  18.550  0.00  0.00    +0.000 HD
BRANCH  10  17
ATOM     14  C   UNL     1       0.872  10.035  21.114  0.00  0.00    +0.000 A 
ATOM     15  C   UNL     1       1.067  10.163  19.742  0.00  0.00    +0.000 A 
ATOM     16  C   UNL     1       1.580   9.103  19.002  0.00  0.00    +0.000 A 
ATOM     17  C   UNL     1       1.897   7.890  19.617  0.00  0.00    +0.000 A 
ATOM     18  C   UNL     1       1.681   7.745  20.992  0.00  0.00    +0.000 A 
ATOM     19  C   UNL     1       1.174   8.825  21.740  0.00  0.00    +0.000 A 
BRANCH  14  20
ATOM     20  O   UNL     1       0.383  11.024  21.932  0.00  0.00    +0.000 OA
BRANCH  20  22
ATOM     21  C   UNL     1      -1.546  11.918  23.066  0.00  0.00    +0.000 C 
ATOM     22  C   UNL     1      -0.781  10.671  22.678  0.00  0.00    +0.000 C 
ENDBRANCH  20  22
ENDBRANCH  14  20
ENDBRANCH  10  17
ENDBRANCH   1  12
BRANCH   9  23
ATOM     23  C   UNL     1       6.318   3.848  15.681  0.00  0.00    +0.000 C 
BRANCH  23  24
ATOM     24  C   UNL     1       6.679   4.088  14.230  0.00  0.00    +0.000 A 
ATOM     25  C   UNL     1       6.039   3.358  13.214  0.00  0.00    +0.000 A 
ATOM     26  C   UNL     1       6.330   3.604  11.873  0.00  0.00    +0.000 A 
ATOM     27  C   UNL     1       7.260   4.584  11.533  0.00  0.00    +0.000 A 
ATOM     28  C   UNL     1       7.908   5.309  12.534  0.00  0.00    +0.000 A 
ATOM     29  C   UNL     1       7.621   5.061  13.876  0.00  0.00    +0.000 A 
ENDBRANCH  23  24
ENDBRANCH   9  23
TORSDOF 6
ENDMDL
MODEL 3
REMARK VINA RESULT:      -7.4      2.365      3.314
REMARK  Name = 
REMARK  7 active torsions:
REMARK  status: ('A' for Active; 'I' for Inactive)
REMARK    1  A    between atoms: C_1  and  C_2
REMARK    2  A    between atoms: C_2  and  O_3
REMARK    3  A    between atoms: O_3  and  C_4
REMARK    4  A    between atoms: C_7  and  C_8
REMARK    5  A    between atoms: N_10  and  C_11
REMARK    6  A    between atoms: N_19  and  C_20
REMARK    7  A    between atoms: C_20  and  C_21
REMARK                            x       y       z     vdW  Elec       q    Type
REMARK                         _______ _______ _______ _____ _____    ______ ____
ROOT
ATOM      1  C   UNL     1       2.652   6.819  18.709  0.00  0.00    +0.000 C 
ATOM      2  C   UNL     1       3.877   6.182  19.376  0.00  0.00    +0.000 C 
ATOM      3  C   UNL     1       3.949   4.651  19.334  0.00  0.00    +0.000 C 
ATOM      4  C   UNL     1       3.212   3.996  20.511  0.00  0.00    +0.000 C 
ATOM      5  C   UNL     1       1.698   3.912  20.370  0.00  0.00    +0.000 C 
ATOM      6  C   UNL     1       1.218   3.740  18.936  0.00  0.00    +0.000 C 
ATOM      7  C   UNL     1       2.075   4.432  17.860  0.00  0.00    +0.000 C 
ATOM      8  C   UNL     1       1.821   5.940  17.769  0.00  0.00    +0.000 C 
ATOM      9  N   UNL     1       3.491   4.090  18.051  0.00  0.00    +0.000 NA
ENDROOT
BRANCH   1  12
ATOM     10  C   UNL     1       1.454   8.813  19.459  0.00  0.00    +0.000 C 
ATOM     11  O   UNL     1       1.823   9.441  18.469  0.00  0.00    +0.000 OA
ATOM     12  N   UNL     1       1.808   7.500  19.682  0.00  0.00    +0.000 N 
ATOM     13  H   UNL     1       1.658   7.074  20.585  0.00  0.00    +0.000 HD
BRANCH  10  17
ATOM     14  C   UNL     1      -0.891  10.631  22.560  0.00  0.00    +0.000 A 
ATOM     15  C   UNL     1      -0.190   9.445  22.765  0.00  0.00    +0.000 A 
ATOM     16  C   UNL     1       0.553   8.879  21.734  0.00  0.00    +0.000 A 
ATOM     17  C   UNL     1       0.621   9.494  20.483  0.00  0.00    +0.000 A 
ATOM     18  C   UNL     1      -0.059  10.698  20.276  0.00  0.00    +0.000 A 
ATOM     19  C   UNL     1      -0.822  11.260  21.317  0.00  0.00    +0.000 A 
BRANCH  14  20
ATOM     20  O   UNL     1      -1.660  11.260  23.507  0.00  0.00    +0.000 OA
BRANCH  20  22
ATOM     21  C   UNL     1      -3.737  12.395  23.958  0.00  0.00    +0.000 C 
ATOM     22  C   UNL     1      -2.582  12.221  22.994  0.00  0.00    +0.000 C 
ENDBRANCH  20  22
ENDBRANCH  14  20
ENDBRANCH  10  17
ENDBRANCH   1  12
BRANCH   9  23
ATOM     23  C   UNL     1       4.375   4.513  16.946  0.00  0.00    +0.000 C 
BRANCH  23  24
ATOM     24  C   UNL     1       5.634   5.240  17.369  0.00  0.00    +0.000 A 
ATOM     25  C   UNL     1       5.847   6.571  16.970  0.00  0.00    +0.000 A 
ATOM     26  C   UNL     1       6.980   7.265  17.392  0.00  0.00    +0.000 A 
ATOM     27  C   UNL     1       7.909   6.640  18.220  0.00  0.00    +0.000 A 
ATOM     28  C   UNL     1       7.711   5.316  18.616  0.00  0.00    +0.000 A 
ATOM     29  C   UNL     1       6.581   4.620  18.191  0.00  0.00    +0.000 A 
ENDBRANCH  23  24
ENDBRANCH   9  23
TORSDOF 6
ENDMDL
MODEL 4
REMARK VINA RESULT:      -7.3      2.347      3.060
REMARK  Name = 
REMARK  7 active torsions:
REMARK  status: ('A' for Active; 'I' for Inactive)
REMARK    1  A    between atoms: C_1  and  C_2
REMARK    2  A    between atoms: C_2  and  O_3
REMARK    3  A    between atoms: O_3  and  C_4
REMARK    4  A    between atoms: C_7  and  C_8
REMARK    5  A    between atoms: N_10  and  C_11
REMARK    6  A    between atoms: N_19  and  C_20
REMARK    7  A    between atoms: C_20  and  C_21
REMARK                            x       y       z     vdW  Elec       q    Type
REMARK                         _______ _______ _______ _____ _____    ______ ____
ROOT
ATOM      1  C   UNL     1       2.673   6.481  18.790  0.00  0.00    +0.000 C 
ATOM      2  C   UNL     1       3.903   5.793  19.395  0.00  0.00    +0.000 C 
ATOM      3  C   UNL     1       3.911   4.261  19.348  0.00  0.00    +0.000 C 
ATOM      4  C   UNL     1       3.207   3.633  20.560  0.00  0.00    +0.000 C 
ATOM      5  C   UNL     1       1.686   3.611  20.495  0.00  0.00    +0.000 C 
ATOM      6  C   UNL     1       1.128   3.463  19.085  0.00  0.00    +0.000 C 
ATOM      7  C   UNL     1       1.958   4.122  17.969  0.00  0.00    +0.000 C 
ATOM      8  C   UNL     1       1.762   5.640  17.892  0.00  0.00    +0.000 C 
ATOM      9  N   UNL     1       3.367   3.723  18.090  0.00  0.00    +0.000 NA
ENDROOT
BRANCH   1  12
ATOM     10  C   UNL     1       1.580   8.515  19.591  0.00  0.00    +0.000 C 
ATOM     11  O   UNL     1       1.911   9.126  18.578  0.00  0.00    +0.000 OA
ATOM     12  N   UNL     1       1.908   7.194  19.805  0.00  0.00    +0.000 N 
ATOM     13  H   UNL     1       1.797   6.778  20.717  0.00  0.00    +0.000 HD
BRANCH  10  17
ATOM     14  C   UNL     1      -0.679  10.698  22.515  0.00  0.00    +0.000 A 
ATOM     15  C   UNL     1      -0.684  11.050  21.167  0.00  0.00    +0.000 A 
ATOM     16  C   UNL     1       0.067  10.325  20.248  0.00  0.00    +0.000 A 
ATOM     17  C   UNL     1       0.828   9.227  20.656  0.00  0.00    +0.000 A 
ATOM     18  C   UNL     1       0.819   8.853  22.003  0.00  0.00    +0.000 A 
ATOM     19  C   UNL     1       0.069   9.598  22.933  0.00  0.00    +0.000 A 
BRANCH  14  20
ATOM     20  O   UNL     1      -1.376  11.356  23.498  0.00  0.00    +0.000 OA
BRANCH  20  22
ATOM     21  C   UNL     1      -1.436  13.765  23.542  0.00  0.00    +0.000 C 
ATOM     22  C   UNL     1      -2.110  12.498  23.058  0.00  0.00    +0.000 C 
ENDBRANCH  20  22
ENDBRANCH  14  20
ENDBRANCH  10  17
ENDBRANCH   1  12
BRANCH   9  23
ATOM     23  C   UNL     1       4.212   4.112  16.942  0.00  0.00    +0.000 C 
BRANCH  23  24
ATOM     24  C   UNL     1       5.419   4.959  17.287  0.00  0.00    +0.000 A 
ATOM     25  C   UNL     1       6.498   4.395  17.988  0.00  0.00    +0.000 A 
ATOM     26  C   UNL     1       7.635   5.153  18.270  0.00  0.00    +0.000 A 
ATOM     27  C   UNL     1       7.705   6.479  17.851  0.00  0.00    +0.000 A 
ATOM     28  C   UNL     1       6.636   7.051  17.161  0.00  0.00    +0.000 A 
ATOM     29  C   UNL     1       5.498   6.296  16.882  0.00  0.00    +0.000 A 
ENDBRANCH  23  24
ENDBRANCH   9  23
TORSDOF 6
ENDMDL
MODEL 5
REMARK VINA RESULT:      -7.3      0.865      1.639
REMARK  Name = 
REMARK  7 active torsions:
REMARK  status: ('A' for Active; 'I' for Inactive)
REMARK    1  A    between atoms: C_1  and  C_2
REMARK    2  A    between atoms: C_2  and  O_3
REMARK    3  A    between atoms: O_3  and  C_4
REMARK    4  A    between atoms: C_7  and  C_8
REMARK    5  A    between atoms: N_10  and  C_11
REMARK    6  A    between atoms: N_19  and  C_20
REMARK    7  A    between atoms: C_20  and  C_21
REMARK                            x       y       z     vdW  Elec       q    Type
REMARK                         _______ _______ _______ _____ _____    ______ ____
ROOT
ATOM      1  C   UNL     1       3.867   5.710  17.704  0.00  0.00    +0.000 C 
ATOM      2  C   UNL     1       4.618   6.438  16.581  0.00  0.00    +0.000 C 
ATOM      3  C   UNL     1       6.116   6.136  16.466  0.00  0.00    +0.000 C 
ATOM      4  C   UNL     1       6.969   7.048  17.360  0.00  0.00    +0.000 C 
ATOM      5  C   UNL     1       7.022   6.659  18.831  0.00  0.00    +0.000 C 
ATOM      6  C   UNL     1       6.931   5.159  19.079  0.00  0.00    +0.000 C 
ATOM      7  C   UNL     1       6.061   4.371  18.083  0.00  0.00    +0.000 C 
ATOM      8  C   UNL     1       4.560   4.511  18.357  0.00  0.00    +0.000 C 
ATOM      9  N   UNL     1       6.437   4.719  16.706  0.00  0.00    +0.000 NA
ENDROOT
BRANCH   1  12
ATOM     10  C   UNL     1       2.174   7.293  18.478  0.00  0.00    +0.000 C 
ATOM     11  O   UNL     1       1.507   7.121  17.461  0.00  0.00    +0.000 OA
ATOM     12  N   UNL     1       3.368   6.645  18.705  0.00  0.00    +0.000 N 
ATOM     13  H   UNL     1       3.985   6.946  19.445  0.00  0.00    +0.000 HD
BRANCH  10  17
ATOM     14  C   UNL     1       0.869   9.957  21.580  0.00  0.00    +0.000 A 
ATOM     15  C   UNL     1       1.312   8.666  21.856  0.00  0.00    +0.000 A 
ATOM     16  C   UNL     1       1.720   7.827  20.824  0.00  0.00    +0.000 A 
ATOM     17  C   UNL     1       1.704   8.265  19.499  0.00  0.00    +0.000 A 
ATOM     18  C   UNL     1       1.284   9.568  19.216  0.00  0.00    +0.000 A 
ATOM     19  C   UNL     1       0.858  10.411  20.261  0.00  0.00    +0.000 A 
BRANCH  14  20
ATOM     20  O   UNL     1       0.436  10.855  22.524  0.00  0.00    +0.000 OA
BRANCH  20  22
ATOM     21  C   UNL     1      -1.749  11.803  22.893  0.00  0.00    +0.000 C 
ATOM     22  C   UNL     1      -0.492  11.830  22.049  0.00  0.00    +0.000 C 
ENDBRANCH  20  22
ENDBRANCH  14  20
ENDBRANCH  10  17
ENDBRANCH   1  12
BRANCH   9  23
ATOM     23  C   UNL     1       5.826   3.859  15.672  0.00  0.00    +0.000 C 
BRANCH  23  24
ATOM     24  C   UNL     1       6.328   4.088  14.262  0.00  0.00    +0.000 A 
ATOM     25  C   UNL     1       7.352   5.019  14.021  0.00  0.00    +0.000 A 
ATOM     26  C   UNL     1       7.854   5.204  12.733  0.00  0.00    +0.000 A 
ATOM     27  C   UNL     1       7.342   4.457  11.675  0.00  0.00    +0.000 A 
ATOM     28  C   UNL     1       6.319   3.535  11.902  0.00  0.00    +0.000 A 
ATOM     29  C   UNL     1       5.813   3.352  13.188  0.00  0.00    +0.000 A 
ENDBRANCH  23  24
ENDBRANCH   9  23
TORSDOF 6
ENDMDL
MODEL 6
REMARK VINA RESULT:      -7.2      2.920     10.623
REMARK  Name = 
REMARK  7 active torsions:
REMARK  status: ('A' for Active; 'I' for Inactive)
REMARK    1  A    between atoms: C_1  and  C_2
REMARK    2  A    between atoms: C_2  and  O_3
REMARK    3  A    between atoms: O_3  and  C_4
REMARK    4  A    between atoms: C_7  and  C_8
REMARK    5  A    between atoms: N_10  and  C_11
REMARK    6  A    between atoms: N_19  and  C_20
REMARK    7  A    between atoms: C_20  and  C_21
REMARK                            x       y       z     vdW  Elec       q    Type
REMARK                         _______ _______ _______ _____ _____    ______ ____
ROOT
ATOM      1  C   UNL     1       0.452   9.349  20.533  0.00  0.00    +0.000 C 
ATOM      2  C   UNL     1       1.084  10.271  21.583  0.00  0.00    +0.000 C 
ATOM      3  C   UNL     1       0.741  11.761  21.467  0.00  0.00    +0.000 C 
ATOM      4  C   UNL     1       1.693  12.510  20.523  0.00  0.00    +0.000 C 
ATOM      5  C   UNL     1       1.404  12.345  19.037  0.00  0.00    +0.000 C 
ATOM      6  C   UNL     1      -0.073  12.174  18.708  0.00  0.00    +0.000 C 
ATOM      7  C   UNL     1      -0.908  11.426  19.763  0.00  0.00    +0.000 C 
ATOM      8  C   UNL     1      -0.715   9.907  19.713  0.00  0.00    +0.000 C 
ATOM      9  N   UNL     1      -0.663  12.000  21.094  0.00  0.00    +0.000 NA
ENDROOT
BRANCH   1  12
ATOM     10  C   UNL     1       1.865   7.452  19.921  0.00  0.00    +0.000 C 
ATOM     11  O   UNL     1       1.408   6.778  20.841  0.00  0.00    +0.000 OA
ATOM     12  N   UNL     1       1.464   8.746  19.674  0.00  0.00    +0.000 N 
ATOM     13  H   UNL     1       1.988   9.336  19.045  0.00  0.00    +0.000 HD
BRANCH  10  17
ATOM     14  C   UNL     1       4.922   5.607  17.539  0.00  0.00    +0.000 A 
ATOM     15  C   UNL     1       4.462   5.033  18.721  0.00  0.00    +0.000 A 
ATOM     16  C   UNL     1       3.476   5.662  19.473  0.00  0.00    +0.000 A 
ATOM     17  C   UNL     1       2.921   6.873  19.051  0.00  0.00    +0.000 A 
ATOM     18  C   UNL     1       3.360   7.444  17.853  0.00  0.00    +0.000 A 
ATOM     19  C   UNL     1       4.369   6.811  17.102  0.00  0.00    +0.000 A 
BRANCH  14  20
ATOM     20  O   UNL     1       5.898   5.071  16.735  0.00  0.00    +0.000 OA
BRANCH  20  22
ATOM     21  C   UNL     1       7.644   6.101  18.039  0.00  0.00    +0.000 C 
ATOM     22  C   UNL     1       7.147   4.830  17.382  0.00  0.00    +0.000 C 
ENDBRANCH  20  22
ENDBRANCH  14  20
ENDBRANCH  10  17
ENDBRANCH   1  12
BRANCH   9  23
ATOM     23  C   UNL     1      -1.578  11.511  22.146  0.00  0.00    +0.000 C 
BRANCH  23  24
ATOM     24  C   UNL     1      -2.090  12.569  23.099  0.00  0.00    +0.000 A 
ATOM     25  C   UNL     1      -1.314  13.709  23.370  0.00  0.00    +0.000 A 
ATOM     26  C   UNL     1      -1.797  14.712  24.210  0.00  0.00    +0.000 A 
ATOM     27  C   UNL     1      -3.060  14.589  24.783  0.00  0.00    +0.000 A 
ATOM     28  C   UNL     1      -3.837  13.458  24.526  0.00  0.00    +0.000 A 
ATOM     29  C   UNL     1      -3.354  12.453  23.690  0.00  0.00    +0.000 A 
ENDBRANCH  23  24
ENDBRANCH   9  23
TORSDOF 6
ENDMDL
MODEL 7
REMARK VINA RESULT:      -7.2      2.494     10.743
REMARK  Name = 
REMARK  7 active torsions:
REMARK  status: ('A' for Active; 'I' for Inactive)
REMARK    1  A    between atoms: C_1  and  C_2
REMARK    2  A    between atoms: C_2  and  O_3
REMARK    3  A    between atoms: O_3  and  C_4
REMARK    4  A    between atoms: C_7  and  C_8
REMARK    5  A    between atoms: N_10  and  C_11
REMARK    6  A    between atoms: N_19  and  C_20
REMARK    7  A    between atoms: C_20  and  C_21
REMARK                            x       y       z     vdW  Elec       q    Type
REMARK                         _______ _______ _______ _____ _____    ______ ____
ROOT
ATOM      1  C   UNL     1       0.295   9.529  20.391  0.00  0.00    +0.000 C 
ATOM      2  C   UNL     1       0.940  10.465  21.422  0.00  0.00    +0.000 C 
ATOM      3  C   UNL     1       0.607  11.954  21.281  0.00  0.00    +0.000 C 
ATOM      4  C   UNL     1       1.558  12.681  20.318  0.00  0.00    +0.000 C 
ATOM      5  C   UNL     1       1.258  12.492  18.837  0.00  0.00    +0.000 C 
ATOM      6  C   UNL     1      -0.221  12.324  18.520  0.00  0.00    +0.000 C 
ATOM      7  C   UNL     1      -1.055  11.600  19.593  0.00  0.00    +0.000 C 
ATOM      8  C   UNL     1      -0.873  10.079  19.569  0.00  0.00    +0.000 C 
ATOM      9  N   UNL     1      -0.798  12.196  20.912  0.00  0.00    +0.000 NA
ENDROOT
BRANCH   1  12
ATOM     10  C   UNL     1       1.777   7.656  19.871  0.00  0.00    +0.000 C 
ATOM     11  O   UNL     1       1.397   7.043  20.866  0.00  0.00    +0.000 OA
ATOM     12  N   UNL     1       1.298   8.904  19.538  0.00  0.00    +0.000 N 
ATOM     13  H   UNL     1       1.762   9.462  18.837  0.00  0.00    +0.000 HD
BRANCH  10  17
ATOM     14  C   UNL     1       4.810   5.758  17.500  0.00  0.00    +0.000 A 
ATOM     15  C   UNL     1       4.396   5.236  18.723  0.00  0.00    +0.000 A 
ATOM     16  C   UNL     1       3.417   5.882  19.470  0.00  0.00    +0.000 A 
ATOM     17  C   UNL     1       2.822   7.056  19.003  0.00  0.00    +0.000 A 
ATOM     18  C   UNL     1       3.214   7.574  17.764  0.00  0.00    +0.000 A 
ATOM     19  C   UNL     1       4.216   6.925  17.018  0.00  0.00    +0.000 A 
BRANCH  14  20
ATOM     20  O   UNL     1       5.775   5.203  16.697  0.00  0.00    +0.000 OA
BRANCH  20  22
ATOM     21  C   UNL     1       6.111   3.982  14.647  0.00  0.00    +0.000 C 
ATOM     22  C   UNL     1       5.359   4.055  15.959  0.00  0.00    +0.000 C 
ENDBRANCH  20  22
ENDBRANCH  14  20
ENDBRANCH  10  17
ENDBRANCH   1  12
BRANCH   9  23
ATOM     23  C   UNL     1      -1.710  11.732  21.978  0.00  0.00    +0.000 C 
BRANCH  23  24
ATOM     24  C   UNL     1      -2.214  12.812  22.912  0.00  0.00    +0.000 A 
ATOM     25  C   UNL     1      -3.571  12.856  23.272  0.00  0.00    +0.000 A 
ATOM     26  C   UNL     1      -4.037  13.817  24.168  0.00  0.00    +0.000 A 
ATOM     27  C   UNL     1      -3.151  14.741  24.717  0.00  0.00    +0.000 A 
ATOM     28  C   UNL     1      -1.802  14.711  24.361  0.00  0.00    +0.000 A 
ATOM     29  C   UNL     1      -1.336  13.753  23.462  0.00  0.00    +0.000 A 
ENDBRANCH  23  24
ENDBRANCH   9  23
TORSDOF 6
ENDMDL
MODEL 8
REMARK VINA RESULT:      -7.1      1.998      3.185
REMARK  Name = 
REMARK  7 active torsions:
REMARK  status: ('A' for Active; 'I' for Inactive)
REMARK    1  A    between atoms: C_1  and  C_2
REMARK    2  A    between atoms: C_2  and  O_3
REMARK    3  A    between atoms: O_3  and  C_4
REMARK    4  A    between atoms: C_7  and  C_8
REMARK    5  A    between atoms: N_10  and  C_11
REMARK    6  A    between atoms: N_19  and  C_20
REMARK    7  A    between atoms: C_20  and  C_21
REMARK                            x       y       z     vdW  Elec       q    Type
REMARK                         _______ _______ _______ _____ _____    ______ ____
ROOT
ATOM      1  C   UNL     1       3.176   6.749  18.888  0.00  0.00    +0.000 C 
ATOM      2  C   UNL     1       3.488   5.875  20.109  0.00  0.00    +0.000 C 
ATOM      3  C   UNL     1       3.372   4.360  19.902  0.00  0.00    +0.000 C 
ATOM      4  C   UNL     1       1.946   3.842  20.141  0.00  0.00    +0.000 C 
ATOM      5  C   UNL     1       0.971   4.057  18.992  0.00  0.00    +0.000 C 
ATOM      6  C   UNL     1       1.615   4.006  17.614  0.00  0.00    +0.000 C 
ATOM      7  C   UNL     1       3.059   4.535  17.534  0.00  0.00    +0.000 C 
ATOM      8  C   UNL     1       3.138   6.065  17.519  0.00  0.00    +0.000 C 
ATOM      9  N   UNL     1       3.876   3.920  18.590  0.00  0.00    +0.000 NA
ENDROOT
BRANCH   1  12
ATOM     10  C   UNL     1       1.866   8.762  18.435  0.00  0.00    +0.000 C 
ATOM     11  O   UNL     1       2.721   9.176  17.655  0.00  0.00    +0.000 OA
ATOM     12  N   UNL     1       1.989   7.566  19.107  0.00  0.00    +0.000 N 
ATOM     13  H   UNL     1       1.377   7.345  19.879  0.00  0.00    +0.000 HD
BRANCH  10  17
ATOM     14  C   UNL     1      -1.693  11.088  19.016  0.00  0.00    +0.000 A 
ATOM     15  C   UNL     1      -1.470  10.363  17.849  0.00  0.00    +0.000 A 
ATOM     16  C   UNL     1      -0.301   9.626  17.690  0.00  0.00    +0.000 A 
ATOM     17  C   UNL     1       0.663   9.591  18.701  0.00  0.00    +0.000 A 
ATOM     18  C   UNL     1       0.435  10.297  19.886  0.00  0.00    +0.000 A 
ATOM     19  C   UNL     1      -0.744  11.053  20.037  0.00  0.00    +0.000 A 
BRANCH  14  20
ATOM     20  O   UNL     1      -2.807  11.853  19.262  0.00  0.00    +0.000 OA
BRANCH  20  22
ATOM     21  C   UNL     1      -3.998  12.847  21.106  0.00  0.00    +0.000 C 
ATOM     22  C   UNL     1      -2.685  12.761  20.356  0.00  0.00    +0.000 C 
ENDBRANCH  20  22
ENDBRANCH  14  20
ENDBRANCH  10  17
ENDBRANCH   1  12
BRANCH   9  23
ATOM     23  C   UNL     1       5.325   4.181  18.468  0.00  0.00    +0.000 C 
BRANCH  23  24
ATOM     24  C   UNL     1       5.822   4.418  17.058  0.00  0.00    +0.000 A 
ATOM     25  C   UNL     1       6.657   5.513  16.780  0.00  0.00    +0.000 A 
ATOM     26  C   UNL     1       7.159   5.714  15.494  0.00  0.00    +0.000 A 
ATOM     27  C   UNL     1       6.835   4.822  14.476  0.00  0.00    +0.000 A 
ATOM     28  C   UNL     1       6.001   3.734  14.739  0.00  0.00    +0.000 A 
ATOM     29  C   UNL     1       5.495   3.535  16.023  0.00  0.00    +0.000 A 
ENDBRANCH  23  24
ENDBRANCH   9  23
TORSDOF 6
ENDMDL
MODEL 9
REMARK VINA RESULT:      -7.1      2.604      3.604
REMARK  Name = 
REMARK  7 active torsions:
REMARK  status: ('A' for Active; 'I' for Inactive)
REMARK    1  A    between atoms: C_1  and  C_2
REMARK    2  A    between atoms: C_2  and  O_3
REMARK    3  A    between atoms: O_3  and  C_4
REMARK    4  A    between atoms: C_7  and  C_8
REMARK    5  A    between atoms: N_10  and  C_11
REMARK    6  A    between atoms: N_19  and  C_20
REMARK    7  A    between atoms: C_20  and  C_21
REMARK                            x       y       z     vdW  Elec       q    Type
REMARK                         _______ _______ _______ _____ _____    ______ ____
ROOT
ATOM      1  C   UNL     1       2.965   7.007  18.747  0.00  0.00    +0.000 C 
ATOM      2  C   UNL     1       3.287   6.271  20.054  0.00  0.00    +0.000 C 
ATOM      3  C   UNL     1       3.298   4.740  19.980  0.00  0.00    +0.000 C 
ATOM      4  C   UNL     1       1.907   4.131  20.210  0.00  0.00    +0.000 C 
ATOM      5  C   UNL     1       0.972   4.165  19.008  0.00  0.00    +0.000 C 
ATOM      6  C   UNL     1       1.682   4.046  17.666  0.00  0.00    +0.000 C 
ATOM      7  C   UNL     1       3.083   4.681  17.596  0.00  0.00    +0.000 C 
ATOM      8  C   UNL     1       3.044   6.205  17.445  0.00  0.00    +0.000 C 
ATOM      9  N   UNL     1       3.895   4.229  18.734  0.00  0.00    +0.000 NA
ENDROOT
BRANCH   1  12
ATOM     10  C   UNL     1       1.615   8.985  18.259  0.00  0.00    +0.000 C 
ATOM     11  O   UNL     1       2.550   9.510  17.658  0.00  0.00    +0.000 OA
ATOM     12  N   UNL     1       1.710   7.742  18.844  0.00  0.00    +0.000 N 
ATOM     13  H   UNL     1       1.004   7.422  19.491  0.00  0.00    +0.000 HD
BRANCH  10  17
ATOM     14  C   UNL     1      -2.158  11.016  18.498  0.00  0.00    +0.000 A 
ATOM     15  C   UNL     1      -1.870  10.116  17.476  0.00  0.00    +0.000 A 
ATOM     16  C   UNL     1      -0.633   9.482  17.425  0.00  0.00    +0.000 A 
ATOM     17  C   UNL     1       0.335   9.726  18.401  0.00  0.00    +0.000 A 
ATOM     18  C   UNL     1       0.045  10.610  19.445  0.00  0.00    +0.000 A 
ATOM     19  C   UNL     1      -1.203  11.261  19.486  0.00  0.00    +0.000 A 
BRANCH  14  20
ATOM     20  O   UNL     1      -3.342  11.700  18.630  0.00  0.00    +0.000 OA
BRANCH  20  22
ATOM     21  C   UNL     1      -5.135  11.979  17.044  0.00  0.00    +0.000 C 
ATOM     22  C   UNL     1      -4.477  11.058  18.050  0.00  0.00    +0.000 C 
ENDBRANCH  20  22
ENDBRANCH  14  20
ENDBRANCH  10  17
ENDBRANCH   1  12
BRANCH   9  23
ATOM     23  C   UNL     1       5.324   4.595  18.647  0.00  0.00    +0.000 C 
BRANCH  23  24
ATOM     24  C   UNL     1       5.894   4.638  17.245  0.00  0.00    +0.000 A 
ATOM     25  C   UNL     1       5.546   3.648  16.311  0.00  0.00    +0.000 A 
ATOM     26  C   UNL     1       6.029   3.704  15.004  0.00  0.00    +0.000 A 
ATOM     27  C   UNL     1       6.860   4.751  14.616  0.00  0.00    +0.000 A 
ATOM     28  C   UNL     1       7.218   5.736  15.537  0.00  0.00    +0.000 A 
ATOM     29  C   UNL     1       6.740   5.679  16.845  0.00  0.00    +0.000 A 
ENDBRANCH  23  24
ENDBRANCH   9  23
TORSDOF 6
ENDMDL
