MODEL 1
REMARK VINA RESULT:      -9.3      0.000      0.000
REMARK  Name = 
REMARK  5 active torsions:
REMARK  status: ('A' for Active; 'I' for Inactive)
REMARK    1  A    between atoms: C_5  and  C_6
REMARK    2  A    between atoms: C_6  and  N_7
REMARK    3  A    between atoms: C_6  and  C_18
REMARK    4  A    between atoms: N_7  and  C_8
REMARK    5  A    between atoms: C_8  and  C_9
REMARK                            x       y       z     vdW  Elec       q    Type
REMARK                         _______ _______ _______ _____ _____    ______ ____
ROOT
ATOM      1  C   UNL     1       6.098   4.236  16.036  0.00  0.00    +0.000 C 
ENDROOT
BRANCH   1   6
ATOM      2  F   UNL     1       8.603   8.333  18.990  0.00  0.00    +0.000 F 
ATOM      3  C   UNL     1       8.027   7.331  18.313  0.00  0.00    +0.000 A 
ATOM      4  C   UNL     1       8.148   6.029  18.756  0.00  0.00    +0.000 A 
ATOM      5  C   UNL     1       7.535   5.007  18.027  0.00  0.00    +0.000 A 
ATOM      6  C   UNL     1       6.816   5.321  16.864  0.00  0.00    +0.000 A 
ATOM      7  N   UNL     1       6.701   6.608  16.428  0.00  0.00    +0.000 NA
ATOM      8  C   UNL     1       7.303   7.578  17.162  0.00  0.00    +0.000 A 
ENDBRANCH   1   6
BRANCH   1   9
ATOM      9  C   UNL     1       6.427   4.338  14.544  0.00  0.00    +0.000 A 
ATOM     10  C   UNL     1       7.496   5.147  14.116  0.00  0.00    +0.000 A 
ATOM     11  C   UNL     1       7.896   5.152  12.779  0.00  0.00    +0.000 A 
ATOM     12  C   UNL     1       7.231   4.356  11.849  0.00  0.00    +0.000 A 
ATOM     13  C   UNL     1       6.154   3.570  12.251  0.00  0.00    +0.000 A 
ATOM     14  C   UNL     1       5.751   3.561  13.588  0.00  0.00    +0.000 A 
ENDBRANCH   1   9
BRANCH   1  15
ATOM     15  N   UNL     1       4.627   4.171  16.280  0.00  0.00    +0.000 NA
ATOM     16  H   UNL     1       4.172   3.963  15.392  0.00  0.00    +0.000 HD
BRANCH  15  17
ATOM     17  C   UNL     1       4.279   3.080  17.201  0.00  0.00    +0.000 C 
BRANCH  17  18
ATOM     18  C   UNL     1       2.934   3.272  17.814  0.00  0.00    +0.000 A 
ATOM     19  N   UNL     1       1.826   3.572  17.157  0.00  0.00    +0.000 NA
ATOM     20  N   UNL     1       0.774   3.545  18.041  0.00  0.00    +0.000 NA
ATOM     21  C   UNL     1       1.256   3.244  19.225  0.00  0.00    +0.000 A 
ATOM     22  C   UNL     1       0.642   3.062  20.493  0.00  0.00    +0.000 A 
ATOM     23  C   UNL     1       1.406   2.782  21.568  0.00  0.00    +0.000 A 
ATOM     24  C   UNL     1       2.853   2.656  21.458  0.00  0.00    +0.000 A 
ATOM     25  C   UNL     1       3.432   2.804  20.254  0.00  0.00    +0.000 A 
ATOM     26  N   UNL     1       2.634   3.089  19.147  0.00  0.00    +0.000 N 
ENDBRANCH  17  18
ENDBRANCH  15  17
ENDBRANCH   1  15
TORSDOF 5
ENDMDL
MODEL 2
REMARK VINA RESULT:      -9.2      3.553      7.004
REMARK  Name = 
REMARK  5 active torsions:
REMARK  status: ('A' for Active; 'I' for Inactive)
REMARK    1  A    between atoms: C_5  and  C_6
REMARK    2  A    between atoms: C_6  and  N_7
REMARK    3  A    between atoms: C_6  and  C_18
REMARK    4  A    between atoms: N_7  and  C_8
REMARK    5  A    between atoms: C_8  and  C_9
REMARK                            x       y       z     vdW  Elec       q    Type
REMARK                         _______ _______ _______ _____ _____    ______ ____
ROOT
ATOM      1  C   UNL     1       3.110   6.152  18.876  0.00  0.00    +0.000 C 
ENDROOT
BRANCH   1   6
ATOM      2  F   UNL     1       0.290  11.011  19.358  0.00  0.00    +0.000 F 
ATOM      3  C   UNL     1       0.961   9.862  19.202  0.00  0.00    +0.000 A 
ATOM      4  C   UNL     1       1.443   9.500  17.960  0.00  0.00    +0.000 A 
ATOM      5  C   UNL     1       2.139   8.295  17.831  0.00  0.00    +0.000 A 
ATOM      6  C   UNL     1       2.328   7.480  18.957  0.00  0.00    +0.000 A 
ATOM      7  N   UNL     1       1.847   7.840  20.181  0.00  0.00    +0.000 NA
ATOM      8  C   UNL     1       1.181   9.019  20.274  0.00  0.00    +0.000 A 
ENDBRANCH   1   6
BRANCH   1   9
ATOM      9  C   UNL     1       2.214   4.939  19.140  0.00  0.00    +0.000 A 
ATOM     10  C   UNL     1       1.842   4.099  18.075  0.00  0.00    +0.000 A 
ATOM     11  C   UNL     1       1.138   2.917  18.311  0.00  0.00    +0.000 A 
ATOM     12  C   UNL     1       0.788   2.561  19.612  0.00  0.00    +0.000 A 
ATOM     13  C   UNL     1       1.126   3.395  20.675  0.00  0.00    +0.000 A 
ATOM     14  C   UNL     1       1.831   4.579  20.443  0.00  0.00    +0.000 A 
ENDBRANCH   1   9
BRANCH   1  15
ATOM     15  N   UNL     1       4.341   6.131  19.720  0.00  0.00    +0.000 NA
ATOM     16  H   UNL     1       4.064   5.889  20.671  0.00  0.00    +0.000 HD
BRANCH  15  17
ATOM     17  C   UNL     1       5.283   5.093  19.276  0.00  0.00    +0.000 C 
BRANCH  17  18
ATOM     18  C   UNL     1       6.040   5.506  18.061  0.00  0.00    +0.000 A 
ATOM     19  N   UNL     1       6.962   6.453  18.015  0.00  0.00    +0.000 NA
ATOM     20  N   UNL     1       7.519   6.460  16.759  0.00  0.00    +0.000 NA
ATOM     21  C   UNL     1       6.919   5.529  16.052  0.00  0.00    +0.000 A 
ATOM     22  C   UNL     1       7.090   5.079  14.715  0.00  0.00    +0.000 A 
ATOM     23  C   UNL     1       6.293   4.104  14.235  0.00  0.00    +0.000 A 
ATOM     24  C   UNL     1       5.259   3.495  15.060  0.00  0.00    +0.000 A 
ATOM     25  C   UNL     1       5.112   3.903  16.332  0.00  0.00    +0.000 A 
ATOM     26  N   UNL     1       5.944   4.909  16.822  0.00  0.00    +0.000 N 
ENDBRANCH  17  18
ENDBRANCH  15  17
ENDBRANCH   1  15
TORSDOF 5
ENDMDL
MODEL 3
REMARK VINA RESULT:      -9.1      0.969      1.632
REMARK  Name = 
REMARK  5 active torsions:
REMARK  status: ('A' for Active; 'I' for Inactive)
REMARK    1  A    between atoms: C_5  and  C_6
REMARK    2  A    between atoms: C_6  and  N_7
REMARK    3  A    between atoms: C_6  and  C_18
REMARK    4  A    between atoms: N_7  and  C_8
REMARK    5  A    between atoms: C_8  and  C_9
REMARK                            x       y       z     vdW  Elec       q    Type
REMARK                         _______ _______ _______ _____ _____    ______ ____
ROOT
ATOM      1  C   UNL     1       6.026   4.333  16.139  0.00  0.00    +0.000 C 
ENDROOT
BRANCH   1   6
ATOM      2  F   UNL     1       8.641   8.488  18.910  0.00  0.00    +0.000 F 
ATOM      3  C   UNL     1       8.040   7.473  18.275  0.00  0.00    +0.000 A 
ATOM      4  C   UNL     1       8.205   6.177  18.721  0.00  0.00    +0.000 A 
ATOM      5  C   UNL     1       7.565   5.141  18.037  0.00  0.00    +0.000 A 
ATOM      6  C   UNL     1       6.776   5.435  16.916  0.00  0.00    +0.000 A 
ATOM      7  N   UNL     1       6.617   6.716  16.477  0.00  0.00    +0.000 NA
ATOM      8  C   UNL     1       7.248   7.700  17.167  0.00  0.00    +0.000 A 
ENDBRANCH   1   6
BRANCH   1   9
ATOM      9  C   UNL     1       6.341   4.367  14.641  0.00  0.00    +0.000 A 
ATOM     10  C   UNL     1       7.437   5.115  14.173  0.00  0.00    +0.000 A 
ATOM     11  C   UNL     1       7.822   5.055  12.833  0.00  0.00    +0.000 A 
ATOM     12  C   UNL     1       7.113   4.255  11.939  0.00  0.00    +0.000 A 
ATOM     13  C   UNL     1       6.010   3.528  12.380  0.00  0.00    +0.000 A 
ATOM     14  C   UNL     1       5.622   3.585  13.721  0.00  0.00    +0.000 A 
ENDBRANCH   1   9
BRANCH   1  15
ATOM     15  N   UNL     1       4.556   4.311  16.399  0.00  0.00    +0.000 NA
ATOM     16  H   UNL     1       4.262   3.336  16.445  0.00  0.00    +0.000 HD
BRANCH  15  17
ATOM     17  C   UNL     1       4.228   4.915  17.699  0.00  0.00    +0.000 C 
BRANCH  17  18
ATOM     18  C   UNL     1       4.101   3.893  18.776  0.00  0.00    +0.000 A 
ATOM     19  N   UNL     1       5.066   3.089  19.189  0.00  0.00    +0.000 NA
ATOM     20  N   UNL     1       4.608   2.378  20.273  0.00  0.00    +0.000 NA
ATOM     21  C   UNL     1       3.367   2.748  20.495  0.00  0.00    +0.000 A 
ATOM     22  C   UNL     1       2.414   2.368  21.479  0.00  0.00    +0.000 A 
ATOM     23  C   UNL     1       1.176   2.900  21.445  0.00  0.00    +0.000 A 
ATOM     24  C   UNL     1       0.792   3.864  20.423  0.00  0.00    +0.000 A 
ATOM     25  C   UNL     1       1.700   4.241  19.507  0.00  0.00    +0.000 A 
ATOM     26  N   UNL     1       2.980   3.689  19.551  0.00  0.00    +0.000 N 
ENDBRANCH  17  18
ENDBRANCH  15  17
ENDBRANCH   1  15
TORSDOF 5
ENDMDL
MODEL 4
REMARK VINA RESULT:      -9.0      2.098      4.423
REMARK  Name = 
REMARK  5 active torsions:
REMARK  status: ('A' for Active; 'I' for Inactive)
REMARK    1  A    between atoms: C_5  and  C_6
REMARK    2  A    between atoms: C_6  and  N_7
REMARK    3  A    between atoms: C_6  and  C_18
REMARK    4  A    between atoms: N_7  and  C_8
REMARK    5  A    between atoms: C_8  and  C_9
REMARK                            x       y       z     vdW  Elec       q    Type
REMARK                         _______ _______ _______ _____ _____    ______ ____
ROOT
ATOM      1  C   UNL     1       5.741   4.668  16.105  0.00  0.00    +0.000 C 
ENDROOT
BRANCH   1   6
ATOM      2  F   UNL     1       7.734   4.382  10.839  0.00  0.00    +0.000 F 
ATOM      3  C   UNL     1       7.227   4.428  12.078  0.00  0.00    +0.000 A 
ATOM      4  C   UNL     1       6.092   3.709  12.393  0.00  0.00    +0.000 A 
ATOM      5  C   UNL     1       5.588   3.778  13.695  0.00  0.00    +0.000 A 
ATOM      6  C   UNL     1       6.238   4.575  14.647  0.00  0.00    +0.000 A 
ATOM      7  N   UNL     1       7.358   5.287  14.331  0.00  0.00    +0.000 NA
ATOM      8  C   UNL     1       7.825   5.193  13.060  0.00  0.00    +0.000 A 
ENDBRANCH   1   6
BRANCH   1   9
ATOM      9  C   UNL     1       6.682   5.496  16.984  0.00  0.00    +0.000 A 
ATOM     10  C   UNL     1       6.786   6.885  16.784  0.00  0.00    +0.000 A 
ATOM     11  C   UNL     1       7.534   7.677  17.656  0.00  0.00    +0.000 A 
ATOM     12  C   UNL     1       8.196   7.094  18.735  0.00  0.00    +0.000 A 
ATOM     13  C   UNL     1       8.125   5.717  18.931  0.00  0.00    +0.000 A 
ATOM     14  C   UNL     1       7.376   4.921  18.061  0.00  0.00    +0.000 A 
ENDBRANCH   1   9
BRANCH   1  15
ATOM     15  N   UNL     1       5.428   3.343  16.716  0.00  0.00    +0.000 NA
ATOM     16  H   UNL     1       6.040   3.218  17.521  0.00  0.00    +0.000 HD
BRANCH  15  17
ATOM     17  C   UNL     1       4.048   3.293  17.221  0.00  0.00    +0.000 C 
BRANCH  17  18
ATOM     18  C   UNL     1       3.989   2.866  18.648  0.00  0.00    +0.000 A 
ATOM     19  N   UNL     1       5.009   2.415  19.358  0.00  0.00    +0.000 NA
ATOM     20  N   UNL     1       4.595   2.242  20.657  0.00  0.00    +0.000 NA
ATOM     21  C   UNL     1       3.325   2.576  20.718  0.00  0.00    +0.000 A 
ATOM     22  C   UNL     1       2.393   2.613  21.789  0.00  0.00    +0.000 A 
ATOM     23  C   UNL     1       1.117   2.975  21.548  0.00  0.00    +0.000 A 
ATOM     24  C   UNL     1       0.671   3.335  20.209  0.00  0.00    +0.000 A 
ATOM     25  C   UNL     1       1.558   3.323  19.199  0.00  0.00    +0.000 A 
ATOM     26  N   UNL     1       2.877   2.952  19.458  0.00  0.00    +0.000 N 
ENDBRANCH  17  18
ENDBRANCH  15  17
ENDBRANCH   1  15
TORSDOF 5
ENDMDL
MODEL 5
REMARK VINA RESULT:      -8.9      0.600      1.372
REMARK  Name = 
REMARK  5 active torsions:
REMARK  status: ('A' for Active; 'I' for Inactive)
REMARK    1  A    between atoms: C_5  and  C_6
REMARK    2  A    between atoms: C_6  and  N_7
REMARK    3  A    between atoms: C_6  and  C_18
REMARK    4  A    between atoms: N_7  and  C_8
REMARK    5  A    between atoms: C_8  and  C_9
REMARK                            x       y       z     vdW  Elec       q    Type
REMARK                         _______ _______ _______ _____ _____    ______ ____
ROOT
ATOM      1  C   UNL     1       6.157   4.044  16.056  0.00  0.00    +0.000 C 
ENDROOT
BRANCH   1   6
ATOM      2  F   UNL     1       8.677   7.941  19.259  0.00  0.00    +0.000 F 
ATOM      3  C   UNL     1       8.060   7.046  18.476  0.00  0.00    +0.000 A 
ATOM      4  C   UNL     1       7.349   7.462  17.368  0.00  0.00    +0.000 A 
ATOM      5  C   UNL     1       6.718   6.503  16.571  0.00  0.00    +0.000 A 
ATOM      6  C   UNL     1       6.813   5.146  16.914  0.00  0.00    +0.000 A 
ATOM      7  N   UNL     1       7.515   4.740  18.010  0.00  0.00    +0.000 NA
ATOM      8  C   UNL     1       8.121   5.695  18.759  0.00  0.00    +0.000 A 
ENDBRANCH   1   6
BRANCH   1   9
ATOM      9  C   UNL     1       6.566   4.141  14.583  0.00  0.00    +0.000 A 
ATOM     10  C   UNL     1       5.851   3.420  13.609  0.00  0.00    +0.000 A 
ATOM     11  C   UNL     1       6.120   3.596  12.251  0.00  0.00    +0.000 A 
ATOM     12  C   UNL     1       7.112   4.486  11.846  0.00  0.00    +0.000 A 
ATOM     13  C   UNL     1       7.846   5.188  12.798  0.00  0.00    +0.000 A 
ATOM     14  C   UNL     1       7.580   5.016  14.159  0.00  0.00    +0.000 A 
ENDBRANCH   1   9
BRANCH   1  15
ATOM     15  N   UNL     1       4.677   3.960  16.220  0.00  0.00    +0.000 NA
ATOM     16  H   UNL     1       4.280   3.659  15.330  0.00  0.00    +0.000 HD
BRANCH  15  17
ATOM     17  C   UNL     1       4.299   2.947  17.216  0.00  0.00    +0.000 C 
BRANCH  17  18
ATOM     18  C   UNL     1       2.960   3.217  17.811  0.00  0.00    +0.000 A 
ATOM     19  N   UNL     1       1.877   3.570  17.137  0.00  0.00    +0.000 NA
ATOM     20  N   UNL     1       0.815   3.608  18.008  0.00  0.00    +0.000 NA
ATOM     21  C   UNL     1       1.266   3.294  19.201  0.00  0.00    +0.000 A 
ATOM     22  C   UNL     1       0.628   3.158  20.464  0.00  0.00    +0.000 A 
ATOM     23  C   UNL     1       1.364   2.848  21.550  0.00  0.00    +0.000 A 
ATOM     24  C   UNL     1       2.803   2.644  21.458  0.00  0.00    +0.000 A 
ATOM     25  C   UNL     1       3.403   2.748  20.261  0.00  0.00    +0.000 A 
ATOM     26  N   UNL     1       2.635   3.065  19.141  0.00  0.00    +0.000 N 
ENDBRANCH  17  18
ENDBRANCH  15  17
ENDBRANCH   1  15
TORSDOF 5
ENDMDL
MODEL 6
REMARK VINA RESULT:      -8.8      2.115      4.193
REMARK  Name = 
REMARK  5 active torsions:
REMARK  status: ('A' for Active; 'I' for Inactive)
REMARK    1  A    between atoms: C_5  and  C_6
REMARK    2  A    between atoms: C_6  and  N_7
REMARK    3  A    between atoms: C_6  and  C_18
REMARK    4  A    between atoms: N_7  and  C_8
REMARK    5  A    between atoms: C_8  and  C_9
REMARK                            x       y       z     vdW  Elec       q    Type
REMARK                         _______ _______ _______ _____ _____    ______ ____
ROOT
ATOM      1  C   UNL     1       5.418   5.502  15.973  0.00  0.00    +0.000 C 
ENDROOT
BRANCH   1   6
ATOM      2  F   UNL     1       7.740   3.583  11.206  0.00  0.00    +0.000 F 
ATOM      3  C   UNL     1       7.154   4.016  12.331  0.00  0.00    +0.000 A 
ATOM      4  C   UNL     1       5.950   3.478  12.741  0.00  0.00    +0.000 A 
ATOM      5  C   UNL     1       5.366   3.951  13.919  0.00  0.00    +0.000 A 
ATOM      6  C   UNL     1       6.006   4.960  14.653  0.00  0.00    +0.000 A 
ATOM      7  N   UNL     1       7.193   5.491  14.243  0.00  0.00    +0.000 NA
ATOM      8  C   UNL     1       7.738   5.005  13.098  0.00  0.00    +0.000 A 
ENDBRANCH   1   6
BRANCH   1   9
ATOM      9  C   UNL     1       6.508   5.975  16.938  0.00  0.00    +0.000 A 
ATOM     10  C   UNL     1       6.886   7.329  16.958  0.00  0.00    +0.000 A 
ATOM     11  C   UNL     1       7.781   7.806  17.918  0.00  0.00    +0.000 A 
ATOM     12  C   UNL     1       8.315   6.937  18.866  0.00  0.00    +0.000 A 
ATOM     13  C   UNL     1       7.971   5.588  18.844  0.00  0.00    +0.000 A 
ATOM     14  C   UNL     1       7.076   5.107  17.886  0.00  0.00    +0.000 A 
ENDBRANCH   1   9
BRANCH   1  15
ATOM     15  N   UNL     1       4.459   4.566  16.629  0.00  0.00    +0.000 NA
ATOM     16  H   UNL     1       4.989   3.969  17.263  0.00  0.00    +0.000 HD
BRANCH  15  17
ATOM     17  C   UNL     1       3.475   5.287  17.450  0.00  0.00    +0.000 C 
BRANCH  17  18
ATOM     18  C   UNL     1       2.422   4.380  17.989  0.00  0.00    +0.000 A 
ATOM     19  N   UNL     1       1.557   3.692  17.263  0.00  0.00    +0.000 NA
ATOM     20  N   UNL     1       0.831   2.881  18.102  0.00  0.00    +0.000 NA
ATOM     21  C   UNL     1       1.252   3.097  19.328  0.00  0.00    +0.000 A 
ATOM     22  C   UNL     1       0.883   2.539  20.581  0.00  0.00    +0.000 A 
ATOM     23  C   UNL     1       1.477   2.985  21.707  0.00  0.00    +0.000 A 
ATOM     24  C   UNL     1       2.495   4.026  21.667  0.00  0.00    +0.000 A 
ATOM     25  C   UNL     1       2.861   4.537  20.479  0.00  0.00    +0.000 A 
ATOM     26  N   UNL     1       2.245   4.068  19.319  0.00  0.00    +0.000 N 
ENDBRANCH  17  18
ENDBRANCH  15  17
ENDBRANCH   1  15
TORSDOF 5
ENDMDL
MODEL 7
REMARK VINA RESULT:      -8.7      3.514      7.563
REMARK  Name = 
REMARK  5 active torsions:
REMARK  status: ('A' for Active; 'I' for Inactive)
REMARK    1  A    between atoms: C_5  and  C_6
REMARK    2  A    between atoms: C_6  and  N_7
REMARK    3  A    between atoms: C_6  and  C_18
REMARK    4  A    between atoms: N_7  and  C_8
REMARK    5  A    between atoms: C_8  and  C_9
REMARK                            x       y       z     vdW  Elec       q    Type
REMARK                         _______ _______ _______ _____ _____    ______ ____
ROOT
ATOM      1  C   UNL     1       3.707   6.110  18.310  0.00  0.00    +0.000 C 
ENDROOT
BRANCH   1   6
ATOM      2  F   UNL     1       1.327   1.168  19.614  0.00  0.00    +0.000 F 
ATOM      3  C   UNL     1       1.865   2.346  19.273  0.00  0.00    +0.000 A 
ATOM      4  C   UNL     1       1.269   3.131  18.305  0.00  0.00    +0.000 A 
ATOM      5  C   UNL     1       1.855   4.354  17.973  0.00  0.00    +0.000 A 
ATOM      6  C   UNL     1       3.032   4.758  18.620  0.00  0.00    +0.000 A 
ATOM      7  N   UNL     1       3.619   3.979  19.574  0.00  0.00    +0.000 NA
ATOM      8  C   UNL     1       3.022   2.799  19.878  0.00  0.00    +0.000 A 
ENDBRANCH   1   6
BRANCH   1   9
ATOM      9  C   UNL     1       2.759   7.291  18.533  0.00  0.00    +0.000 A 
ATOM     10  C   UNL     1       2.136   7.464  19.783  0.00  0.00    +0.000 A 
ATOM     11  C   UNL     1       1.375   8.603  20.049  0.00  0.00    +0.000 A 
ATOM     12  C   UNL     1       1.217   9.582  19.071  0.00  0.00    +0.000 A 
ATOM     13  C   UNL     1       1.806   9.414  17.819  0.00  0.00    +0.000 A 
ATOM     14  C   UNL     1       2.569   8.276  17.549  0.00  0.00    +0.000 A 
ENDBRANCH   1   9
BRANCH   1  15
ATOM     15  N   UNL     1       4.356   6.161  16.968  0.00  0.00    +0.000 NA
ATOM     16  H   UNL     1       5.063   6.896  16.990  0.00  0.00    +0.000 HD
BRANCH  15  17
ATOM     17  C   UNL     1       5.059   4.908  16.658  0.00  0.00    +0.000 C 
BRANCH  17  18
ATOM     18  C   UNL     1       6.084   5.088  15.592  0.00  0.00    +0.000 A 
ATOM     19  N   UNL     1       7.225   5.745  15.727  0.00  0.00    +0.000 NA
ATOM     20  N   UNL     1       7.956   5.589  14.573  0.00  0.00    +0.000 NA
ATOM     21  C   UNL     1       7.246   4.854  13.748  0.00  0.00    +0.000 A 
ATOM     22  C   UNL     1       7.500   4.366  12.437  0.00  0.00    +0.000 A 
ATOM     23  C   UNL     1       6.554   3.645  11.803  0.00  0.00    +0.000 A 
ATOM     24  C   UNL     1       5.275   3.349  12.433  0.00  0.00    +0.000 A 
ATOM     25  C   UNL     1       5.044   3.790  13.681  0.00  0.00    +0.000 A 
ATOM     26  N   UNL     1       6.029   4.532  14.332  0.00  0.00    +0.000 N 
ENDBRANCH  17  18
ENDBRANCH  15  17
ENDBRANCH   1  15
TORSDOF 5
ENDMDL
MODEL 8
REMARK VINA RESULT:      -8.7      3.497      6.944
REMARK  Name = 
REMARK  5 active torsions:
REMARK  status: ('A' for Active; 'I' for Inactive)
REMARK    1  A    between atoms: C_5  and  C_6
REMARK    2  A    between atoms: C_6  and  N_7
REMARK    3  A    between atoms: C_6  and  C_18
REMARK    4  A    between atoms: N_7  and  C_8
REMARK    5  A    between atoms: C_8  and  C_9
REMARK                            x       y       z     vdW  Elec       q    Type
REMARK                         _______ _______ _______ _____ _____    ______ ____
ROOT
ATOM      1  C   UNL     1       3.154   5.911  18.907  0.00  0.00    +0.000 C 
ENDROOT
BRANCH   1   6
ATOM      2  F   UNL     1       0.312  10.723  19.653  0.00  0.00    +0.000 F 
ATOM      3  C   UNL     1       0.986   9.573  19.517  0.00  0.00    +0.000 A 
ATOM      4  C   UNL     1       1.144   8.726  20.596  0.00  0.00    +0.000 A 
ATOM      5  C   UNL     1       1.851   7.534  20.421  0.00  0.00    +0.000 A 
ATOM      6  C   UNL     1       2.387   7.225  19.163  0.00  0.00    +0.000 A 
ATOM      7  N   UNL     1       2.230   8.065  18.100  0.00  0.00    +0.000 NA
ATOM      8  C   UNL     1       1.534   9.212  18.302  0.00  0.00    +0.000 A 
ENDBRANCH   1   6
BRANCH   1   9
ATOM      9  C   UNL     1       2.310   4.677  19.241  0.00  0.00    +0.000 A 
ATOM     10  C   UNL     1       2.060   4.342  20.584  0.00  0.00    +0.000 A 
ATOM     11  C   UNL     1       1.187   3.303  20.910  0.00  0.00    +0.000 A 
ATOM     12  C   UNL     1       0.558   2.578  19.900  0.00  0.00    +0.000 A 
ATOM     13  C   UNL     1       0.815   2.880  18.565  0.00  0.00    +0.000 A 
ATOM     14  C   UNL     1       1.688   3.920  18.235  0.00  0.00    +0.000 A 
ENDBRANCH   1   9
BRANCH   1  15
ATOM     15  N   UNL     1       4.494   5.863  19.561  0.00  0.00    +0.000 NA
ATOM     16  H   UNL     1       4.356   5.970  20.565  0.00  0.00    +0.000 HD
BRANCH  15  17
ATOM     17  C   UNL     1       5.150   4.563  19.358  0.00  0.00    +0.000 C 
BRANCH  17  18
ATOM     18  C   UNL     1       6.185   4.618  18.288  0.00  0.00    +0.000 A 
ATOM     19  N   UNL     1       7.493   4.638  18.484  0.00  0.00    +0.000 NA
ATOM     20  N   UNL     1       8.119   4.564  17.263  0.00  0.00    +0.000 NA
ATOM     21  C   UNL     1       7.185   4.515  16.339  0.00  0.00    +0.000 A 
ATOM     22  C   UNL     1       7.241   4.417  14.923  0.00  0.00    +0.000 A 
ATOM     23  C   UNL     1       6.096   4.419  14.211  0.00  0.00    +0.000 A 
ATOM     24  C   UNL     1       4.798   4.516  14.864  0.00  0.00    +0.000 A 
ATOM     25  C   UNL     1       4.743   4.586  16.204  0.00  0.00    +0.000 A 
ATOM     26  N   UNL     1       5.932   4.578  16.934  0.00  0.00    +0.000 N 
ENDBRANCH  17  18
ENDBRANCH  15  17
ENDBRANCH   1  15
TORSDOF 5
ENDMDL
MODEL 9
REMARK VINA RESULT:      -8.7      3.128      4.688
REMARK  Name = 
REMARK  5 active torsions:
REMARK  status: ('A' for Active; 'I' for Inactive)
REMARK    1  A    between atoms: C_5  and  C_6
REMARK    2  A    between atoms: C_6  and  N_7
REMARK    3  A    between atoms: C_6  and  C_18
REMARK    4  A    between atoms: N_7  and  C_8
REMARK    5  A    between atoms: C_8  and  C_9
REMARK                            x       y       z     vdW  Elec       q    Type
REMARK                         _______ _______ _______ _____ _____    ______ ____
ROOT
ATOM      1  C   UNL     1       4.164   5.558  18.219  0.00  0.00    +0.000 C 
ENDROOT
BRANCH   1   6
ATOM      2  F   UNL     1       0.665   9.742  19.650  0.00  0.00    +0.000 F 
ATOM      3  C   UNL     1       1.498   8.764  19.271  0.00  0.00    +0.000 A 
ATOM      4  C   UNL     1       2.084   8.792  18.021  0.00  0.00    +0.000 A 
ATOM      5  C   UNL     1       2.948   7.756  17.656  0.00  0.00    +0.000 A 
ATOM      6  C   UNL     1       3.199   6.713  18.560  0.00  0.00    +0.000 A 
ATOM      7  N   UNL     1       2.616   6.688  19.793  0.00  0.00    +0.000 NA
ATOM      8  C   UNL     1       1.787   7.711  20.118  0.00  0.00    +0.000 A 
ENDBRANCH   1   6
BRANCH   1   9
ATOM      9  C   UNL     1       5.626   6.011  18.218  0.00  0.00    +0.000 A 
ATOM     10  C   UNL     1       6.049   7.011  17.323  0.00  0.00    +0.000 A 
ATOM     11  C   UNL     1       7.343   7.531  17.395  0.00  0.00    +0.000 A 
ATOM     12  C   UNL     1       8.234   7.056  18.355  0.00  0.00    +0.000 A 
ATOM     13  C   UNL     1       7.839   6.049  19.231  0.00  0.00    +0.000 A 
ATOM     14  C   UNL     1       6.545   5.526  19.164  0.00  0.00    +0.000 A 
ENDBRANCH   1   9
BRANCH   1  15
ATOM     15  N   UNL     1       3.805   4.828  16.968  0.00  0.00    +0.000 NA
ATOM     16  H   UNL     1       4.424   5.154  16.227  0.00  0.00    +0.000 HD
BRANCH  15  17
ATOM     17  C   UNL     1       4.032   3.381  17.103  0.00  0.00    +0.000 C 
BRANCH  17  18
ATOM     18  C   UNL     1       3.990   2.937  18.524  0.00  0.00    +0.000 A 
ATOM     19  N   UNL     1       5.029   2.523  19.231  0.00  0.00    +0.000 NA
ATOM     20  N   UNL     1       4.622   2.318  20.527  0.00  0.00    +0.000 NA
ATOM     21  C   UNL     1       3.339   2.595  20.590  0.00  0.00    +0.000 A 
ATOM     22  C   UNL     1       2.406   2.579  21.661  0.00  0.00    +0.000 A 
ATOM     23  C   UNL     1       1.115   2.887  21.422  0.00  0.00    +0.000 A 
ATOM     24  C   UNL     1       0.655   3.242  20.087  0.00  0.00    +0.000 A 
ATOM     25  C   UNL     1       1.542   3.281  19.078  0.00  0.00    +0.000 A 
ATOM     26  N   UNL     1       2.875   2.965  19.334  0.00  0.00    +0.000 N 
ENDBRANCH  17  18
ENDBRANCH  15  17
ENDBRANCH   1  15
TORSDOF 5
ENDMDL
