MODEL 1
REMARK VINA RESULT:      -7.8      0.000      0.000
REMARK  Name = 
REMARK  17 active torsions:
REMARK  status: ('A' for Active; 'I' for Inactive)
REMARK    1  A    between atoms: C_1  and  C_2
REMARK    2  A    between atoms: C_2  and  N_3
REMARK    3  A    between atoms: C_5  and  C_6
REMARK    4  A    between atoms: C_6  and  C_7
REMARK    5  A    between atoms: C_6  and  C_9
REMARK    6  A    between atoms: C_6  and  C_11
REMARK    7  A    between atoms: C_7  and  C_8
REMARK    8  A    between atoms: C_9  and  C_10
REMARK    9  A    between atoms: C_14  and  O_15
REMARK   10  A    between atoms: O_15  and  C_16
REMARK   11  A    between atoms: C_16  and  C_17
REMARK   12  A    between atoms: C_17  and  C_18
REMARK   13  A    between atoms: C_17  and  O_19
REMARK   14  A    between atoms: C_20  and  C_21
REMARK   15  A    between atoms: C_24  and  C_25
REMARK   16  A    between atoms: N_27  and  C_28
REMARK   17  A    between atoms: C_28  and  C_29
REMARK                            x       y       z     vdW  Elec       q    Type
REMARK                         _______ _______ _______ _____ _____    ______ ____
ROOT
ATOM      1  N   UNL     1       1.690   8.169  19.678  0.00  0.00    +0.000 N 
ATOM      2  C   UNL     1       1.989   6.990  19.034  0.00  0.00    +0.000 A 
ATOM      3  C   UNL     1       1.973   5.946  19.944  0.00  0.00    +0.000 A 
ATOM      4  C   UNL     1       1.631   6.561  21.184  0.00  0.00    +0.000 A 
ATOM      5  C   UNL     1       1.442   7.927  21.012  0.00  0.00    +0.000 A 
ENDROOT
BRANCH   5   6
ATOM      6  C   UNL     1       1.110   8.909  22.036  0.00  0.00    +0.000 C 
ATOM      7  O   UNL     1       1.930   9.457  22.763  0.00  0.00    +0.000 OA
ATOM      8  N   UNL     1      -0.243   9.161  22.110  0.00  0.00    +0.000 N 
ATOM      9  H   UNL     1      -0.794   8.879  21.313  0.00  0.00    +0.000 HD
BRANCH   8  10
ATOM     10  C   UNL     1      -0.854  10.056  23.071  0.00  0.00    +0.000 C 
BRANCH  10  11
ATOM     11  C   UNL     1      -1.020  11.490  22.528  0.00  0.00    +0.000 C 
ATOM     12  C   UNL     1      -2.263  12.184  23.112  0.00  0.00    +0.000 C 
ATOM     13  C   UNL     1      -2.476  13.555  22.483  0.00  0.00    +0.000 C 
ATOM     14  O   UNL     1      -2.558  13.448  21.064  0.00  0.00    +0.000 OA
ATOM     15  C   UNL     1      -1.344  12.961  20.496  0.00  0.00    +0.000 C 
ATOM     16  C   UNL     1      -1.049  11.549  20.991  0.00  0.00    +0.000 C 
ENDBRANCH  10  11
ENDBRANCH   8  10
ENDBRANCH   5   6
BRANCH   1  18
ATOM     17  C   UNL     1       2.142   9.333  17.554  0.00  0.00    +0.000 C 
ATOM     18  C   UNL     1       1.638   9.443  18.982  0.00  0.00    +0.000 C 
ENDBRANCH   1  18
BRANCH   3  19
ATOM     19  C   UNL     1       2.282   4.450  19.702  0.00  0.00    +0.000 C 
BRANCH  19  20
ATOM     20  C   UNL     1       3.525   4.399  18.777  0.00  0.00    +0.000 A 
ATOM     21  C   UNL     1       3.470   3.994  17.436  0.00  0.00    +0.000 A 
ATOM     22  C   UNL     1       4.625   3.960  16.641  0.00  0.00    +0.000 A 
ATOM     23  C   UNL     1       5.871   4.370  17.128  0.00  0.00    +0.000 A 
ATOM     24  C   UNL     1       5.944   4.882  18.428  0.00  0.00    +0.000 A 
ATOM     25  C   UNL     1       7.127   5.545  19.073  0.00  0.00    +0.000 C 
ATOM     26  C   UNL     1       4.774   4.861  19.231  0.00  0.00    +0.000 A 
BRANCH  23  27
ATOM     27  O   UNL     1       6.861   4.266  16.188  0.00  0.00    +0.000 OA
BRANCH  27  28
ATOM     28  C   UNL     1       7.000   5.321  15.233  0.00  0.00    +0.000 C 
BRANCH  28  29
ATOM     29  C   UNL     1       6.700   4.801  13.818  0.00  0.00    +0.000 C 
ATOM     30  C   UNL     1       7.804   5.115  12.821  0.00  0.00    +0.000 C 
BRANCH  29  31
ATOM     31  O   UNL     1       6.498   3.386  13.843  0.00  0.00    +0.000 OA
ATOM     32  H   UNL     1       5.574   3.245  14.125  0.00  0.00    +0.000 HD
ENDBRANCH  29  31
ENDBRANCH  28  29
ENDBRANCH  27  28
ENDBRANCH  23  27
ENDBRANCH  19  20
BRANCH  19  33
ATOM     33  C   UNL     1       1.002   3.745  19.124  0.00  0.00    +0.000 C 
ATOM     34  C   UNL     1       1.130   2.275  18.727  0.00  0.00    +0.000 C 
ENDBRANCH  19  33
BRANCH  19  35
ATOM     35  C   UNL     1       2.645   3.768  21.075  0.00  0.00    +0.000 C 
ATOM     36  C   UNL     1       1.556   2.977  21.790  0.00  0.00    +0.000 C 
ENDBRANCH  19  35
ENDBRANCH   3  19
TORSDOF 12
ENDMDL
MODEL 2
REMARK VINA RESULT:      -7.8      2.802      9.401
REMARK  Name = 
REMARK  17 active torsions:
REMARK  status: ('A' for Active; 'I' for Inactive)
REMARK    1  A    between atoms: C_1  and  C_2
REMARK    2  A    between atoms: C_2  and  N_3
REMARK    3  A    between atoms: C_5  and  C_6
REMARK    4  A    between atoms: C_6  and  C_7
REMARK    5  A    between atoms: C_6  and  C_9
REMARK    6  A    between atoms: C_6  and  C_11
REMARK    7  A    between atoms: C_7  and  C_8
REMARK    8  A    between atoms: C_9  and  C_10
REMARK    9  A    between atoms: C_14  and  O_15
REMARK   10  A    between atoms: O_15  and  C_16
REMARK   11  A    between atoms: C_16  and  C_17
REMARK   12  A    between atoms: C_17  and  C_18
REMARK   13  A    between atoms: C_17  and  O_19
REMARK   14  A    between atoms: C_20  and  C_21
REMARK   15  A    between atoms: C_24  and  C_25
REMARK   16  A    between atoms: N_27  and  C_28
REMARK   17  A    between atoms: C_28  and  C_29
REMARK                            x       y       z     vdW  Elec       q    Type
REMARK                         _______ _______ _______ _____ _____    ______ ____
ROOT
ATOM      1  N   UNL     1       6.429   6.055  18.072  0.00  0.00    +0.000 N 
ATOM      2  C   UNL     1       5.300   6.229  18.839  0.00  0.00    +0.000 A 
ATOM      3  C   UNL     1       4.255   5.496  18.302  0.00  0.00    +0.000 A 
ATOM      4  C   UNL     1       4.823   4.851  17.163  0.00  0.00    +0.000 A 
ATOM      5  C   UNL     1       6.165   5.186  17.036  0.00  0.00    +0.000 A 
ENDROOT
BRANCH   5   6
ATOM      6  C   UNL     1       7.088   4.757  15.993  0.00  0.00    +0.000 C 
ATOM      7  O   UNL     1       8.064   4.041  16.182  0.00  0.00    +0.000 OA
ATOM      8  N   UNL     1       6.750   5.249  14.750  0.00  0.00    +0.000 N 
ATOM      9  H   UNL     1       5.806   5.592  14.648  0.00  0.00    +0.000 HD
BRANCH   8  10
ATOM     10  C   UNL     1       7.521   5.021  13.546  0.00  0.00    +0.000 C 
BRANCH  10  11
ATOM     11  C   UNL     1       6.724   4.266  12.462  0.00  0.00    +0.000 C 
ATOM     12  C   UNL     1       5.298   3.926  12.929  0.00  0.00    +0.000 C 
ATOM     13  C   UNL     1       4.563   3.086  11.893  0.00  0.00    +0.000 C 
ATOM     14  O   UNL     1       5.304   1.907  11.588  0.00  0.00    +0.000 OA
ATOM     15  C   UNL     1       6.565   2.210  10.995  0.00  0.00    +0.000 C 
ATOM     16  C   UNL     1       7.439   2.996  11.968  0.00  0.00    +0.000 C 
ENDBRANCH  10  11
ENDBRANCH   8  10
ENDBRANCH   5   6
BRANCH   1  18
ATOM     17  C   UNL     1       7.851   8.019  17.636  0.00  0.00    +0.000 C 
ATOM     18  C   UNL     1       7.689   6.708  18.384  0.00  0.00    +0.000 C 
ENDBRANCH   1  18
BRANCH   3  19
ATOM     19  C   UNL     1       2.789   5.404  18.788  0.00  0.00    +0.000 C 
BRANCH  19  20
ATOM     20  C   UNL     1       2.266   6.859  18.889  0.00  0.00    +0.000 A 
ATOM     21  C   UNL     1       2.084   7.692  17.775  0.00  0.00    +0.000 A 
ATOM     22  C   UNL     1       1.613   9.004  17.919  0.00  0.00    +0.000 A 
ATOM     23  C   UNL     1       1.258   9.530  19.167  0.00  0.00    +0.000 A 
ATOM     24  C   UNL     1       1.323   8.694  20.286  0.00  0.00    +0.000 A 
ATOM     25  C   UNL     1       0.815   8.992  21.668  0.00  0.00    +0.000 C 
ATOM     26  C   UNL     1       1.849   7.386  20.125  0.00  0.00    +0.000 A 
BRANCH  23  27
ATOM     27  O   UNL     1       0.814  10.822  19.083  0.00  0.00    +0.000 OA
BRANCH  27  28
ATOM     28  C   UNL     1       1.657  11.861  19.588  0.00  0.00    +0.000 C 
BRANCH  28  29
ATOM     29  C   UNL     1       1.940  12.898  18.489  0.00  0.00    +0.000 C 
ATOM     30  C   UNL     1       2.866  14.013  18.946  0.00  0.00    +0.000 C 
BRANCH  29  31
ATOM     31  O   UNL     1       2.519  12.263  17.347  0.00  0.00    +0.000 OA
ATOM     32  H   UNL     1       2.094  12.663  16.564  0.00  0.00    +0.000 HD
ENDBRANCH  29  31
ENDBRANCH  28  29
ENDBRANCH  27  28
ENDBRANCH  23  27
ENDBRANCH  19  20
BRANCH  19  33
ATOM     33  C   UNL     1       2.741   4.591  20.132  0.00  0.00    +0.000 C 
ATOM     34  C   UNL     1       3.634   3.355  20.235  0.00  0.00    +0.000 C 
ENDBRANCH  19  33
BRANCH  19  35
ATOM     35  C   UNL     1       1.935   4.633  17.712  0.00  0.00    +0.000 C 
ATOM     36  C   UNL     1       1.096   3.450  18.179  0.00  0.00    +0.000 C 
ENDBRANCH  19  35
ENDBRANCH   3  19
TORSDOF 12
ENDMDL
MODEL 3
REMARK VINA RESULT:      -7.7      2.639      9.537
REMARK  Name = 
REMARK  17 active torsions:
REMARK  status: ('A' for Active; 'I' for Inactive)
REMARK    1  A    between atoms: C_1  and  C_2
REMARK    2  A    between atoms: C_2  and  N_3
REMARK    3  A    between atoms: C_5  and  C_6
REMARK    4  A    between atoms: C_6  and  C_7
REMARK    5  A    between atoms: C_6  and  C_9
REMARK    6  A    between atoms: C_6  and  C_11
REMARK    7  A    between atoms: C_7  and  C_8
REMARK    8  A    between atoms: C_9  and  C_10
REMARK    9  A    between atoms: C_14  and  O_15
REMARK   10  A    between atoms: O_15  and  C_16
REMARK   11  A    between atoms: C_16  and  C_17
REMARK   12  A    between atoms: C_17  and  C_18
REMARK   13  A    between atoms: C_17  and  O_19
REMARK   14  A    between atoms: C_20  and  C_21
REMARK   15  A    between atoms: C_24  and  C_25
REMARK   16  A    between atoms: N_27  and  C_28
REMARK   17  A    between atoms: C_28  and  C_29
REMARK                            x       y       z     vdW  Elec       q    Type
REMARK                         _______ _______ _______ _____ _____    ______ ____
ROOT
ATOM      1  N   UNL     1       6.451   6.079  17.969  0.00  0.00    +0.000 N 
ATOM      2  C   UNL     1       5.339   6.222  18.766  0.00  0.00    +0.000 A 
ATOM      3  C   UNL     1       4.309   5.441  18.272  0.00  0.00    +0.000 A 
ATOM      4  C   UNL     1       4.867   4.798  17.128  0.00  0.00    +0.000 A 
ATOM      5  C   UNL     1       6.192   5.183  16.955  0.00  0.00    +0.000 A 
ENDROOT
BRANCH   5   6
ATOM      6  C   UNL     1       7.100   4.771  15.892  0.00  0.00    +0.000 C 
ATOM      7  O   UNL     1       8.070   4.040  16.053  0.00  0.00    +0.000 OA
ATOM      8  N   UNL     1       6.755   5.300  14.666  0.00  0.00    +0.000 N 
ATOM      9  H   UNL     1       5.814   5.655  14.582  0.00  0.00    +0.000 HD
BRANCH   8  10
ATOM     10  C   UNL     1       7.512   5.095  13.449  0.00  0.00    +0.000 C 
BRANCH  10  11
ATOM     11  C   UNL     1       6.729   4.294  12.388  0.00  0.00    +0.000 C 
ATOM     12  C   UNL     1       5.297   3.976  12.850  0.00  0.00    +0.000 C 
ATOM     13  C   UNL     1       4.575   3.092  11.841  0.00  0.00    +0.000 C 
ATOM     14  O   UNL     1       5.320   1.900  11.598  0.00  0.00    +0.000 OA
ATOM     15  C   UNL     1       6.589   2.177  11.010  0.00  0.00    +0.000 C 
ATOM     16  C   UNL     1       7.450   3.003  11.960  0.00  0.00    +0.000 C 
ENDBRANCH  10  11
ENDBRANCH   8  10
ENDBRANCH   5   6
BRANCH   1  18
ATOM     17  C   UNL     1       7.697   8.177  17.627  0.00  0.00    +0.000 C 
ATOM     18  C   UNL     1       7.694   6.785  18.233  0.00  0.00    +0.000 C 
ENDBRANCH   1  18
BRANCH   3  19
ATOM     19  C   UNL     1       2.862   5.301  18.803  0.00  0.00    +0.000 C 
BRANCH  19  20
ATOM     20  C   UNL     1       2.335   6.741  19.032  0.00  0.00    +0.000 A 
ATOM     21  C   UNL     1       2.182   7.678  18.000  0.00  0.00    +0.000 A 
ATOM     22  C   UNL     1       1.706   8.971  18.260  0.00  0.00    +0.000 A 
ATOM     23  C   UNL     1       1.319   9.373  19.544  0.00  0.00    +0.000 A 
ATOM     24  C   UNL     1       1.356   8.432  20.577  0.00  0.00    +0.000 A 
ATOM     25  C   UNL     1       0.812   8.595  21.968  0.00  0.00    +0.000 C 
ATOM     26  C   UNL     1       1.887   7.145  20.303  0.00  0.00    +0.000 A 
BRANCH  23  27
ATOM     27  O   UNL     1       0.876  10.668  19.575  0.00  0.00    +0.000 OA
BRANCH  27  28
ATOM     28  C   UNL     1       0.327  11.225  18.378  0.00  0.00    +0.000 C 
BRANCH  28  29
ATOM     29  C   UNL     1      -1.201  11.341  18.497  0.00  0.00    +0.000 C 
ATOM     30  C   UNL     1      -1.937  10.138  17.928  0.00  0.00    +0.000 C 
BRANCH  29  31
ATOM     31  O   UNL     1      -1.580  11.502  19.866  0.00  0.00    +0.000 OA
ATOM     32  H   UNL     1      -0.977  10.938  20.386  0.00  0.00    +0.000 HD
ENDBRANCH  29  31
ENDBRANCH  28  29
ENDBRANCH  27  28
ENDBRANCH  23  27
ENDBRANCH  19  20
BRANCH  19  33
ATOM     33  C   UNL     1       2.868   4.389  20.083  0.00  0.00    +0.000 C 
ATOM     34  C   UNL     1       3.771   3.156  20.061  0.00  0.00    +0.000 C 
ENDBRANCH  19  33
BRANCH  19  35
ATOM     35  C   UNL     1       1.973   4.607  17.704  0.00  0.00    +0.000 C 
ATOM     36  C   UNL     1       1.003   3.520  18.152  0.00  0.00    +0.000 C 
ENDBRANCH  19  35
ENDBRANCH   3  19
TORSDOF 12
ENDMDL
MODEL 4
REMARK VINA RESULT:      -7.6      0.864      1.204
REMARK  Name = 
REMARK  17 active torsions:
REMARK  status: ('A' for Active; 'I' for Inactive)
REMARK    1  A    between atoms: C_1  and  C_2
REMARK    2  A    between atoms: C_2  and  N_3
REMARK    3  A    between atoms: C_5  and  C_6
REMARK    4  A    between atoms: C_6  and  C_7
REMARK    5  A    between atoms: C_6  and  C_9
REMARK    6  A    between atoms: C_6  and  C_11
REMARK    7  A    between atoms: C_7  and  C_8
REMARK    8  A    between atoms: C_9  and  C_10
REMARK    9  A    between atoms: C_14  and  O_15
REMARK   10  A    between atoms: O_15  and  C_16
REMARK   11  A    between atoms: C_16  and  C_17
REMARK   12  A    between atoms: C_17  and  C_18
REMARK   13  A    between atoms: C_17  and  O_19
REMARK   14  A    between atoms: C_20  and  C_21
REMARK   15  A    between atoms: C_24  and  C_25
REMARK   16  A    between atoms: N_27  and  C_28
REMARK   17  A    between atoms: C_28  and  C_29
REMARK                            x       y       z     vdW  Elec       q    Type
REMARK                         _______ _______ _______ _____ _____    ______ ____
ROOT
ATOM      1  N   UNL     1       1.608   8.235  19.543  0.00  0.00    +0.000 N 
ATOM      2  C   UNL     1       1.938   7.092  18.850  0.00  0.00    +0.000 A 
ATOM      3  C   UNL     1       2.074   6.036  19.734  0.00  0.00    +0.000 A 
ATOM      4  C   UNL     1       1.793   6.603  21.012  0.00  0.00    +0.000 A 
ATOM      5  C   UNL     1       1.491   7.954  20.887  0.00  0.00    +0.000 A 
ENDROOT
BRANCH   5   6
ATOM      6  C   UNL     1       1.175   8.892  21.956  0.00  0.00    +0.000 C 
ATOM      7  O   UNL     1       2.005   9.400  22.700  0.00  0.00    +0.000 OA
ATOM      8  N   UNL     1      -0.176   9.150  22.052  0.00  0.00    +0.000 N 
ATOM      9  H   UNL     1      -0.735   8.908  21.247  0.00  0.00    +0.000 HD
BRANCH   8  10
ATOM     10  C   UNL     1      -0.772  10.006  23.057  0.00  0.00    +0.000 C 
BRANCH  10  11
ATOM     11  C   UNL     1      -1.408  11.277  22.457  0.00  0.00    +0.000 C 
ATOM     12  C   UNL     1      -0.350  12.339  22.109  0.00  0.00    +0.000 C 
ATOM     13  C   UNL     1      -1.001  13.627  21.622  0.00  0.00    +0.000 C 
ATOM     14  O   UNL     1      -1.930  14.115  22.588  0.00  0.00    +0.000 OA
ATOM     15  C   UNL     1      -3.009  13.206  22.794  0.00  0.00    +0.000 C 
ATOM     16  C   UNL     1      -2.497  11.884  23.358  0.00  0.00    +0.000 C 
ENDBRANCH  10  11
ENDBRANCH   8  10
ENDBRANCH   5   6
BRANCH   1  18
ATOM     17  C   UNL     1       2.330   9.690  17.690  0.00  0.00    +0.000 C 
ATOM     18  C   UNL     1       1.406   9.513  18.882  0.00  0.00    +0.000 C 
ENDBRANCH   1  18
BRANCH   3  19
ATOM     19  C   UNL     1       2.470   4.570  19.435  0.00  0.00    +0.000 C 
BRANCH  19  20
ATOM     20  C   UNL     1       3.759   4.628  18.576  0.00  0.00    +0.000 A 
ATOM     21  C   UNL     1       3.775   4.379  17.195  0.00  0.00    +0.000 A 
ATOM     22  C   UNL     1       4.969   4.438  16.462  0.00  0.00    +0.000 A 
ATOM     23  C   UNL     1       6.186   4.791  17.057  0.00  0.00    +0.000 A 
ATOM     24  C   UNL     1       6.189   5.150  18.409  0.00  0.00    +0.000 A 
ATOM     25  C   UNL     1       7.333   5.736  19.186  0.00  0.00    +0.000 C 
ATOM     26  C   UNL     1       4.980   5.036  19.143  0.00  0.00    +0.000 A 
BRANCH  23  27
ATOM     27  O   UNL     1       7.223   4.798  16.163  0.00  0.00    +0.000 OA
BRANCH  27  28
ATOM     28  C   UNL     1       7.073   5.551  14.958  0.00  0.00    +0.000 C 
BRANCH  28  29
ATOM     29  C   UNL     1       7.492   4.706  13.745  0.00  0.00    +0.000 C 
ATOM     30  C   UNL     1       6.348   3.894  13.159  0.00  0.00    +0.000 C 
BRANCH  29  31
ATOM     31  O   UNL     1       8.028   5.545  12.719  0.00  0.00    +0.000 OA
ATOM     32  H   UNL     1       7.749   6.455  12.935  0.00  0.00    +0.000 HD
ENDBRANCH  29  31
ENDBRANCH  28  29
ENDBRANCH  27  28
ENDBRANCH  23  27
ENDBRANCH  19  20
BRANCH  19  33
ATOM     33  C   UNL     1       1.257   3.836  18.756  0.00  0.00    +0.000 C 
ATOM     34  C   UNL     1       0.538   2.765  19.575  0.00  0.00    +0.000 C 
ENDBRANCH  19  33
BRANCH  19  35
ATOM     35  C   UNL     1       2.797   3.835  20.789  0.00  0.00    +0.000 C 
ATOM     36  C   UNL     1       3.619   2.553  20.726  0.00  0.00    +0.000 C 
ENDBRANCH  19  35
ENDBRANCH   3  19
TORSDOF 12
ENDMDL
MODEL 5
REMARK VINA RESULT:      -7.5      1.117      1.490
REMARK  Name = 
REMARK  17 active torsions:
REMARK  status: ('A' for Active; 'I' for Inactive)
REMARK    1  A    between atoms: C_1  and  C_2
REMARK    2  A    between atoms: C_2  and  N_3
REMARK    3  A    between atoms: C_5  and  C_6
REMARK    4  A    between atoms: C_6  and  C_7
REMARK    5  A    between atoms: C_6  and  C_9
REMARK    6  A    between atoms: C_6  and  C_11
REMARK    7  A    between atoms: C_7  and  C_8
REMARK    8  A    between atoms: C_9  and  C_10
REMARK    9  A    between atoms: C_14  and  O_15
REMARK   10  A    between atoms: O_15  and  C_16
REMARK   11  A    between atoms: C_16  and  C_17
REMARK   12  A    between atoms: C_17  and  C_18
REMARK   13  A    between atoms: C_17  and  O_19
REMARK   14  A    between atoms: C_20  and  C_21
REMARK   15  A    between atoms: C_24  and  C_25
REMARK   16  A    between atoms: N_27  and  C_28
REMARK   17  A    between atoms: C_28  and  C_29
REMARK                            x       y       z     vdW  Elec       q    Type
REMARK                         _______ _______ _______ _____ _____    ______ ____
ROOT
ATOM      1  N   UNL     1       1.881   8.294  19.155  0.00  0.00    +0.000 N 
ATOM      2  C   UNL     1       2.241   7.194  18.411  0.00  0.00    +0.000 A 
ATOM      3  C   UNL     1       2.293   6.078  19.228  0.00  0.00    +0.000 A 
ATOM      4  C   UNL     1       1.929   6.564  20.518  0.00  0.00    +0.000 A 
ATOM      5  C   UNL     1       1.661   7.926  20.464  0.00  0.00    +0.000 A 
ENDROOT
BRANCH   5   6
ATOM      6  C   UNL     1       1.284   8.797  21.570  0.00  0.00    +0.000 C 
ATOM      7  O   UNL     1       2.064   9.231  22.409  0.00  0.00    +0.000 OA
ATOM      8  N   UNL     1      -0.065   9.085  21.582  0.00  0.00    +0.000 N 
ATOM      9  H   UNL     1      -0.565   8.914  20.722  0.00  0.00    +0.000 HD
BRANCH   8  10
ATOM     10  C   UNL     1      -0.718   9.885  22.597  0.00  0.00    +0.000 C 
BRANCH  10  11
ATOM     11  C   UNL     1      -1.099  11.292  22.092  0.00  0.00    +0.000 C 
ATOM     12  C   UNL     1       0.089  12.003  21.420  0.00  0.00    +0.000 C 
ATOM     13  C   UNL     1      -0.272  13.430  21.027  0.00  0.00    +0.000 C 
ATOM     14  O   UNL     1      -0.739  14.158  22.161  0.00  0.00    +0.000 OA
ATOM     15  C   UNL     1      -1.940  13.602  22.692  0.00  0.00    +0.000 C 
ATOM     16  C   UNL     1      -1.697  12.183  23.196  0.00  0.00    +0.000 C 
ENDBRANCH  10  11
ENDBRANCH   8  10
ENDBRANCH   5   6
BRANCH   1  18
ATOM     17  C   UNL     1       0.317   9.925  18.171  0.00  0.00    +0.000 C 
ATOM     18  C   UNL     1       1.750   9.618  18.571  0.00  0.00    +0.000 C 
ENDBRANCH   1  18
BRANCH   3  19
ATOM     19  C   UNL     1       2.685   4.627  18.858  0.00  0.00    +0.000 C 
BRANCH  19  20
ATOM     20  C   UNL     1       3.915   4.728  17.919  0.00  0.00    +0.000 A 
ATOM     21  C   UNL     1       4.011   4.040  16.701  0.00  0.00    +0.000 A 
ATOM     22  C   UNL     1       5.148   4.159  15.888  0.00  0.00    +0.000 A 
ATOM     23  C   UNL     1       6.214   5.001  16.227  0.00  0.00    +0.000 A 
ATOM     24  C   UNL     1       6.105   5.784  17.380  0.00  0.00    +0.000 A 
ATOM     25  C   UNL     1       7.036   6.879  17.820  0.00  0.00    +0.000 C 
ATOM     26  C   UNL     1       4.969   5.611  18.213  0.00  0.00    +0.000 A 
BRANCH  23  27
ATOM     27  O   UNL     1       7.216   4.977  15.294  0.00  0.00    +0.000 OA
BRANCH  27  28
ATOM     28  C   UNL     1       7.039   4.162  14.133  0.00  0.00    +0.000 C 
BRANCH  28  29
ATOM     29  C   UNL     1       7.228   5.003  12.859  0.00  0.00    +0.000 C 
ATOM     30  C   UNL     1       8.481   5.863  12.892  0.00  0.00    +0.000 C 
BRANCH  29  31
ATOM     31  O   UNL     1       7.288   4.154  11.711  0.00  0.00    +0.000 OA
ATOM     32  H   UNL     1       7.391   3.244  12.047  0.00  0.00    +0.000 HD
ENDBRANCH  29  31
ENDBRANCH  28  29
ENDBRANCH  27  28
ENDBRANCH  23  27
ENDBRANCH  19  20
BRANCH  19  33
ATOM     33  C   UNL     1       1.439   3.899  18.236  0.00  0.00    +0.000 C 
ATOM     34  C   UNL     1       0.972   2.610  18.911  0.00  0.00    +0.000 C 
ENDBRANCH  19  33
BRANCH  19  35
ATOM     35  C   UNL     1       3.108   3.856  20.164  0.00  0.00    +0.000 C 
ATOM     36  C   UNL     1       4.138   2.739  20.033  0.00  0.00    +0.000 C 
ENDBRANCH  19  35
ENDBRANCH   3  19
TORSDOF 12
ENDMDL
MODEL 6
REMARK VINA RESULT:      -7.5      3.792      8.302
REMARK  Name = 
REMARK  17 active torsions:
REMARK  status: ('A' for Active; 'I' for Inactive)
REMARK    1  A    between atoms: C_1  and  C_2
REMARK    2  A    between atoms: C_2  and  N_3
REMARK    3  A    between atoms: C_5  and  C_6
REMARK    4  A    between atoms: C_6  and  C_7
REMARK    5  A    between atoms: C_6  and  C_9
REMARK    6  A    between atoms: C_6  and  C_11
REMARK    7  A    between atoms: C_7  and  C_8
REMARK    8  A    between atoms: C_9  and  C_10
REMARK    9  A    between atoms: C_14  and  O_15
REMARK   10  A    between atoms: O_15  and  C_16
REMARK   11  A    between atoms: C_16  and  C_17
REMARK   12  A    between atoms: C_17  and  C_18
REMARK   13  A    between atoms: C_17  and  O_19
REMARK   14  A    between atoms: C_20  and  C_21
REMARK   15  A    between atoms: C_24  and  C_25
REMARK   16  A    between atoms: N_27  and  C_28
REMARK   17  A    between atoms: C_28  and  C_29
REMARK                            x       y       z     vdW  Elec       q    Type
REMARK                         _______ _______ _______ _____ _____    ______ ____
ROOT
ATOM      1  N   UNL     1       6.449   5.385  18.697  0.00  0.00    +0.000 N 
ATOM      2  C   UNL     1       5.254   4.899  19.178  0.00  0.00    +0.000 A 
ATOM      3  C   UNL     1       4.215   5.698  18.734  0.00  0.00    +0.000 A 
ATOM      4  C   UNL     1       4.849   6.697  17.938  0.00  0.00    +0.000 A 
ATOM      5  C   UNL     1       6.223   6.490  17.906  0.00  0.00    +0.000 A 
ENDROOT
BRANCH   5   6
ATOM      6  C   UNL     1       7.223   7.304  17.228  0.00  0.00    +0.000 C 
ATOM      7  O   UNL     1       7.778   6.991  16.180  0.00  0.00    +0.000 OA
ATOM      8  N   UNL     1       7.493   8.480  17.896  0.00  0.00    +0.000 N 
ATOM      9  H   UNL     1       6.810   8.770  18.580  0.00  0.00    +0.000 HD
BRANCH   8  10
ATOM     10  C   UNL     1       8.480   9.450  17.471  0.00  0.00    +0.000 C 
BRANCH  10  11
ATOM     11  C   UNL     1       8.630  10.621  18.463  0.00  0.00    +0.000 C 
ATOM     12  C   UNL     1       9.016  11.930  17.752  0.00  0.00    +0.000 C 
ATOM     13  C   UNL     1       9.268  13.049  18.755  0.00  0.00    +0.000 C 
ATOM     14  O   UNL     1      10.262  12.658  19.700  0.00  0.00    +0.000 OA
ATOM     15  C   UNL     1       9.841  11.543  20.484  0.00  0.00    +0.000 C 
ATOM     16  C   UNL     1       9.623  10.319  19.600  0.00  0.00    +0.000 C 
ENDBRANCH  10  11
ENDBRANCH   8  10
ENDBRANCH   5   6
BRANCH   1  18
ATOM     17  C   UNL     1       8.367   5.350  20.243  0.00  0.00    +0.000 C 
ATOM     18  C   UNL     1       7.723   4.757  19.003  0.00  0.00    +0.000 C 
ENDBRANCH   1  18
BRANCH   3  19
ATOM     19  C   UNL     1       2.703   5.575  19.041  0.00  0.00    +0.000 C 
BRANCH  19  20
ATOM     20  C   UNL     1       2.147   7.020  19.103  0.00  0.00    +0.000 A 
ATOM     21  C   UNL     1       1.942   7.816  17.966  0.00  0.00    +0.000 A 
ATOM     22  C   UNL     1       1.441   9.121  18.074  0.00  0.00    +0.000 A 
ATOM     23  C   UNL     1       1.078   9.674  19.308  0.00  0.00    +0.000 A 
ATOM     24  C   UNL     1       1.167   8.872  20.451  0.00  0.00    +0.000 A 
ATOM     25  C   UNL     1       0.658   9.199  21.826  0.00  0.00    +0.000 C 
ATOM     26  C   UNL     1       1.723   7.573  20.325  0.00  0.00    +0.000 A 
BRANCH  23  27
ATOM     27  O   UNL     1       0.604  10.953  19.189  0.00  0.00    +0.000 OA
BRANCH  27  28
ATOM     28  C   UNL     1      -0.808  11.160  19.262  0.00  0.00    +0.000 C 
BRANCH  28  29
ATOM     29  C   UNL     1      -1.434  11.057  17.862  0.00  0.00    +0.000 C 
ATOM     30  C   UNL     1      -2.846  10.492  17.879  0.00  0.00    +0.000 C 
BRANCH  29  31
ATOM     31  O   UNL     1      -1.466  12.343  17.238  0.00  0.00    +0.000 OA
ATOM     32  H   UNL     1      -0.536  12.622  17.138  0.00  0.00    +0.000 HD
ENDBRANCH  29  31
ENDBRANCH  28  29
ENDBRANCH  27  28
ENDBRANCH  23  27
ENDBRANCH  19  20
BRANCH  19  33
ATOM     33  C   UNL     1       2.510   4.738  20.356  0.00  0.00    +0.000 C 
ATOM     34  C   UNL     1       1.519   3.575  20.308  0.00  0.00    +0.000 C 
ENDBRANCH  19  33
BRANCH  19  35
ATOM     35  C   UNL     1       1.996   4.811  17.859  0.00  0.00    +0.000 C 
ATOM     36  C   UNL     1       2.827   3.828  17.044  0.00  0.00    +0.000 C 
ENDBRANCH  19  35
ENDBRANCH   3  19
TORSDOF 12
ENDMDL
MODEL 7
REMARK VINA RESULT:      -7.4      1.254      1.436
REMARK  Name = 
REMARK  17 active torsions:
REMARK  status: ('A' for Active; 'I' for Inactive)
REMARK    1  A    between atoms: C_1  and  C_2
REMARK    2  A    between atoms: C_2  and  N_3
REMARK    3  A    between atoms: C_5  and  C_6
REMARK    4  A    between atoms: C_6  and  C_7
REMARK    5  A    between atoms: C_6  and  C_9
REMARK    6  A    between atoms: C_6  and  C_11
REMARK    7  A    between atoms: C_7  and  C_8
REMARK    8  A    between atoms: C_9  and  C_10
REMARK    9  A    between atoms: C_14  and  O_15
REMARK   10  A    between atoms: O_15  and  C_16
REMARK   11  A    between atoms: C_16  and  C_17
REMARK   12  A    between atoms: C_17  and  C_18
REMARK   13  A    between atoms: C_17  and  O_19
REMARK   14  A    between atoms: C_20  and  C_21
REMARK   15  A    between atoms: C_24  and  C_25
REMARK   16  A    between atoms: N_27  and  C_28
REMARK   17  A    between atoms: C_28  and  C_29
REMARK                            x       y       z     vdW  Elec       q    Type
REMARK                         _______ _______ _______ _____ _____    ______ ____
ROOT
ATOM      1  N   UNL     1       1.768   8.489  19.120  0.00  0.00    +0.000 N 
ATOM      2  C   UNL     1       2.165   7.421  18.348  0.00  0.00    +0.000 A 
ATOM      3  C   UNL     1       2.332   6.305  19.149  0.00  0.00    +0.000 A 
ATOM      4  C   UNL     1       2.000   6.756  20.461  0.00  0.00    +0.000 A 
ATOM      5  C   UNL     1       1.638   8.098  20.434  0.00  0.00    +0.000 A 
ENDROOT
BRANCH   5   6
ATOM      6  C   UNL     1       1.256   8.932  21.566  0.00  0.00    +0.000 C 
ATOM      7  O   UNL     1       1.974   9.159  22.533  0.00  0.00    +0.000 OA
ATOM      8  N   UNL     1      -0.017   9.447  21.441  0.00  0.00    +0.000 N 
ATOM      9  H   UNL     1      -0.414   9.431  20.514  0.00  0.00    +0.000 HD
BRANCH   8  10
ATOM     10  C   UNL     1      -0.666  10.267  22.442  0.00  0.00    +0.000 C 
BRANCH  10  11
ATOM     11  C   UNL     1      -0.851  11.729  21.986  0.00  0.00    +0.000 C 
ATOM     12  C   UNL     1      -1.733  12.527  22.962  0.00  0.00    +0.000 C 
ATOM     13  C   UNL     1      -1.997  13.934  22.442  0.00  0.00    +0.000 C 
ATOM     14  O   UNL     1      -2.575  13.886  21.139  0.00  0.00    +0.000 OA
ATOM     15  C   UNL     1      -1.692  13.296  20.187  0.00  0.00    +0.000 C 
ATOM     16  C   UNL     1      -1.401  11.844  20.554  0.00  0.00    +0.000 C 
ENDBRANCH  10  11
ENDBRANCH   8  10
ENDBRANCH   5   6
BRANCH   1  18
ATOM     17  C   UNL     1       0.159   9.891  17.887  0.00  0.00    +0.000 C 
ATOM     18  C   UNL     1       1.519   9.806  18.557  0.00  0.00    +0.000 C 
ENDBRANCH   1  18
BRANCH   3  19
ATOM     19  C   UNL     1       2.803   4.888  18.745  0.00  0.00    +0.000 C 
BRANCH  19  20
ATOM     20  C   UNL     1       3.977   5.079  17.752  0.00  0.00    +0.000 A 
ATOM     21  C   UNL     1       4.071   4.396  16.530  0.00  0.00    +0.000 A 
ATOM     22  C   UNL     1       5.158   4.598  15.667  0.00  0.00    +0.000 A 
ATOM     23  C   UNL     1       6.171   5.520  15.958  0.00  0.00    +0.000 A 
ATOM     24  C   UNL     1       6.055   6.297  17.115  0.00  0.00    +0.000 A 
ATOM     25  C   UNL     1       6.918   7.461  17.512  0.00  0.00    +0.000 C 
ATOM     26  C   UNL     1       4.974   6.041  17.998  0.00  0.00    +0.000 A 
BRANCH  23  27
ATOM     27  O   UNL     1       7.129   5.570  14.981  0.00  0.00    +0.000 OA
BRANCH  27  28
ATOM     28  C   UNL     1       7.426   4.369  14.264  0.00  0.00    +0.000 C 
BRANCH  28  29
ATOM     29  C   UNL     1       7.857   4.700  12.826  0.00  0.00    +0.000 C 
ATOM     30  C   UNL     1       6.824   4.295  11.786  0.00  0.00    +0.000 C 
BRANCH  29  31
ATOM     31  O   UNL     1       8.110   6.101  12.695  0.00  0.00    +0.000 OA
ATOM     32  H   UNL     1       8.981   6.262  13.105  0.00  0.00    +0.000 HD
ENDBRANCH  29  31
ENDBRANCH  28  29
ENDBRANCH  27  28
ENDBRANCH  23  27
ENDBRANCH  19  20
BRANCH  19  33
ATOM     33  C   UNL     1       1.581   4.082  18.173  0.00  0.00    +0.000 C 
ATOM     34  C   UNL     1       0.945   3.032  19.084  0.00  0.00    +0.000 C 
ENDBRANCH  19  33
BRANCH  19  35
ATOM     35  C   UNL     1       3.337   4.136  20.022  0.00  0.00    +0.000 C 
ATOM     36  C   UNL     1       4.359   3.023  19.820  0.00  0.00    +0.000 C 
ENDBRANCH  19  35
ENDBRANCH   3  19
TORSDOF 12
ENDMDL
MODEL 8
REMARK VINA RESULT:      -7.3      2.703      9.645
REMARK  Name = 
REMARK  17 active torsions:
REMARK  status: ('A' for Active; 'I' for Inactive)
REMARK    1  A    between atoms: C_1  and  C_2
REMARK    2  A    between atoms: C_2  and  N_3
REMARK    3  A    between atoms: C_5  and  C_6
REMARK    4  A    between atoms: C_6  and  C_7
REMARK    5  A    between atoms: C_6  and  C_9
REMARK    6  A    between atoms: C_6  and  C_11
REMARK    7  A    between atoms: C_7  and  C_8
REMARK    8  A    between atoms: C_9  and  C_10
REMARK    9  A    between atoms: C_14  and  O_15
REMARK   10  A    between atoms: O_15  and  C_16
REMARK   11  A    between atoms: C_16  and  C_17
REMARK   12  A    between atoms: C_17  and  C_18
REMARK   13  A    between atoms: C_17  and  O_19
REMARK   14  A    between atoms: C_20  and  C_21
REMARK   15  A    between atoms: C_24  and  C_25
REMARK   16  A    between atoms: N_27  and  C_28
REMARK   17  A    between atoms: C_28  and  C_29
REMARK                            x       y       z     vdW  Elec       q    Type
REMARK                         _______ _______ _______ _____ _____    ______ ____
ROOT
ATOM      1  N   UNL     1       6.349   5.956  18.098  0.00  0.00    +0.000 N 
ATOM      2  C   UNL     1       5.277   6.118  18.945  0.00  0.00    +0.000 A 
ATOM      3  C   UNL     1       4.180   5.438  18.442  0.00  0.00    +0.000 A 
ATOM      4  C   UNL     1       4.655   4.839  17.238  0.00  0.00    +0.000 A 
ATOM      5  C   UNL     1       5.995   5.148  17.039  0.00  0.00    +0.000 A 
ENDROOT
BRANCH   5   6
ATOM      6  C   UNL     1       6.836   4.750  15.918  0.00  0.00    +0.000 C 
ATOM      7  O   UNL     1       7.991   4.353  16.023  0.00  0.00    +0.000 OA
ATOM      8  N   UNL     1       6.194   4.872  14.704  0.00  0.00    +0.000 N 
ATOM      9  H   UNL     1       5.188   4.942  14.737  0.00  0.00    +0.000 HD
BRANCH   8  10
ATOM     10  C   UNL     1       6.811   4.593  13.424  0.00  0.00    +0.000 C 
BRANCH  10  11
ATOM     11  C   UNL     1       6.217   3.349  12.734  0.00  0.00    +0.000 C 
ATOM     12  C   UNL     1       7.200   2.723  11.730  0.00  0.00    +0.000 C 
ATOM     13  C   UNL     1       6.560   1.564  10.978  0.00  0.00    +0.000 C 
ATOM     14  O   UNL     1       5.359   1.988  10.335  0.00  0.00    +0.000 OA
ATOM     15  C   UNL     1       4.374   2.413  11.274  0.00  0.00    +0.000 C 
ATOM     16  C   UNL     1       4.866   3.629  12.052  0.00  0.00    +0.000 C 
ENDBRANCH  10  11
ENDBRANCH   8  10
ENDBRANCH   5   6
BRANCH   1  18
ATOM     17  C   UNL     1       7.783   7.917  17.688  0.00  0.00    +0.000 C 
ATOM     18  C   UNL     1       7.644   6.562  18.358  0.00  0.00    +0.000 C 
ENDBRANCH   1  18
BRANCH   3  19
ATOM     19  C   UNL     1       2.747   5.357  19.019  0.00  0.00    +0.000 C 
BRANCH  19  20
ATOM     20  C   UNL     1       2.250   6.817  19.174  0.00  0.00    +0.000 A 
ATOM     21  C   UNL     1       2.144   7.713  18.100  0.00  0.00    +0.000 A 
ATOM     22  C   UNL     1       1.695   9.027  18.293  0.00  0.00    +0.000 A 
ATOM     23  C   UNL     1       1.286   9.492  19.549  0.00  0.00    +0.000 A 
ATOM     24  C   UNL     1       1.276   8.595  20.622  0.00  0.00    +0.000 A 
ATOM     25  C   UNL     1       0.703   8.830  21.991  0.00  0.00    +0.000 C 
ATOM     26  C   UNL     1       1.781   7.285  20.415  0.00  0.00    +0.000 A 
BRANCH  23  27
ATOM     27  O   UNL     1       0.875  10.797  19.515  0.00  0.00    +0.000 OA
BRANCH  27  28
ATOM     28  C   UNL     1       1.612  11.718  18.706  0.00  0.00    +0.000 C 
BRANCH  28  29
ATOM     29  C   UNL     1       0.949  13.104  18.739  0.00  0.00    +0.000 C 
ATOM     30  C   UNL     1       1.923  14.238  18.459  0.00  0.00    +0.000 C 
BRANCH  29  31
ATOM     31  O   UNL     1      -0.112  13.168  17.783  0.00  0.00    +0.000 OA
ATOM     32  H   UNL     1      -0.911  13.434  18.276  0.00  0.00    +0.000 HD
ENDBRANCH  29  31
ENDBRANCH  28  29
ENDBRANCH  27  28
ENDBRANCH  23  27
ENDBRANCH  19  20
BRANCH  19  33
ATOM     33  C   UNL     1       2.773   4.524  20.351  0.00  0.00    +0.000 C 
ATOM     34  C   UNL     1       1.460   3.886  20.804  0.00  0.00    +0.000 C 
ENDBRANCH  19  33
BRANCH  19  35
ATOM     35  C   UNL     1       1.816   4.614  17.988  0.00  0.00    +0.000 C 
ATOM     36  C   UNL     1       2.150   3.169  17.636  0.00  0.00    +0.000 C 
ENDBRANCH  19  35
ENDBRANCH   3  19
TORSDOF 12
ENDMDL
MODEL 9
REMARK VINA RESULT:      -7.3      2.437      3.235
REMARK  Name = 
REMARK  17 active torsions:
REMARK  status: ('A' for Active; 'I' for Inactive)
REMARK    1  A    between atoms: C_1  and  C_2
REMARK    2  A    between atoms: C_2  and  N_3
REMARK    3  A    between atoms: C_5  and  C_6
REMARK    4  A    between atoms: C_6  and  C_7
REMARK    5  A    between atoms: C_6  and  C_9
REMARK    6  A    between atoms: C_6  and  C_11
REMARK    7  A    between atoms: C_7  and  C_8
REMARK    8  A    between atoms: C_9  and  C_10
REMARK    9  A    between atoms: C_14  and  O_15
REMARK   10  A    between atoms: O_15  and  C_16
REMARK   11  A    between atoms: C_16  and  C_17
REMARK   12  A    between atoms: C_17  and  C_18
REMARK   13  A    between atoms: C_17  and  O_19
REMARK   14  A    between atoms: C_20  and  C_21
REMARK   15  A    between atoms: C_24  and  C_25
REMARK   16  A    between atoms: N_27  and  C_28
REMARK   17  A    between atoms: C_28  and  C_29
REMARK                            x       y       z     vdW  Elec       q    Type
REMARK                         _______ _______ _______ _____ _____    ______ ____
ROOT
ATOM      1  N   UNL     1       1.812   7.784  20.291  0.00  0.00    +0.000 N 
ATOM      2  C   UNL     1       2.315   6.513  20.450  0.00  0.00    +0.000 A 
ATOM      3  C   UNL     1       2.675   5.998  19.216  0.00  0.00    +0.000 A 
ATOM      4  C   UNL     1       2.373   7.042  18.293  0.00  0.00    +0.000 A 
ATOM      5  C   UNL     1       1.856   8.146  18.962  0.00  0.00    +0.000 A 
ENDROOT
BRANCH   5   6
ATOM      6  C   UNL     1       1.402   9.400  18.377  0.00  0.00    +0.000 C 
ATOM      7  O   UNL     1       2.058  10.079  17.596  0.00  0.00    +0.000 OA
ATOM      8  N   UNL     1       0.139   9.757  18.802  0.00  0.00    +0.000 N 
ATOM      9  H   UNL     1      -0.416   9.023  19.216  0.00  0.00    +0.000 HD
BRANCH   8  10
ATOM     10  C   UNL     1      -0.534  10.979  18.416  0.00  0.00    +0.000 C 
BRANCH  10  11
ATOM     11  C   UNL     1      -2.004  10.748  18.011  0.00  0.00    +0.000 C 
ATOM     12  C   UNL     1      -2.147  10.455  16.508  0.00  0.00    +0.000 C 
ATOM     13  C   UNL     1      -3.611  10.339  16.104  0.00  0.00    +0.000 C 
ATOM     14  O   UNL     1      -4.327  11.515  16.475  0.00  0.00    +0.000 OA
ATOM     15  C   UNL     1      -4.343  11.704  17.888  0.00  0.00    +0.000 C 
ATOM     16  C   UNL     1      -2.928  11.910  18.418  0.00  0.00    +0.000 C 
ENDBRANCH  10  11
ENDBRANCH   8  10
ENDBRANCH   5   6
BRANCH   1  18
ATOM     17  C   UNL     1      -0.132   8.353  21.693  0.00  0.00    +0.000 C 
ATOM     18  C   UNL     1       1.343   8.580  21.412  0.00  0.00    +0.000 C 
ENDBRANCH   1  18
BRANCH   3  19
ATOM     19  C   UNL     1       3.248   4.600  18.883  0.00  0.00    +0.000 C 
BRANCH  19  20
ATOM     20  C   UNL     1       4.398   4.824  17.869  0.00  0.00    +0.000 A 
ATOM     21  C   UNL     1       4.447   4.205  16.611  0.00  0.00    +0.000 A 
ATOM     22  C   UNL     1       5.513   4.436  15.730  0.00  0.00    +0.000 A 
ATOM     23  C   UNL     1       6.549   5.325  16.039  0.00  0.00    +0.000 A 
ATOM     24  C   UNL     1       6.479   6.041  17.239  0.00  0.00    +0.000 A 
ATOM     25  C   UNL     1       7.373   7.168  17.672  0.00  0.00    +0.000 C 
ATOM     26  C   UNL     1       5.418   5.756  18.137  0.00  0.00    +0.000 A 
BRANCH  23  27
ATOM     27  O   UNL     1       7.481   5.410  15.040  0.00  0.00    +0.000 OA
BRANCH  27  28
ATOM     28  C   UNL     1       7.418   4.461  13.973  0.00  0.00    +0.000 C 
BRANCH  28  29
ATOM     29  C   UNL     1       7.435   5.182  12.616  0.00  0.00    +0.000 C 
ATOM     30  C   UNL     1       8.655   6.071  12.428  0.00  0.00    +0.000 C 
BRANCH  29  31
ATOM     31  O   UNL     1       7.396   4.231  11.550  0.00  0.00    +0.000 OA
ATOM     32  H   UNL     1       8.308   3.899  11.444  0.00  0.00    +0.000 HD
ENDBRANCH  29  31
ENDBRANCH  28  29
ENDBRANCH  27  28
ENDBRANCH  23  27
ENDBRANCH  19  20
BRANCH  19  33
ATOM     33  C   UNL     1       2.086   3.675  18.368  0.00  0.00    +0.000 C 
ATOM     34  C   UNL     1       1.100   4.279  17.369  0.00  0.00    +0.000 C 
ENDBRANCH  19  33
BRANCH  19  35
ATOM     35  C   UNL     1       3.846   3.961  20.193  0.00  0.00    +0.000 C 
ATOM     36  C   UNL     1       4.442   2.561  20.097  0.00  0.00    +0.000 C 
ENDBRANCH  19  35
ENDBRANCH   3  19
TORSDOF 12
ENDMDL
