MODEL 1
REMARK VINA RESULT:      -8.3      0.000      0.000
REMARK  Name = 
REMARK  8 active torsions:
REMARK  status: ('A' for Active; 'I' for Inactive)
REMARK    1  A    between atoms: C_1  and  C_2
REMARK    2  A    between atoms: C_5  and  C_6
REMARK    3  A    between atoms: C_7  and  S_8
REMARK    4  A    between atoms: S_8  and  N_11
REMARK    5  A    between atoms: C_12  and  C_14
REMARK    6  A    between atoms: C_14  and  C_15
REMARK    7  A    between atoms: C_19  and  C_21
REMARK    8  A    between atoms: C_21  and  C_22
REMARK                            x       y       z     vdW  Elec       q    Type
REMARK                         _______ _______ _______ _____ _____    ______ ____
ROOT
ATOM      1  C   UNL     1       2.194   4.195  17.902  0.00  0.00    +0.000 C 
ATOM      2  C   UNL     1       0.961   4.780  17.203  0.00  0.00    +0.000 C 
ATOM      3  C   UNL     1       2.019   2.664  18.151  0.00  0.00    +0.000 C 
ATOM      4  C   UNL     1       1.501   2.993  19.549  0.00  0.00    +0.000 C 
ATOM      5  N   UNL     1       2.114   4.310  19.375  0.00  0.00    +0.000 N 
ATOM      6  C   UNL     1       2.228   5.262  20.354  0.00  0.00    +0.000 C 
ATOM      7  O   UNL     1       1.956   4.964  21.521  0.00  0.00    +0.000 OA
ENDROOT
BRANCH   1   9
ATOM      8  N   UNL     1       3.916   5.879  17.215  0.00  0.00    +0.000 N 
ATOM      9  C   UNL     1       3.565   4.528  17.152  0.00  0.00    +0.000 C 
ATOM     10  O   UNL     1       4.293   3.692  16.626  0.00  0.00    +0.000 OA
ATOM     11  H   UNL     1       3.354   6.546  17.733  0.00  0.00    +0.000 HD
BRANCH   8  12
ATOM     12  S   UNL     1       5.278   6.551  16.536  0.00  0.00    +0.000 S 
ATOM     13  O   UNL     1       5.612   7.676  17.372  0.00  0.00    +0.000 OA
ATOM     14  O   UNL     1       5.122   6.692  15.110  0.00  0.00    +0.000 OA
BRANCH  12  21
ATOM     15  C   UNL     1       6.816   5.471  19.403  0.00  0.00    +0.000 C 
ATOM     16  C   UNL     1       7.185   5.115  18.014  0.00  0.00    +0.000 A 
ATOM     17  N   UNL     1       8.192   4.257  17.794  0.00  0.00    +0.000 NA
ATOM     18  O   UNL     1       8.210   4.028  16.430  0.00  0.00    +0.000 OA
ATOM     19  C   UNL     1       7.222   4.748  15.835  0.00  0.00    +0.000 A 
ATOM     20  C   UNL     1       7.015   4.525  14.390  0.00  0.00    +0.000 C 
ATOM     21  C   UNL     1       6.591   5.506  16.795  0.00  0.00    +0.000 A 
ENDBRANCH  12  21
ENDBRANCH   8  12
ENDBRANCH   1   9
BRANCH   6  22
ATOM     22  C   UNL     1       2.714   6.663  20.005  0.00  0.00    +0.000 C 
BRANCH  22  23
ATOM     23  C   UNL     1       1.719   7.794  20.250  0.00  0.00    +0.000 A 
ATOM     24  C   UNL     1       0.994   7.893  21.453  0.00  0.00    +0.000 A 
ATOM     25  C   UNL     1       0.114   8.958  21.686  0.00  0.00    +0.000 A 
ATOM     26  C   UNL     1      -0.074   9.933  20.714  0.00  0.00    +0.000 A 
ATOM     27 CL   UNL     1      -1.102  11.276  21.029  0.00  0.00    +0.000 Cl
ATOM     28  C   UNL     1       0.566   9.822  19.487  0.00  0.00    +0.000 A 
ATOM     29  C   UNL     1       1.436   8.749  19.248  0.00  0.00    +0.000 A 
ATOM     30 CL   UNL     1       2.155   8.657  17.679  0.00  0.00    +0.000 Cl
ENDBRANCH  22  23
ENDBRANCH   6  22
TORSDOF 5
ENDMDL
MODEL 2
REMARK VINA RESULT:      -7.7      3.412      7.010
REMARK  Name = 
REMARK  8 active torsions:
REMARK  status: ('A' for Active; 'I' for Inactive)
REMARK    1  A    between atoms: C_1  and  C_2
REMARK    2  A    between atoms: C_5  and  C_6
REMARK    3  A    between atoms: C_7  and  S_8
REMARK    4  A    between atoms: S_8  and  N_11
REMARK    5  A    between atoms: C_12  and  C_14
REMARK    6  A    between atoms: C_14  and  C_15
REMARK    7  A    between atoms: C_19  and  C_21
REMARK    8  A    between atoms: C_21  and  C_22
REMARK                            x       y       z     vdW  Elec       q    Type
REMARK                         _______ _______ _______ _____ _____    ______ ____
ROOT
ATOM      1  C   UNL     1       2.064   4.709  19.869  0.00  0.00    +0.000 C 
ATOM      2  C   UNL     1       2.222   5.211  21.308  0.00  0.00    +0.000 C 
ATOM      3  C   UNL     1       0.800   3.804  19.729  0.00  0.00    +0.000 C 
ATOM      4  C   UNL     1       1.695   2.589  19.955  0.00  0.00    +0.000 C 
ATOM      5  N   UNL     1       2.821   3.462  19.621  0.00  0.00    +0.000 N 
ATOM      6  C   UNL     1       4.114   3.045  19.439  0.00  0.00    +0.000 C 
ATOM      7  O   UNL     1       4.357   1.836  19.380  0.00  0.00    +0.000 OA
ENDROOT
BRANCH   1   9
ATOM      8  N   UNL     1       1.857   7.146  19.327  0.00  0.00    +0.000 N 
ATOM      9  C   UNL     1       2.086   5.879  18.781  0.00  0.00    +0.000 C 
ATOM     10  O   UNL     1       2.343   5.723  17.593  0.00  0.00    +0.000 OA
ATOM     11  H   UNL     1       1.739   7.275  20.326  0.00  0.00    +0.000 HD
BRANCH   8  12
ATOM     12  S   UNL     1       1.812   8.569  18.468  0.00  0.00    +0.000 S 
ATOM     13  O   UNL     1       0.666   8.461  17.601  0.00  0.00    +0.000 OA
ATOM     14  O   UNL     1       3.117   8.898  17.954  0.00  0.00    +0.000 OA
BRANCH  12  21
ATOM     15  C   UNL     1       2.064  11.978  18.204  0.00  0.00    +0.000 C 
ATOM     16  C   UNL     1       1.505  11.219  19.345  0.00  0.00    +0.000 A 
ATOM     17  N   UNL     1       0.996  11.880  20.395  0.00  0.00    +0.000 NA
ATOM     18  O   UNL     1       0.443  10.918  21.223  0.00  0.00    +0.000 OA
ATOM     19  C   UNL     1       0.625   9.687  20.673  0.00  0.00    +0.000 A 
ATOM     20  C   UNL     1      -0.016   8.551  21.364  0.00  0.00    +0.000 C 
ATOM     21  C   UNL     1       1.355   9.826  19.515  0.00  0.00    +0.000 A 
ENDBRANCH  12  21
ENDBRANCH   8  12
ENDBRANCH   1   9
BRANCH   6  22
ATOM     22  C   UNL     1       5.231   4.069  19.281  0.00  0.00    +0.000 C 
BRANCH  22  23
ATOM     23  C   UNL     1       5.751   4.274  17.861  0.00  0.00    +0.000 A 
ATOM     24  C   UNL     1       5.086   3.731  16.744  0.00  0.00    +0.000 A 
ATOM     25  C   UNL     1       5.547   3.960  15.441  0.00  0.00    +0.000 A 
ATOM     26  C   UNL     1       6.693   4.719  15.229  0.00  0.00    +0.000 A 
ATOM     27 CL   UNL     1       7.218   5.056  13.626  0.00  0.00    +0.000 Cl
ATOM     28  C   UNL     1       7.415   5.202  16.312  0.00  0.00    +0.000 A 
ATOM     29  C   UNL     1       6.961   4.961  17.617  0.00  0.00    +0.000 A 
ATOM     30 CL   UNL     1       7.942   5.556  18.909  0.00  0.00    +0.000 Cl
ENDBRANCH  22  23
ENDBRANCH   6  22
TORSDOF 5
ENDMDL
MODEL 3
REMARK VINA RESULT:      -7.6      3.404      6.943
REMARK  Name = 
REMARK  8 active torsions:
REMARK  status: ('A' for Active; 'I' for Inactive)
REMARK    1  A    between atoms: C_1  and  C_2
REMARK    2  A    between atoms: C_5  and  C_6
REMARK    3  A    between atoms: C_7  and  S_8
REMARK    4  A    between atoms: S_8  and  N_11
REMARK    5  A    between atoms: C_12  and  C_14
REMARK    6  A    between atoms: C_14  and  C_15
REMARK    7  A    between atoms: C_19  and  C_21
REMARK    8  A    between atoms: C_21  and  C_22
REMARK                            x       y       z     vdW  Elec       q    Type
REMARK                         _______ _______ _______ _____ _____    ______ ____
ROOT
ATOM      1  C   UNL     1       2.097   4.824  19.795  0.00  0.00    +0.000 C 
ATOM      2  C   UNL     1       2.268   5.271  21.251  0.00  0.00    +0.000 C 
ATOM      3  C   UNL     1       0.795   3.982  19.620  0.00  0.00    +0.000 C 
ATOM      4  C   UNL     1       1.633   2.720  19.810  0.00  0.00    +0.000 C 
ATOM      5  N   UNL     1       2.800   3.553  19.511  0.00  0.00    +0.000 N 
ATOM      6  C   UNL     1       4.073   3.085  19.321  0.00  0.00    +0.000 C 
ATOM      7  O   UNL     1       4.263   1.868  19.224  0.00  0.00    +0.000 OA
ENDROOT
BRANCH   1   9
ATOM      8  N   UNL     1       1.808   7.260  19.292  0.00  0.00    +0.000 N 
ATOM      9  C   UNL     1       2.178   6.027  18.747  0.00  0.00    +0.000 C 
ATOM     10  O   UNL     1       2.585   5.923  17.596  0.00  0.00    +0.000 OA
ATOM     11  H   UNL     1       1.562   7.351  20.271  0.00  0.00    +0.000 HD
BRANCH   8  12
ATOM     12  S   UNL     1       1.780   8.705  18.468  0.00  0.00    +0.000 S 
ATOM     13  O   UNL     1       0.632   8.632  17.599  0.00  0.00    +0.000 OA
ATOM     14  O   UNL     1       3.089   9.031  17.961  0.00  0.00    +0.000 OA
BRANCH  12  21
ATOM     15  C   UNL     1       0.649   8.629  21.703  0.00  0.00    +0.000 C 
ATOM     16  C   UNL     1       0.863   9.834  20.870  0.00  0.00    +0.000 A 
ATOM     17  N   UNL     1       0.644  11.049  21.393  0.00  0.00    +0.000 NA
ATOM     18  O   UNL     1       1.049  11.959  20.432  0.00  0.00    +0.000 OA
ATOM     19  C   UNL     1       1.504  11.291  19.338  0.00  0.00    +0.000 A 
ATOM     20  C   UNL     1       2.094  12.108  18.259  0.00  0.00    +0.000 C 
ATOM     21  C   UNL     1       1.338   9.941  19.546  0.00  0.00    +0.000 A 
ENDBRANCH  12  21
ENDBRANCH   8  12
ENDBRANCH   1   9
BRANCH   6  22
ATOM     22  C   UNL     1       5.236   4.062  19.203  0.00  0.00    +0.000 C 
BRANCH  22  23
ATOM     23  C   UNL     1       5.779   4.284  17.794  0.00  0.00    +0.000 A 
ATOM     24  C   UNL     1       5.142   3.740  16.661  0.00  0.00    +0.000 A 
ATOM     25  C   UNL     1       5.624   3.983  15.368  0.00  0.00    +0.000 A 
ATOM     26  C   UNL     1       6.763   4.758  15.183  0.00  0.00    +0.000 A 
ATOM     27 CL   UNL     1       7.313   5.113  13.592  0.00  0.00    +0.000 Cl
ATOM     28  C   UNL     1       7.458   5.244  16.282  0.00  0.00    +0.000 A 
ATOM     29  C   UNL     1       6.984   4.988  17.576  0.00  0.00    +0.000 A 
ATOM     30 CL   UNL     1       7.934   5.587  18.891  0.00  0.00    +0.000 Cl
ENDBRANCH  22  23
ENDBRANCH   6  22
TORSDOF 5
ENDMDL
MODEL 4
REMARK VINA RESULT:      -7.5      1.763      2.423
REMARK  Name = 
REMARK  8 active torsions:
REMARK  status: ('A' for Active; 'I' for Inactive)
REMARK    1  A    between atoms: C_1  and  C_2
REMARK    2  A    between atoms: C_5  and  C_6
REMARK    3  A    between atoms: C_7  and  S_8
REMARK    4  A    between atoms: S_8  and  N_11
REMARK    5  A    between atoms: C_12  and  C_14
REMARK    6  A    between atoms: C_14  and  C_15
REMARK    7  A    between atoms: C_19  and  C_21
REMARK    8  A    between atoms: C_21  and  C_22
REMARK                            x       y       z     vdW  Elec       q    Type
REMARK                         _______ _______ _______ _____ _____    ______ ____
ROOT
ATOM      1  C   UNL     1       2.426   5.284  18.760  0.00  0.00    +0.000 C 
ATOM      2  C   UNL     1       1.119   4.706  18.204  0.00  0.00    +0.000 C 
ATOM      3  C   UNL     1       2.880   4.509  20.036  0.00  0.00    +0.000 C 
ATOM      4  C   UNL     1       2.166   5.562  20.880  0.00  0.00    +0.000 C 
ATOM      5  N   UNL     1       2.193   6.412  19.689  0.00  0.00    +0.000 N 
ATOM      6  C   UNL     1       1.828   7.732  19.655  0.00  0.00    +0.000 C 
ATOM      7  O   UNL     1       1.614   8.328  20.716  0.00  0.00    +0.000 OA
ENDROOT
BRANCH   1   9
ATOM      8  N   UNL     1       4.386   6.521  17.812  0.00  0.00    +0.000 N 
ATOM      9  C   UNL     1       3.591   5.380  17.671  0.00  0.00    +0.000 C 
ATOM     10  O   UNL     1       3.831   4.522  16.829  0.00  0.00    +0.000 OA
ATOM     11  H   UNL     1       4.237   7.177  18.570  0.00  0.00    +0.000 HD
BRANCH   8  12
ATOM     12  S   UNL     1       5.676   6.919  16.840  0.00  0.00    +0.000 S 
ATOM     13  O   UNL     1       6.332   8.020  17.499  0.00  0.00    +0.000 OA
ATOM     14  O   UNL     1       5.271   7.001  15.460  0.00  0.00    +0.000 OA
BRANCH  12  21
ATOM     15  C   UNL     1       7.466   5.681  19.489  0.00  0.00    +0.000 C 
ATOM     16  C   UNL     1       7.555   5.238  18.079  0.00  0.00    +0.000 A 
ATOM     17  N   UNL     1       8.374   4.229  17.751  0.00  0.00    +0.000 NA
ATOM     18  O   UNL     1       8.143   3.967  16.412  0.00  0.00    +0.000 OA
ATOM     19  C   UNL     1       7.193   4.818  15.940  0.00  0.00    +0.000 A 
ATOM     20  C   UNL     1       6.731   4.595  14.556  0.00  0.00    +0.000 C 
ATOM     21  C   UNL     1       6.842   5.688  16.947  0.00  0.00    +0.000 A 
ENDBRANCH  12  21
ENDBRANCH   8  12
ENDBRANCH   1   9
BRANCH   6  22
ATOM     22  C   UNL     1       1.718   8.460  18.322  0.00  0.00    +0.000 C 
BRANCH  22  23
ATOM     23  C   UNL     1       1.492   9.968  18.402  0.00  0.00    +0.000 A 
ATOM     24  C   UNL     1       2.548  10.884  18.234  0.00  0.00    +0.000 A 
ATOM     25  C   UNL     1       2.324  12.267  18.268  0.00  0.00    +0.000 A 
ATOM     26  C   UNL     1       1.044  12.760  18.490  0.00  0.00    +0.000 A 
ATOM     27 CL   UNL     1       0.758  14.457  18.463  0.00  0.00    +0.000 Cl
ATOM     28  C   UNL     1      -0.005  11.885  18.738  0.00  0.00    +0.000 A 
ATOM     29  C   UNL     1       0.222  10.501  18.718  0.00  0.00    +0.000 A 
ATOM     30 CL   UNL     1      -1.124   9.481  19.083  0.00  0.00    +0.000 Cl
ENDBRANCH  22  23
ENDBRANCH   6  22
TORSDOF 5
ENDMDL
MODEL 5
REMARK VINA RESULT:      -7.4      1.123      1.485
REMARK  Name = 
REMARK  8 active torsions:
REMARK  status: ('A' for Active; 'I' for Inactive)
REMARK    1  A    between atoms: C_1  and  C_2
REMARK    2  A    between atoms: C_5  and  C_6
REMARK    3  A    between atoms: C_7  and  S_8
REMARK    4  A    between atoms: S_8  and  N_11
REMARK    5  A    between atoms: C_12  and  C_14
REMARK    6  A    between atoms: C_14  and  C_15
REMARK    7  A    between atoms: C_19  and  C_21
REMARK    8  A    between atoms: C_21  and  C_22
REMARK                            x       y       z     vdW  Elec       q    Type
REMARK                         _______ _______ _______ _____ _____    ______ ____
ROOT
ATOM      1  C   UNL     1       2.194   4.548  17.911  0.00  0.00    +0.000 C 
ATOM      2  C   UNL     1       1.002   5.117  17.132  0.00  0.00    +0.000 C 
ATOM      3  C   UNL     1       1.961   3.046  18.268  0.00  0.00    +0.000 C 
ATOM      4  C   UNL     1       1.413   3.495  19.620  0.00  0.00    +0.000 C 
ATOM      5  N   UNL     1       2.075   4.776  19.368  0.00  0.00    +0.000 N 
ATOM      6  C   UNL     1       2.193   5.794  20.277  0.00  0.00    +0.000 C 
ATOM      7  O   UNL     1       1.877   5.594  21.454  0.00  0.00    +0.000 OA
ENDROOT
BRANCH   1   9
ATOM      8  N   UNL     1       4.014   6.113  17.198  0.00  0.00    +0.000 N 
ATOM      9  C   UNL     1       3.597   4.779  17.183  0.00  0.00    +0.000 C 
ATOM     10  O   UNL     1       4.293   3.888  16.710  0.00  0.00    +0.000 OA
ATOM     11  H   UNL     1       3.475   6.828  17.674  0.00  0.00    +0.000 HD
BRANCH   8  12
ATOM     12  S   UNL     1       5.423   6.687  16.525  0.00  0.00    +0.000 S 
ATOM     13  O   UNL     1       5.821   7.799  17.352  0.00  0.00    +0.000 OA
ATOM     14  O   UNL     1       5.291   6.821  15.097  0.00  0.00    +0.000 OA
BRANCH  12  21
ATOM     15  C   UNL     1       6.861   5.547  19.421  0.00  0.00    +0.000 C 
ATOM     16  C   UNL     1       7.220   5.150  18.040  0.00  0.00    +0.000 A 
ATOM     17  N   UNL     1       8.171   4.226  17.841  0.00  0.00    +0.000 NA
ATOM     18  O   UNL     1       8.186   3.978  16.480  0.00  0.00    +0.000 OA
ATOM     19  C   UNL     1       7.252   4.753  15.867  0.00  0.00    +0.000 A 
ATOM     20  C   UNL     1       7.045   4.525  14.423  0.00  0.00    +0.000 C 
ATOM     21  C   UNL     1       6.664   5.563  16.811  0.00  0.00    +0.000 A 
ENDBRANCH  12  21
ENDBRANCH   8  12
ENDBRANCH   1   9
BRANCH   6  22
ATOM     22  C   UNL     1       2.736   7.149  19.840  0.00  0.00    +0.000 C 
BRANCH  22  23
ATOM     23  C   UNL     1       1.690   8.199  19.472  0.00  0.00    +0.000 A 
ATOM     24  C   UNL     1       1.411   8.526  18.131  0.00  0.00    +0.000 A 
ATOM     25  C   UNL     1       0.420   9.460  17.801  0.00  0.00    +0.000 A 
ATOM     26  C   UNL     1      -0.296  10.101  18.805  0.00  0.00    +0.000 A 
ATOM     27 CL   UNL     1      -1.559  11.196  18.397  0.00  0.00    +0.000 Cl
ATOM     28  C   UNL     1       0.009   9.859  20.138  0.00  0.00    +0.000 A 
ATOM     29  C   UNL     1       1.010   8.934  20.468  0.00  0.00    +0.000 A 
ATOM     30 CL   UNL     1       1.361   8.726  22.147  0.00  0.00    +0.000 Cl
ENDBRANCH  22  23
ENDBRANCH   6  22
TORSDOF 5
ENDMDL
MODEL 6
REMARK VINA RESULT:      -7.4      1.300      1.752
REMARK  Name = 
REMARK  8 active torsions:
REMARK  status: ('A' for Active; 'I' for Inactive)
REMARK    1  A    between atoms: C_1  and  C_2
REMARK    2  A    between atoms: C_5  and  C_6
REMARK    3  A    between atoms: C_7  and  S_8
REMARK    4  A    between atoms: S_8  and  N_11
REMARK    5  A    between atoms: C_12  and  C_14
REMARK    6  A    between atoms: C_14  and  C_15
REMARK    7  A    between atoms: C_19  and  C_21
REMARK    8  A    between atoms: C_21  and  C_22
REMARK                            x       y       z     vdW  Elec       q    Type
REMARK                         _______ _______ _______ _____ _____    ______ ____
ROOT
ATOM      1  C   UNL     1       2.133   3.769  17.910  0.00  0.00    +0.000 C 
ATOM      2  C   UNL     1       1.016   4.435  17.100  0.00  0.00    +0.000 C 
ATOM      3  C   UNL     1       1.785   2.279  18.222  0.00  0.00    +0.000 C 
ATOM      4  C   UNL     1       1.215   2.736  19.562  0.00  0.00    +0.000 C 
ATOM      5  N   UNL     1       1.972   3.973  19.367  0.00  0.00    +0.000 N 
ATOM      6  C   UNL     1       2.121   4.962  20.304  0.00  0.00    +0.000 C 
ATOM      7  O   UNL     1       1.745   4.758  21.463  0.00  0.00    +0.000 OA
ENDROOT
BRANCH   1   9
ATOM      8  N   UNL     1       4.025   5.242  17.186  0.00  0.00    +0.000 N 
ATOM      9  C   UNL     1       3.577   3.919  17.243  0.00  0.00    +0.000 C 
ATOM     10  O   UNL     1       4.276   2.982  16.872  0.00  0.00    +0.000 OA
ATOM     11  H   UNL     1       3.479   6.000  17.580  0.00  0.00    +0.000 HD
BRANCH   8  12
ATOM     12  S   UNL     1       5.480   5.738  16.550  0.00  0.00    +0.000 S 
ATOM     13  O   UNL     1       5.276   7.104  16.137  0.00  0.00    +0.000 OA
ATOM     14  O   UNL     1       6.006   4.748  15.644  0.00  0.00    +0.000 OA
BRANCH  12  21
ATOM     15  C   UNL     1       7.879   8.103  17.185  0.00  0.00    +0.000 C 
ATOM     16  C   UNL     1       7.578   6.907  18.005  0.00  0.00    +0.000 A 
ATOM     17  N   UNL     1       8.255   6.695  19.142  0.00  0.00    +0.000 NA
ATOM     18  O   UNL     1       7.669   5.591  19.737  0.00  0.00    +0.000 OA
ATOM     19  C   UNL     1       6.649   5.143  18.958  0.00  0.00    +0.000 A 
ATOM     20  C   UNL     1       5.830   4.043  19.505  0.00  0.00    +0.000 C 
ATOM     21  C   UNL     1       6.601   5.906  17.814  0.00  0.00    +0.000 A 
ENDBRANCH  12  21
ENDBRANCH   8  12
ENDBRANCH   1   9
BRANCH   6  22
ATOM     22  C   UNL     1       2.772   6.285  19.921  0.00  0.00    +0.000 C 
BRANCH  22  23
ATOM     23  C   UNL     1       1.904   7.529  20.093  0.00  0.00    +0.000 A 
ATOM     24  C   UNL     1       1.157   7.753  21.266  0.00  0.00    +0.000 A 
ATOM     25  C   UNL     1       0.396   8.917  21.433  0.00  0.00    +0.000 A 
ATOM     26  C   UNL     1       0.351   9.871  20.423  0.00  0.00    +0.000 A 
ATOM     27 CL   UNL     1      -0.528  11.332  20.658  0.00  0.00    +0.000 Cl
ATOM     28  C   UNL     1       1.013   9.645  19.224  0.00  0.00    +0.000 A 
ATOM     29  C   UNL     1       1.763   8.473  19.052  0.00  0.00    +0.000 A 
ATOM     30 CL   UNL     1       2.516   8.244  17.513  0.00  0.00    +0.000 Cl
ENDBRANCH  22  23
ENDBRANCH   6  22
TORSDOF 5
ENDMDL
MODEL 7
REMARK VINA RESULT:      -7.3      1.898      2.368
REMARK  Name = 
REMARK  8 active torsions:
REMARK  status: ('A' for Active; 'I' for Inactive)
REMARK    1  A    between atoms: C_1  and  C_2
REMARK    2  A    between atoms: C_5  and  C_6
REMARK    3  A    between atoms: C_7  and  S_8
REMARK    4  A    between atoms: S_8  and  N_11
REMARK    5  A    between atoms: C_12  and  C_14
REMARK    6  A    between atoms: C_14  and  C_15
REMARK    7  A    between atoms: C_19  and  C_21
REMARK    8  A    between atoms: C_21  and  C_22
REMARK                            x       y       z     vdW  Elec       q    Type
REMARK                         _______ _______ _______ _____ _____    ______ ____
ROOT
ATOM      1  C   UNL     1       2.905   3.282  18.847  0.00  0.00    +0.000 C 
ATOM      2  C   UNL     1       2.532   3.481  17.373  0.00  0.00    +0.000 C 
ATOM      3  C   UNL     1       2.339   1.932  19.388  0.00  0.00    +0.000 C 
ATOM      4  C   UNL     1       1.120   2.695  19.898  0.00  0.00    +0.000 C 
ATOM      5  N   UNL     1       1.929   3.908  19.765  0.00  0.00    +0.000 N 
ATOM      6  C   UNL     1       1.563   5.152  20.208  0.00  0.00    +0.000 C 
ATOM      7  O   UNL     1       0.562   5.269  20.922  0.00  0.00    +0.000 OA
ENDROOT
BRANCH   1   9
ATOM      8  N   UNL     1       5.017   4.609  18.613  0.00  0.00    +0.000 N 
ATOM      9  C   UNL     1       4.471   3.431  19.130  0.00  0.00    +0.000 C 
ATOM     10  O   UNL     1       5.138   2.643  19.791  0.00  0.00    +0.000 OA
ATOM     11  H   UNL     1       4.436   5.299  18.149  0.00  0.00    +0.000 HD
BRANCH   8  12
ATOM     12  S   UNL     1       6.612   5.063  18.734  0.00  0.00    +0.000 S 
ATOM     13  O   UNL     1       7.343   4.127  17.917  0.00  0.00    +0.000 OA
ATOM     14  O   UNL     1       6.974   5.304  20.108  0.00  0.00    +0.000 OA
BRANCH  12  21
ATOM     15  C   UNL     1       8.798   7.664  19.190  0.00  0.00    +0.000 C 
ATOM     16  C   UNL     1       7.750   7.563  18.150  0.00  0.00    +0.000 A 
ATOM     17  N   UNL     1       7.619   8.542  17.243  0.00  0.00    +0.000 NA
ATOM     18  O   UNL     1       6.661   8.106  16.344  0.00  0.00    +0.000 OA
ATOM     19  C   UNL     1       6.218   6.875  16.714  0.00  0.00    +0.000 A 
ATOM     20  C   UNL     1       5.279   6.204  15.793  0.00  0.00    +0.000 C 
ATOM     21  C   UNL     1       6.831   6.523  17.894  0.00  0.00    +0.000 A 
ENDBRANCH  12  21
ENDBRANCH   8  12
ENDBRANCH   1   9
BRANCH   6  22
ATOM     22  C   UNL     1       2.403   6.369  19.845  0.00  0.00    +0.000 C 
BRANCH  22  23
ATOM     23  C   UNL     1       1.746   7.727  20.081  0.00  0.00    +0.000 A 
ATOM     24  C   UNL     1       1.112   8.039  21.300  0.00  0.00    +0.000 A 
ATOM     25  C   UNL     1       0.548   9.303  21.523  0.00  0.00    +0.000 A 
ATOM     26  C   UNL     1       0.590  10.271  20.527  0.00  0.00    +0.000 A 
ATOM     27 CL   UNL     1      -0.041  11.843  20.828  0.00  0.00    +0.000 Cl
ATOM     28  C   UNL     1       1.139   9.969  19.288  0.00  0.00    +0.000 A 
ATOM     29  C   UNL     1       1.690   8.700  19.059  0.00  0.00    +0.000 A 
ATOM     30 CL   UNL     1       2.309   8.389  17.476  0.00  0.00    +0.000 Cl
ENDBRANCH  22  23
ENDBRANCH   6  22
TORSDOF 5
ENDMDL
MODEL 8
REMARK VINA RESULT:      -7.3      3.167      5.526
REMARK  Name = 
REMARK  8 active torsions:
REMARK  status: ('A' for Active; 'I' for Inactive)
REMARK    1  A    between atoms: C_1  and  C_2
REMARK    2  A    between atoms: C_5  and  C_6
REMARK    3  A    between atoms: C_7  and  S_8
REMARK    4  A    between atoms: S_8  and  N_11
REMARK    5  A    between atoms: C_12  and  C_14
REMARK    6  A    between atoms: C_14  and  C_15
REMARK    7  A    between atoms: C_19  and  C_21
REMARK    8  A    between atoms: C_21  and  C_22
REMARK                            x       y       z     vdW  Elec       q    Type
REMARK                         _______ _______ _______ _____ _____    ______ ____
ROOT
ATOM      1  C   UNL     1       0.955   8.663  20.815  0.00  0.00    +0.000 C 
ATOM      2  C   UNL     1      -0.496   8.171  20.782  0.00  0.00    +0.000 C 
ATOM      3  C   UNL     1       1.607   8.383  22.205  0.00  0.00    +0.000 C 
ATOM      4  C   UNL     1       1.217   9.798  22.627  0.00  0.00    +0.000 C 
ATOM      5  N   UNL     1       1.058  10.088  21.201  0.00  0.00    +0.000 N 
ATOM      6  C   UNL     1       0.832  11.331  20.671  0.00  0.00    +0.000 C 
ATOM      7  O   UNL     1       0.929  12.325  21.397  0.00  0.00    +0.000 OA
ENDROOT
BRANCH   1   9
ATOM      8  N   UNL     1       2.485   6.896  19.915  0.00  0.00    +0.000 N 
ATOM      9  C   UNL     1       1.844   8.101  19.612  0.00  0.00    +0.000 C 
ATOM     10  O   UNL     1       1.920   8.615  18.502  0.00  0.00    +0.000 OA
ATOM     11  H   UNL     1       2.341   6.432  20.805  0.00  0.00    +0.000 HD
BRANCH   8  12
ATOM     12  S   UNL     1       3.483   6.054  18.885  0.00  0.00    +0.000 S 
ATOM     13  O   UNL     1       4.576   5.586  19.702  0.00  0.00    +0.000 OA
ATOM     14  O   UNL     1       3.715   6.798  17.673  0.00  0.00    +0.000 OA
BRANCH  12  21
ATOM     15  C   UNL     1       4.215   3.709  16.494  0.00  0.00    +0.000 C 
ATOM     16  C   UNL     1       3.069   3.688  17.430  0.00  0.00    +0.000 A 
ATOM     17  N   UNL     1       2.217   2.652  17.413  0.00  0.00    +0.000 NA
ATOM     18  O   UNL     1       1.346   2.854  18.469  0.00  0.00    +0.000 OA
ATOM     19  C   UNL     1       1.673   4.007  19.113  0.00  0.00    +0.000 A 
ATOM     20  C   UNL     1       0.921   4.313  20.347  0.00  0.00    +0.000 C 
ATOM     21  C   UNL     1       2.716   4.604  18.444  0.00  0.00    +0.000 A 
ENDBRANCH  12  21
ENDBRANCH   8  12
ENDBRANCH   1   9
BRANCH   6  22
ATOM     22  C   UNL     1       0.495  11.481  19.192  0.00  0.00    +0.000 C 
BRANCH  22  23
ATOM     23  C   UNL     1      -0.975  11.306  18.823  0.00  0.00    +0.000 A 
ATOM     24  C   UNL     1      -1.421  10.212  18.056  0.00  0.00    +0.000 A 
ATOM     25  C   UNL     1      -2.779  10.037  17.757  0.00  0.00    +0.000 A 
ATOM     26  C   UNL     1      -3.715  10.964  18.202  0.00  0.00    +0.000 A 
ATOM     27 CL   UNL     1      -5.388  10.711  17.893  0.00  0.00    +0.000 Cl
ATOM     28  C   UNL     1      -3.299  12.094  18.893  0.00  0.00    +0.000 A 
ATOM     29  C   UNL     1      -1.939  12.276  19.179  0.00  0.00    +0.000 A 
ATOM     30 CL   UNL     1      -1.500  13.732  20.001  0.00  0.00    +0.000 Cl
ENDBRANCH  22  23
ENDBRANCH   6  22
TORSDOF 5
ENDMDL
MODEL 9
REMARK VINA RESULT:      -7.3      5.457      9.371
REMARK  Name = 
REMARK  8 active torsions:
REMARK  status: ('A' for Active; 'I' for Inactive)
REMARK    1  A    between atoms: C_1  and  C_2
REMARK    2  A    between atoms: C_5  and  C_6
REMARK    3  A    between atoms: C_7  and  S_8
REMARK    4  A    between atoms: S_8  and  N_11
REMARK    5  A    between atoms: C_12  and  C_14
REMARK    6  A    between atoms: C_14  and  C_15
REMARK    7  A    between atoms: C_19  and  C_21
REMARK    8  A    between atoms: C_21  and  C_22
REMARK                            x       y       z     vdW  Elec       q    Type
REMARK                         _______ _______ _______ _____ _____    ______ ____
ROOT
ATOM      1  C   UNL     1       0.692  10.038  19.685  0.00  0.00    +0.000 C 
ATOM      2  C   UNL     1       1.767  11.112  19.482  0.00  0.00    +0.000 C 
ATOM      3  C   UNL     1       0.096  10.111  21.126  0.00  0.00    +0.000 C 
ATOM      4  C   UNL     1       1.105   9.048  21.552  0.00  0.00    +0.000 C 
ATOM      5  N   UNL     1       1.262   8.747  20.128  0.00  0.00    +0.000 N 
ATOM      6  C   UNL     1       1.972   7.692  19.620  0.00  0.00    +0.000 C 
ATOM      7  O   UNL     1       2.385   6.815  20.386  0.00  0.00    +0.000 OA
ENDROOT
BRANCH   1   9
ATOM      8  N   UNL     1      -1.588  10.771  18.949  0.00  0.00    +0.000 N 
ATOM      9  C   UNL     1      -0.447  10.060  18.565  0.00  0.00    +0.000 C 
ATOM     10  O   UNL     1      -0.334   9.571  17.446  0.00  0.00    +0.000 OA
ATOM     11  H   UNL     1      -1.633  11.251  19.841  0.00  0.00    +0.000 HD
BRANCH   8  12
ATOM     12  S   UNL     1      -2.949  10.979  18.017  0.00  0.00    +0.000 S 
ATOM     13  O   UNL     1      -3.584   9.686  17.965  0.00  0.00    +0.000 OA
ATOM     14  O   UNL     1      -2.641  11.716  16.817  0.00  0.00    +0.000 OA
BRANCH  12  21
ATOM     15  C   UNL     1      -2.660  12.833  20.887  0.00  0.00    +0.000 C 
ATOM     16  C   UNL     1      -3.889  12.630  20.086  0.00  0.00    +0.000 A 
ATOM     17  N   UNL     1      -5.026  13.239  20.451  0.00  0.00    +0.000 NA
ATOM     18  O   UNL     1      -5.945  12.966  19.453  0.00  0.00    +0.000 OA
ATOM     19  C   UNL     1      -5.361  12.194  18.497  0.00  0.00    +0.000 A 
ATOM     20  C   UNL     1      -6.164  11.911  17.291  0.00  0.00    +0.000 C 
ATOM     21  C   UNL     1      -4.077  11.899  18.894  0.00  0.00    +0.000 A 
ENDBRANCH  12  21
ENDBRANCH   8  12
ENDBRANCH   1   9
BRANCH   6  22
ATOM     22  C   UNL     1       2.221   7.590  18.121  0.00  0.00    +0.000 C 
BRANCH  22  23
ATOM     23  C   UNL     1       3.441   6.773  17.702  0.00  0.00    +0.000 A 
ATOM     24  C   UNL     1       4.670   7.387  17.388  0.00  0.00    +0.000 A 
ATOM     25  C   UNL     1       5.796   6.627  17.045  0.00  0.00    +0.000 A 
ATOM     26  C   UNL     1       5.711   5.240  16.989  0.00  0.00    +0.000 A 
ATOM     27 CL   UNL     1       7.111   4.306  16.636  0.00  0.00    +0.000 Cl
ATOM     28  C   UNL     1       4.495   4.610  17.216  0.00  0.00    +0.000 A 
ATOM     29  C   UNL     1       3.365   5.371  17.545  0.00  0.00    +0.000 A 
ATOM     30 CL   UNL     1       1.880   4.515  17.765  0.00  0.00    +0.000 Cl
ENDBRANCH  22  23
ENDBRANCH   6  22
TORSDOF 5
ENDMDL
