MODEL 1
REMARK VINA RESULT:      -8.1      0.000      0.000
REMARK  Name = 
REMARK  4 active torsions:
REMARK  status: ('A' for Active; 'I' for Inactive)
REMARK    1  A    between atoms: O_1  and  C_2
REMARK    2  A    between atoms: C_2  and  C_3
REMARK    3  A    between atoms: N_12  and  C_13
REMARK    4  A    between atoms: C_13  and  C_14
REMARK                            x       y       z     vdW  Elec       q    Type
REMARK                         _______ _______ _______ _____ _____    ______ ____
ROOT
ATOM      1  C   UNL     1       2.712   6.881  18.904  0.00  0.00    +0.000 C 
ATOM      2  C   UNL     1       2.007   5.694  18.224  0.00  0.00    +0.000 C 
ATOM      3  C   UNL     1       2.988   4.588  17.819  0.00  0.00    +0.000 C 
ATOM      4  N   UNL     1       4.043   5.104  16.930  0.00  0.00    +0.000 NA
ATOM      5  C   UNL     1       4.797   6.160  17.623  0.00  0.00    +0.000 C 
ATOM      6  C   UNL     1       3.895   7.323  18.024  0.00  0.00    +0.000 C 
ENDROOT
BRANCH   1   7
ATOM      7  C   UNL     1       1.819   8.092  19.205  0.00  0.00    +0.000 A 
ATOM      8  C   UNL     1       1.451   8.955  18.151  0.00  0.00    +0.000 A 
ATOM      9  C   UNL     1       0.550  10.004  18.345  0.00  0.00    +0.000 A 
ATOM     10  C   UNL     1       0.019  10.224  19.611  0.00  0.00    +0.000 A 
ATOM     11 BR   UNL     1      -1.246  11.604  19.872  0.00  0.00    +0.000 Br
ATOM     12  C   UNL     1       0.403   9.423  20.682  0.00  0.00    +0.000 A 
ATOM     13  C   UNL     1       1.302   8.368  20.481  0.00  0.00    +0.000 A 
ENDBRANCH   1   7
BRANCH   1  14
ATOM     14  O   UNL     1       3.226   6.409  20.160  0.00  0.00    +0.000 OA
ATOM     15  H   UNL     1       2.504   5.933  20.605  0.00  0.00    +0.000 HD
ENDBRANCH   1  14
BRANCH   4  16
ATOM     16  C   UNL     1       4.926   3.990  16.520  0.00  0.00    +0.000 C 
BRANCH  16  17
ATOM     17  C   UNL     1       5.954   4.451  15.527  0.00  0.00    +0.000 A 
ATOM     18  C   UNL     1       7.077   5.215  15.787  0.00  0.00    +0.000 A 
ATOM     19  N   UNL     1       7.799   5.328  14.631  0.00  0.00    +0.000 N 
ATOM     20  C   UNL     1       7.172   4.656  13.608  0.00  0.00    +0.000 A 
ATOM     21  C   UNL     1       7.568   4.465  12.278  0.00  0.00    +0.000 A 
ATOM     22  C   UNL     1       6.717   3.731  11.448  0.00  0.00    +0.000 A 
ATOM     23  C   UNL     1       5.511   3.222  11.926  0.00  0.00    +0.000 A 
ATOM     24  C   UNL     1       5.136   3.417  13.261  0.00  0.00    +0.000 A 
ATOM     25  C   UNL     1       5.987   4.135  14.127  0.00  0.00    +0.000 A 
ATOM     26  H   UNL     1       8.685   5.805  14.544  0.00  0.00    +0.000 HD
ENDBRANCH  16  17
ENDBRANCH   4  16
TORSDOF 4
ENDMDL
MODEL 2
REMARK VINA RESULT:      -8.1      3.403      5.265
REMARK  Name = 
REMARK  4 active torsions:
REMARK  status: ('A' for Active; 'I' for Inactive)
REMARK    1  A    between atoms: O_1  and  C_2
REMARK    2  A    between atoms: C_2  and  C_3
REMARK    3  A    between atoms: N_12  and  C_13
REMARK    4  A    between atoms: C_13  and  C_14
REMARK                            x       y       z     vdW  Elec       q    Type
REMARK                         _______ _______ _______ _____ _____    ______ ____
ROOT
ATOM      1  C   UNL     1       0.314  10.042  19.064  0.00  0.00    +0.000 C 
ATOM      2  C   UNL     1       0.393   9.029  20.221  0.00  0.00    +0.000 C 
ATOM      3  C   UNL     1       1.754   8.327  20.286  0.00  0.00    +0.000 C 
ATOM      4  N   UNL     1       2.070   7.647  19.020  0.00  0.00    +0.000 NA
ATOM      5  C   UNL     1       2.112   8.633  17.929  0.00  0.00    +0.000 C 
ATOM      6  C   UNL     1       0.775   9.350  17.769  0.00  0.00    +0.000 C 
ENDROOT
BRANCH   1   7
ATOM      7  C   UNL     1      -1.065  10.678  18.841  0.00  0.00    +0.000 A 
ATOM      8  C   UNL     1      -1.890  10.187  17.806  0.00  0.00    +0.000 A 
ATOM      9  C   UNL     1      -3.196  10.649  17.632  0.00  0.00    +0.000 A 
ATOM     10  C   UNL     1      -3.691  11.635  18.476  0.00  0.00    +0.000 A 
ATOM     11 BR   UNL     1      -5.476  12.227  18.284  0.00  0.00    +0.000 Br
ATOM     12  C   UNL     1      -2.884  12.178  19.471  0.00  0.00    +0.000 A 
ATOM     13  C   UNL     1      -1.577  11.706  19.648  0.00  0.00    +0.000 A 
ENDBRANCH   1   7
BRANCH   1  14
ATOM     14  O   UNL     1       1.230  11.107  19.367  0.00  0.00    +0.000 OA
ATOM     15  H   UNL     1       1.830  11.194  18.606  0.00  0.00    +0.000 HD
ENDBRANCH   1  14
BRANCH   4  16
ATOM     16  C   UNL     1       3.361   6.935  19.154  0.00  0.00    +0.000 C 
BRANCH  16  17
ATOM     17  C   UNL     1       3.349   5.642  18.391  0.00  0.00    +0.000 A 
ATOM     18  C   UNL     1       4.175   5.289  17.340  0.00  0.00    +0.000 A 
ATOM     19  N   UNL     1       3.906   3.993  16.996  0.00  0.00    +0.000 N 
ATOM     20  C   UNL     1       2.912   3.483  17.797  0.00  0.00    +0.000 A 
ATOM     21  C   UNL     1       2.354   2.198  17.834  0.00  0.00    +0.000 A 
ATOM     22  C   UNL     1       1.339   1.960  18.765  0.00  0.00    +0.000 A 
ATOM     23  C   UNL     1       0.890   2.970  19.613  0.00  0.00    +0.000 A 
ATOM     24  C   UNL     1       1.466   4.245  19.566  0.00  0.00    +0.000 A 
ATOM     25  C   UNL     1       2.508   4.508  18.652  0.00  0.00    +0.000 A 
ATOM     26  H   UNL     1       4.390   3.470  16.280  0.00  0.00    +0.000 HD
ENDBRANCH  16  17
ENDBRANCH   4  16
TORSDOF 4
ENDMDL
MODEL 3
REMARK VINA RESULT:      -8.1      0.661      1.205
REMARK  Name = 
REMARK  4 active torsions:
REMARK  status: ('A' for Active; 'I' for Inactive)
REMARK    1  A    between atoms: O_1  and  C_2
REMARK    2  A    between atoms: C_2  and  C_3
REMARK    3  A    between atoms: N_12  and  C_13
REMARK    4  A    between atoms: C_13  and  C_14
REMARK                            x       y       z     vdW  Elec       q    Type
REMARK                         _______ _______ _______ _____ _____    ______ ____
ROOT
ATOM      1  C   UNL     1       2.598   6.480  19.270  0.00  0.00    +0.000 C 
ATOM      2  C   UNL     1       1.903   5.624  18.196  0.00  0.00    +0.000 C 
ATOM      3  C   UNL     1       2.811   4.510  17.663  0.00  0.00    +0.000 C 
ATOM      4  N   UNL     1       4.066   5.053  17.117  0.00  0.00    +0.000 NA
ATOM      5  C   UNL     1       4.791   5.774  18.175  0.00  0.00    +0.000 C 
ATOM      6  C   UNL     1       3.968   6.931  18.732  0.00  0.00    +0.000 C 
ENDROOT
BRANCH   1   7
ATOM      7  C   UNL     1       1.808   7.707  19.745  0.00  0.00    +0.000 A 
ATOM      8  C   UNL     1       1.358   7.761  21.082  0.00  0.00    +0.000 A 
ATOM      9  C   UNL     1       0.736   8.899  21.598  0.00  0.00    +0.000 A 
ATOM     10  C   UNL     1       0.527   9.999  20.773  0.00  0.00    +0.000 A 
ATOM     11 BR   UNL     1      -0.262  11.565  21.477  0.00  0.00    +0.000 Br
ATOM     12  C   UNL     1       0.911   9.956  19.437  0.00  0.00    +0.000 A 
ATOM     13  C   UNL     1       1.541   8.815  18.925  0.00  0.00    +0.000 A 
ENDBRANCH   1   7
BRANCH   1  14
ATOM     14  O   UNL     1       2.809   5.639  20.416  0.00  0.00    +0.000 OA
ATOM     15  H   UNL     1       1.931   5.380  20.746  0.00  0.00    +0.000 HD
ENDBRANCH   1  14
BRANCH   4  16
ATOM     16  C   UNL     1       4.878   3.948  16.563  0.00  0.00    +0.000 C 
BRANCH  16  17
ATOM     17  C   UNL     1       5.910   4.463  15.602  0.00  0.00    +0.000 A 
ATOM     18  C   UNL     1       6.987   5.279  15.897  0.00  0.00    +0.000 A 
ATOM     19  N   UNL     1       7.735   5.433  14.763  0.00  0.00    +0.000 N 
ATOM     20  C   UNL     1       7.171   4.737  13.720  0.00  0.00    +0.000 A 
ATOM     21  C   UNL     1       7.615   4.572  12.401  0.00  0.00    +0.000 A 
ATOM     22  C   UNL     1       6.825   3.801  11.544  0.00  0.00    +0.000 A 
ATOM     23  C   UNL     1       5.632   3.232  11.984  0.00  0.00    +0.000 A 
ATOM     24  C   UNL     1       5.209   3.402  13.308  0.00  0.00    +0.000 A 
ATOM     25  C   UNL     1       5.999   4.156  14.202  0.00  0.00    +0.000 A 
ATOM     26  H   UNL     1       8.599   5.953  14.704  0.00  0.00    +0.000 HD
ENDBRANCH  16  17
ENDBRANCH   4  16
TORSDOF 4
ENDMDL
MODEL 4
REMARK VINA RESULT:      -7.9      2.472      4.248
REMARK  Name = 
REMARK  4 active torsions:
REMARK  status: ('A' for Active; 'I' for Inactive)
REMARK    1  A    between atoms: O_1  and  C_2
REMARK    2  A    between atoms: C_2  and  C_3
REMARK    3  A    between atoms: N_12  and  C_13
REMARK    4  A    between atoms: C_13  and  C_14
REMARK                            x       y       z     vdW  Elec       q    Type
REMARK                         _______ _______ _______ _____ _____    ______ ____
ROOT
ATOM      1  C   UNL     1       0.443   9.814  18.931  0.00  0.00    +0.000 C 
ATOM      2  C   UNL     1       0.392   8.838  20.121  0.00  0.00    +0.000 C 
ATOM      3  C   UNL     1       1.733   8.134  20.354  0.00  0.00    +0.000 C 
ATOM      4  N   UNL     1       2.178   7.413  19.151  0.00  0.00    +0.000 NA
ATOM      5  C   UNL     1       2.342   8.363  18.039  0.00  0.00    +0.000 C 
ATOM      6  C   UNL     1       1.035   9.079  17.715  0.00  0.00    +0.000 C 
ENDROOT
BRANCH   1   7
ATOM      7  C   UNL     1      -0.900  10.446  18.542  0.00  0.00    +0.000 A 
ATOM      8  C   UNL     1      -1.573   9.980  17.392  0.00  0.00    +0.000 A 
ATOM      9  C   UNL     1      -2.848  10.439  17.056  0.00  0.00    +0.000 A 
ATOM     10  C   UNL     1      -3.464  11.396  17.854  0.00  0.00    +0.000 A 
ATOM     11 BR   UNL     1      -5.213  11.981  17.439  0.00  0.00    +0.000 Br
ATOM     12  C   UNL     1      -2.804  11.914  18.963  0.00  0.00    +0.000 A 
ATOM     13  C   UNL     1      -1.528  11.446  19.301  0.00  0.00    +0.000 A 
ENDBRANCH   1   7
BRANCH   1  14
ATOM     14  O   UNL     1       1.329  10.885  19.295  0.00  0.00    +0.000 OA
ATOM     15  H   UNL     1       1.561  11.356  18.476  0.00  0.00    +0.000 HD
ENDBRANCH   1  14
BRANCH   4  16
ATOM     16  C   UNL     1       3.442   6.702  19.444  0.00  0.00    +0.000 C 
BRANCH  16  17
ATOM     17  C   UNL     1       3.702   5.620  18.436  0.00  0.00    +0.000 A 
ATOM     18  C   UNL     1       2.838   4.608  18.061  0.00  0.00    +0.000 A 
ATOM     19  N   UNL     1       3.419   3.898  17.047  0.00  0.00    +0.000 N 
ATOM     20  C   UNL     1       4.656   4.418  16.747  0.00  0.00    +0.000 A 
ATOM     21  C   UNL     1       5.575   4.045  15.758  0.00  0.00    +0.000 A 
ATOM     22  C   UNL     1       6.773   4.761  15.685  0.00  0.00    +0.000 A 
ATOM     23  C   UNL     1       7.046   5.798  16.574  0.00  0.00    +0.000 A 
ATOM     24  C   UNL     1       6.110   6.162  17.550  0.00  0.00    +0.000 A 
ATOM     25  C   UNL     1       4.883   5.471  17.632  0.00  0.00    +0.000 A 
ATOM     26  H   UNL     1       2.990   3.123  16.561  0.00  0.00    +0.000 HD
ENDBRANCH  16  17
ENDBRANCH   4  16
TORSDOF 4
ENDMDL
MODEL 5
REMARK VINA RESULT:      -7.7      4.101      6.092
REMARK  Name = 
REMARK  4 active torsions:
REMARK  status: ('A' for Active; 'I' for Inactive)
REMARK    1  A    between atoms: O_1  and  C_2
REMARK    2  A    between atoms: C_2  and  C_3
REMARK    3  A    between atoms: N_12  and  C_13
REMARK    4  A    between atoms: C_13  and  C_14
REMARK                            x       y       z     vdW  Elec       q    Type
REMARK                         _______ _______ _______ _____ _____    ______ ____
ROOT
ATOM      1  C   UNL     1       0.080  10.657  21.296  0.00  0.00    +0.000 C 
ATOM      2  C   UNL     1       0.365   9.392  22.126  0.00  0.00    +0.000 C 
ATOM      3  C   UNL     1       1.521   8.567  21.550  0.00  0.00    +0.000 C 
ATOM      4  N   UNL     1       1.265   8.185  20.152  0.00  0.00    +0.000 NA
ATOM      5  C   UNL     1       1.109   9.396  19.331  0.00  0.00    +0.000 C 
ATOM      6  C   UNL     1      -0.054  10.256  19.815  0.00  0.00    +0.000 C 
ENDROOT
BRANCH   1   7
ATOM      7  C   UNL     1      -1.158  11.458  21.722  0.00  0.00    +0.000 A 
ATOM      8  C   UNL     1      -1.888  12.169  20.746  0.00  0.00    +0.000 A 
ATOM      9  C   UNL     1      -3.083  12.819  21.057  0.00  0.00    +0.000 A 
ATOM     10  C   UNL     1      -3.558  12.791  22.364  0.00  0.00    +0.000 A 
ATOM     11 BR   UNL     1      -5.204  13.619  22.784  0.00  0.00    +0.000 Br
ATOM     12  C   UNL     1      -2.833  12.144  23.359  0.00  0.00    +0.000 A 
ATOM     13  C   UNL     1      -1.638  11.487  23.041  0.00  0.00    +0.000 A 
ENDBRANCH   1   7
BRANCH   1  14
ATOM     14  O   UNL     1       1.217  11.524  21.435  0.00  0.00    +0.000 OA
ATOM     15  H   UNL     1       1.409  11.890  20.554  0.00  0.00    +0.000 HD
ENDBRANCH   1  14
BRANCH   4  16
ATOM     16  C   UNL     1       2.377   7.341  19.662  0.00  0.00    +0.000 C 
BRANCH  16  17
ATOM     17  C   UNL     1       2.084   5.883  19.870  0.00  0.00    +0.000 A 
ATOM     18  C   UNL     1       1.422   5.314  20.942  0.00  0.00    +0.000 A 
ATOM     19  N   UNL     1       1.277   3.976  20.697  0.00  0.00    +0.000 N 
ATOM     20  C   UNL     1       1.835   3.648  19.484  0.00  0.00    +0.000 A 
ATOM     21  C   UNL     1       1.877   2.419  18.813  0.00  0.00    +0.000 A 
ATOM     22  C   UNL     1       2.525   2.379  17.575  0.00  0.00    +0.000 A 
ATOM     23  C   UNL     1       3.118   3.519  17.038  0.00  0.00    +0.000 A 
ATOM     24  C   UNL     1       3.059   4.740  17.720  0.00  0.00    +0.000 A 
ATOM     25  C   UNL     1       2.392   4.815  18.961  0.00  0.00    +0.000 A 
ATOM     26  H   UNL     1       0.797   3.324  21.302  0.00  0.00    +0.000 HD
ENDBRANCH  16  17
ENDBRANCH   4  16
TORSDOF 4
ENDMDL
MODEL 6
REMARK VINA RESULT:      -7.7      3.923      6.574
REMARK  Name = 
REMARK  4 active torsions:
REMARK  status: ('A' for Active; 'I' for Inactive)
REMARK    1  A    between atoms: O_1  and  C_2
REMARK    2  A    between atoms: C_2  and  C_3
REMARK    3  A    between atoms: N_12  and  C_13
REMARK    4  A    between atoms: C_13  and  C_14
REMARK                            x       y       z     vdW  Elec       q    Type
REMARK                         _______ _______ _______ _____ _____    ______ ____
ROOT
ATOM      1  C   UNL     1      -1.774  11.606  18.502  0.00  0.00    +0.000 C 
ATOM      2  C   UNL     1      -0.582  11.710  19.469  0.00  0.00    +0.000 C 
ATOM      3  C   UNL     1       0.708  11.140  18.867  0.00  0.00    +0.000 C 
ATOM      4  N   UNL     1       0.535   9.738  18.455  0.00  0.00    +0.000 NA
ATOM      5  C   UNL     1      -0.527   9.650  17.440  0.00  0.00    +0.000 C 
ATOM      6  C   UNL     1      -1.860  10.161  17.977  0.00  0.00    +0.000 C 
ENDROOT
BRANCH   1   7
ATOM      7  C   UNL     1      -3.132  12.019  19.086  0.00  0.00    +0.000 A 
ATOM      8  C   UNL     1      -4.315  11.610  18.433  0.00  0.00    +0.000 A 
ATOM      9  C   UNL     1      -5.575  11.859  18.981  0.00  0.00    +0.000 A 
ATOM     10  C   UNL     1      -5.674  12.548  20.184  0.00  0.00    +0.000 A 
ATOM     11 BR   UNL     1      -7.371  12.840  20.963  0.00  0.00    +0.000 Br
ATOM     12  C   UNL     1      -4.528  13.011  20.824  0.00  0.00    +0.000 A 
ATOM     13  C   UNL     1      -3.267  12.753  20.275  0.00  0.00    +0.000 A 
ENDBRANCH   1   7
BRANCH   1  14
ATOM     14  O   UNL     1      -1.503  12.481  17.394  0.00  0.00    +0.000 OA
ATOM     15  H   UNL     1      -1.280  13.352  17.766  0.00  0.00    +0.000 HD
ENDBRANCH   1  14
BRANCH   4  16
ATOM     16  C   UNL     1       1.820   9.217  17.938  0.00  0.00    +0.000 C 
BRANCH  16  17
ATOM     17  C   UNL     1       2.282   8.030  18.732  0.00  0.00    +0.000 A 
ATOM     18  C   UNL     1       1.880   7.675  20.007  0.00  0.00    +0.000 A 
ATOM     19  N   UNL     1       2.461   6.478  20.324  0.00  0.00    +0.000 N 
ATOM     20  C   UNL     1       3.244   6.035  19.284  0.00  0.00    +0.000 A 
ATOM     21  C   UNL     1       3.979   4.850  19.150  0.00  0.00    +0.000 A 
ATOM     22  C   UNL     1       4.696   4.665  17.964  0.00  0.00    +0.000 A 
ATOM     23  C   UNL     1       4.689   5.631  16.962  0.00  0.00    +0.000 A 
ATOM     24  C   UNL     1       3.942   6.806  17.112  0.00  0.00    +0.000 A 
ATOM     25  C   UNL     1       3.190   7.010  18.288  0.00  0.00    +0.000 A 
ATOM     26  H   UNL     1       2.311   5.970  21.185  0.00  0.00    +0.000 HD
ENDBRANCH  16  17
ENDBRANCH   4  16
TORSDOF 4
ENDMDL
MODEL 7
REMARK VINA RESULT:      -7.7      3.301      5.284
REMARK  Name = 
REMARK  4 active torsions:
REMARK  status: ('A' for Active; 'I' for Inactive)
REMARK    1  A    between atoms: O_1  and  C_2
REMARK    2  A    between atoms: C_2  and  C_3
REMARK    3  A    between atoms: N_12  and  C_13
REMARK    4  A    between atoms: C_13  and  C_14
REMARK                            x       y       z     vdW  Elec       q    Type
REMARK                         _______ _______ _______ _____ _____    ______ ____
ROOT
ATOM      1  C   UNL     1       0.248   9.976  19.155  0.00  0.00    +0.000 C 
ATOM      2  C   UNL     1       0.417   8.861  20.203  0.00  0.00    +0.000 C 
ATOM      3  C   UNL     1       1.814   8.231  20.161  0.00  0.00    +0.000 C 
ATOM      4  N   UNL     1       2.122   7.694  18.825  0.00  0.00    +0.000 NA
ATOM      5  C   UNL     1       2.076   8.782  17.835  0.00  0.00    +0.000 C 
ATOM      6  C   UNL     1       0.700   9.438  17.785  0.00  0.00    +0.000 C 
ENDROOT
BRANCH   1   7
ATOM      7  C   UNL     1      -1.169  10.554  19.034  0.00  0.00    +0.000 A 
ATOM      8  C   UNL     1      -1.552  11.619  19.877  0.00  0.00    +0.000 A 
ATOM      9  C   UNL     1      -2.785  12.258  19.732  0.00  0.00    +0.000 A 
ATOM     10  C   UNL     1      -3.672  11.821  18.755  0.00  0.00    +0.000 A 
ATOM     11 BR   UNL     1      -5.319  12.715  18.514  0.00  0.00    +0.000 Br
ATOM     12  C   UNL     1      -3.345  10.738  17.945  0.00  0.00    +0.000 A 
ATOM     13  C   UNL     1      -2.104  10.105  18.088  0.00  0.00    +0.000 A 
ENDBRANCH   1   7
BRANCH   1  14
ATOM     14  O   UNL     1       1.117  11.055  19.534  0.00  0.00    +0.000 OA
ATOM     15  H   UNL     1       0.570  11.857  19.593  0.00  0.00    +0.000 HD
ENDBRANCH   1  14
BRANCH   4  16
ATOM     16  C   UNL     1       3.451   7.045  18.852  0.00  0.00    +0.000 C 
BRANCH  16  17
ATOM     17  C   UNL     1       3.410   5.699  18.188  0.00  0.00    +0.000 A 
ATOM     18  C   UNL     1       4.205   5.263  17.144  0.00  0.00    +0.000 A 
ATOM     19  N   UNL     1       3.918   3.947  16.904  0.00  0.00    +0.000 N 
ATOM     20  C   UNL     1       2.944   3.505  17.767  0.00  0.00    +0.000 A 
ATOM     21  C   UNL     1       2.380   2.231  17.914  0.00  0.00    +0.000 A 
ATOM     22  C   UNL     1       1.389   2.070  18.887  0.00  0.00    +0.000 A 
ATOM     23  C   UNL     1       0.971   3.144  19.670  0.00  0.00    +0.000 A 
ATOM     24  C   UNL     1       1.552   4.408  19.513  0.00  0.00    +0.000 A 
ATOM     25  C   UNL     1       2.570   4.594  18.555  0.00  0.00    +0.000 A 
ATOM     26  H   UNL     1       4.379   3.369  16.215  0.00  0.00    +0.000 HD
ENDBRANCH  16  17
ENDBRANCH   4  16
TORSDOF 4
ENDMDL
MODEL 8
REMARK VINA RESULT:      -7.6      4.401      6.391
REMARK  Name = 
REMARK  4 active torsions:
REMARK  status: ('A' for Active; 'I' for Inactive)
REMARK    1  A    between atoms: O_1  and  C_2
REMARK    2  A    between atoms: C_2  and  C_3
REMARK    3  A    between atoms: N_12  and  C_13
REMARK    4  A    between atoms: C_13  and  C_14
REMARK                            x       y       z     vdW  Elec       q    Type
REMARK                         _______ _______ _______ _____ _____    ______ ____
ROOT
ATOM      1  C   UNL     1       0.299  10.402  20.951  0.00  0.00    +0.000 C 
ATOM      2  C   UNL     1       0.461   9.041  21.652  0.00  0.00    +0.000 C 
ATOM      3  C   UNL     1       1.655   8.247  21.110  0.00  0.00    +0.000 C 
ATOM      4  N   UNL     1       1.547   8.037  19.657  0.00  0.00    +0.000 NA
ATOM      5  C   UNL     1       1.510   9.339  18.973  0.00  0.00    +0.000 C 
ATOM      6  C   UNL     1       0.321  10.179  19.428  0.00  0.00    +0.000 C 
ENDROOT
BRANCH   1   7
ATOM      7  C   UNL     1      -0.961  11.192  21.333  0.00  0.00    +0.000 A 
ATOM      8  C   UNL     1      -1.366  11.229  22.684  0.00  0.00    +0.000 A 
ATOM      9  C   UNL     1      -2.435  12.024  23.104  0.00  0.00    +0.000 A 
ATOM     10  C   UNL     1      -3.137  12.777  22.170  0.00  0.00    +0.000 A 
ATOM     11 BR   UNL     1      -4.548  13.899  22.737  0.00  0.00    +0.000 Br
ATOM     12  C   UNL     1      -2.795  12.719  20.823  0.00  0.00    +0.000 A 
ATOM     13  C   UNL     1      -1.718  11.927  20.407  0.00  0.00    +0.000 A 
ENDBRANCH   1   7
BRANCH   1  14
ATOM     14  O   UNL     1       1.433  11.207  21.313  0.00  0.00    +0.000 OA
ATOM     15  H   UNL     1       1.113  11.893  21.925  0.00  0.00    +0.000 HD
ENDBRANCH   1  14
BRANCH   4  16
ATOM     16  C   UNL     1       2.687   7.216  19.194  0.00  0.00    +0.000 C 
BRANCH  16  17
ATOM     17  C   UNL     1       2.251   5.819  18.864  0.00  0.00    +0.000 A 
ATOM     18  C   UNL     1       1.987   5.305  17.606  0.00  0.00    +0.000 A 
ATOM     19  N   UNL     1       1.717   3.971  17.734  0.00  0.00    +0.000 N 
ATOM     20  C   UNL     1       1.792   3.591  19.053  0.00  0.00    +0.000 A 
ATOM     21  C   UNL     1       1.640   2.327  19.638  0.00  0.00    +0.000 A 
ATOM     22  C   UNL     1       1.769   2.237  21.027  0.00  0.00    +0.000 A 
ATOM     23  C   UNL     1       2.025   3.368  21.799  0.00  0.00    +0.000 A 
ATOM     24  C   UNL     1       2.181   4.621  21.195  0.00  0.00    +0.000 A 
ATOM     25  C   UNL     1       2.079   4.738  19.793  0.00  0.00    +0.000 A 
ATOM     26  H   UNL     1       1.524   3.342  16.967  0.00  0.00    +0.000 HD
ENDBRANCH  16  17
ENDBRANCH   4  16
TORSDOF 4
ENDMDL
MODEL 9
REMARK VINA RESULT:      -7.6      3.999      6.733
REMARK  Name = 
REMARK  4 active torsions:
REMARK  status: ('A' for Active; 'I' for Inactive)
REMARK    1  A    between atoms: O_1  and  C_2
REMARK    2  A    between atoms: C_2  and  C_3
REMARK    3  A    between atoms: N_12  and  C_13
REMARK    4  A    between atoms: C_13  and  C_14
REMARK                            x       y       z     vdW  Elec       q    Type
REMARK                         _______ _______ _______ _____ _____    ______ ____
ROOT
ATOM      1  C   UNL     1      -1.865  11.605  18.467  0.00  0.00    +0.000 C 
ATOM      2  C   UNL     1      -0.728  11.724  19.498  0.00  0.00    +0.000 C 
ATOM      3  C   UNL     1       0.602  11.182  18.962  0.00  0.00    +0.000 C 
ATOM      4  N   UNL     1       0.477   9.779  18.533  0.00  0.00    +0.000 NA
ATOM      5  C   UNL     1      -0.527   9.680  17.462  0.00  0.00    +0.000 C 
ATOM      6  C   UNL     1      -1.896  10.163  17.930  0.00  0.00    +0.000 C 
ENDROOT
BRANCH   1   7
ATOM      7  C   UNL     1      -3.260  11.989  18.980  0.00  0.00    +0.000 A 
ATOM      8  C   UNL     1      -3.374  12.724  20.180  0.00  0.00    +0.000 A 
ATOM      9  C   UNL     1      -4.607  13.197  20.632  0.00  0.00    +0.000 A 
ATOM     10  C   UNL     1      -5.757  12.919  19.902  0.00  0.00    +0.000 A 
ATOM     11 BR   UNL     1      -7.423  13.604  20.474  0.00  0.00    +0.000 Br
ATOM     12  C   UNL     1      -5.683  12.151  18.744  0.00  0.00    +0.000 A 
ATOM     13  C   UNL     1      -4.443  11.685  18.290  0.00  0.00    +0.000 A 
ENDBRANCH   1   7
BRANCH   1  14
ATOM     14  O   UNL     1      -1.551  12.493  17.382  0.00  0.00    +0.000 OA
ATOM     15  H   UNL     1      -1.103  13.267  17.765  0.00  0.00    +0.000 HD
ENDBRANCH   1  14
BRANCH   4  16
ATOM     16  C   UNL     1       1.797   9.285  18.082  0.00  0.00    +0.000 C 
BRANCH  16  17
ATOM     17  C   UNL     1       2.216   8.071  18.859  0.00  0.00    +0.000 A 
ATOM     18  C   UNL     1       1.810   7.720  20.134  0.00  0.00    +0.000 A 
ATOM     19  N   UNL     1       2.341   6.496  20.434  0.00  0.00    +0.000 N 
ATOM     20  C   UNL     1       3.097   6.032  19.382  0.00  0.00    +0.000 A 
ATOM     21  C   UNL     1       3.780   4.819  19.229  0.00  0.00    +0.000 A 
ATOM     22  C   UNL     1       4.479   4.616  18.035  0.00  0.00    +0.000 A 
ATOM     23  C   UNL     1       4.504   5.593  17.043  0.00  0.00    +0.000 A 
ATOM     24  C   UNL     1       3.808   6.796  17.212  0.00  0.00    +0.000 A 
ATOM     25  C   UNL     1       3.076   7.019  18.397  0.00  0.00    +0.000 A 
ATOM     26  H   UNL     1       2.177   5.985  21.290  0.00  0.00    +0.000 HD
ENDBRANCH  16  17
ENDBRANCH   4  16
TORSDOF 4
ENDMDL
