MODEL 1
REMARK VINA RESULT:      -8.1      0.000      0.000
REMARK  Name = 
REMARK  9 active torsions:
REMARK  status: ('A' for Active; 'I' for Inactive)
REMARK    1  A    between atoms: N_1  and  C_2
REMARK    2  A    between atoms: C_2  and  C_3
REMARK    3  A    between atoms: C_5  and  O_6
REMARK    4  A    between atoms: O_6  and  C_7
REMARK    5  A    between atoms: C_11  and  C_12
REMARK    6  A    between atoms: N_14  and  CA_15
REMARK    7  A    between atoms: CA_15  and  C_16
REMARK    8  A    between atoms: CA_15  and  C_18
REMARK    9  A    between atoms: C_16  and  O_17
REMARK                            x       y       z     vdW  Elec       q    Type
REMARK                         _______ _______ _______ _____ _____    ______ ____
ROOT
ATOM      1  C   UNL     1       2.930   5.152  18.504  0.00  0.00    +0.000 A 
ATOM      2  C   UNL     1       2.590   4.200  19.477  0.00  0.00    +0.000 A 
ATOM      3  C   UNL     1       1.921   4.586  20.632  0.00  0.00    +0.000 A 
ATOM      4  C   UNL     1       1.586   5.923  20.833  0.00  0.00    +0.000 A 
ATOM      5  C   UNL     1       1.904   6.906  19.871  0.00  0.00    +0.000 A 
ATOM      6  C   UNL     1       2.575   6.493  18.693  0.00  0.00    +0.000 A 
ENDROOT
BRANCH   5   7
ATOM      7  C   UNL     1       1.523   8.332  20.136  0.00  0.00    +0.000 C 
ATOM      8  O   UNL     1       1.480   8.717  21.297  0.00  0.00    +0.000 OA
ATOM      9  N   UNL     1       1.216   9.205  19.130  0.00  0.00    +0.000 N 
ATOM     10  H   UNL     1       1.243   8.895  18.152  0.00  0.00    +0.000 HD
BRANCH   9  11
ATOM     11  CA  UNL     1       0.821  10.589  19.357  0.00  0.00    +0.000 C 
BRANCH  11  12
ATOM     12  C   UNL     1      -0.611  10.776  18.896  0.00  0.00    +0.000 A 
ATOM     13  C   UNL     1      -1.115  10.005  17.832  0.00  0.00    +0.000 A 
ATOM     14  C   UNL     1      -2.427  10.188  17.385  0.00  0.00    +0.000 A 
ATOM     15  C   UNL     1      -3.249  11.141  17.991  0.00  0.00    +0.000 A 
ATOM     16  C   UNL     1      -2.762  11.911  19.049  0.00  0.00    +0.000 A 
ATOM     17  C   UNL     1      -1.452  11.731  19.503  0.00  0.00    +0.000 A 
ENDBRANCH  11  12
BRANCH  11  18
ATOM     18  C   UNL     1       1.778  11.538  18.617  0.00  0.00    +0.000 C 
BRANCH  18  19
ATOM     19  O   UNL     1       2.247  10.942  17.438  0.00  0.00    +0.000 OA
ATOM     20  H   UNL     1       1.652  10.168  17.255  0.00  0.00    +0.000 HD
ENDBRANCH  18  19
ENDBRANCH  11  18
ENDBRANCH   9  11
ENDBRANCH   5   7
BRANCH   1  21
ATOM     21  O   UNL     1       3.587   4.794  17.370  0.00  0.00    +0.000 OA
BRANCH  21  24
ATOM     22  C   UNL     1       7.110   5.448  18.034  0.00  0.00    +0.000 A 
ATOM     23  C   UNL     1       5.719   5.448  18.203  0.00  0.00    +0.000 A 
ATOM     24  C   UNL     1       4.936   4.817  17.237  0.00  0.00    +0.000 A 
ATOM     25  N   UNL     1       5.536   4.206  16.180  0.00  0.00    +0.000 NA
ATOM     26  C   UNL     1       6.884   4.208  16.035  0.00  0.00    +0.000 A 
ATOM     27  N   UNL     1       7.662   4.827  16.959  0.00  0.00    +0.000 NA
BRANCH  22  28
ATOM     28  C   UNL     1       7.997   6.121  19.036  0.00  0.00    +0.000 C 
BRANCH  28  29
ATOM     29  N   UNL     1       7.964   5.392  20.299  0.00  0.00    +0.000 NA
ATOM     30  H   UNL     1       8.143   4.381  20.101  0.00  0.00    +0.000 HD
ATOM     31  H   UNL     1       7.010   5.474  20.718  0.00  0.00    +0.000 HD
ENDBRANCH  28  29
ENDBRANCH  22  28
ENDBRANCH  21  24
ENDBRANCH   1  21
TORSDOF 9
ENDMDL
MODEL 2
REMARK VINA RESULT:      -8.0      1.870      2.897
REMARK  Name = 
REMARK  9 active torsions:
REMARK  status: ('A' for Active; 'I' for Inactive)
REMARK    1  A    between atoms: N_1  and  C_2
REMARK    2  A    between atoms: C_2  and  C_3
REMARK    3  A    between atoms: C_5  and  O_6
REMARK    4  A    between atoms: O_6  and  C_7
REMARK    5  A    between atoms: C_11  and  C_12
REMARK    6  A    between atoms: N_14  and  CA_15
REMARK    7  A    between atoms: CA_15  and  C_16
REMARK    8  A    between atoms: CA_15  and  C_18
REMARK    9  A    between atoms: C_16  and  O_17
REMARK                            x       y       z     vdW  Elec       q    Type
REMARK                         _______ _______ _______ _____ _____    ______ ____
ROOT
ATOM      1  C   UNL     1       3.566   4.062  19.404  0.00  0.00    +0.000 A 
ATOM      2  C   UNL     1       2.714   3.460  20.342  0.00  0.00    +0.000 A 
ATOM      3  C   UNL     1       1.710   4.199  20.955  0.00  0.00    +0.000 A 
ATOM      4  C   UNL     1       1.544   5.547  20.643  0.00  0.00    +0.000 A 
ATOM      5  C   UNL     1       2.377   6.183  19.697  0.00  0.00    +0.000 A 
ATOM      6  C   UNL     1       3.387   5.411  19.072  0.00  0.00    +0.000 A 
ENDROOT
BRANCH   5   7
ATOM      7  C   UNL     1       2.157   7.636  19.398  0.00  0.00    +0.000 C 
ATOM      8  O   UNL     1       2.774   8.139  18.468  0.00  0.00    +0.000 OA
ATOM      9  N   UNL     1       1.303   8.411  20.132  0.00  0.00    +0.000 N 
ATOM     10  H   UNL     1       0.784   8.004  20.918  0.00  0.00    +0.000 HD
BRANCH   9  11
ATOM     11  CA  UNL     1       1.086   9.830  19.880  0.00  0.00    +0.000 C 
BRANCH  11  12
ATOM     12  C   UNL     1       0.243  10.407  21.002  0.00  0.00    +0.000 A 
ATOM     13  C   UNL     1      -0.027   9.637  22.148  0.00  0.00    +0.000 A 
ATOM     14  C   UNL     1      -0.823  10.152  23.176  0.00  0.00    +0.000 A 
ATOM     15  C   UNL     1      -1.357  11.438  23.071  0.00  0.00    +0.000 A 
ATOM     16  C   UNL     1      -1.095  12.214  21.940  0.00  0.00    +0.000 A 
ATOM     17  C   UNL     1      -0.298  11.706  20.911  0.00  0.00    +0.000 A 
ENDBRANCH  11  12
BRANCH  11  18
ATOM     18  C   UNL     1       0.411  10.025  18.513  0.00  0.00    +0.000 C 
BRANCH  18  19
ATOM     19  O   UNL     1       1.369  10.304  17.528  0.00  0.00    +0.000 OA
ATOM     20  H   UNL     1       1.016  11.062  16.993  0.00  0.00    +0.000 HD
ENDBRANCH  18  19
ENDBRANCH  11  18
ENDBRANCH   9  11
ENDBRANCH   5   7
BRANCH   1  21
ATOM     21  O   UNL     1       4.555   3.356  18.798  0.00  0.00    +0.000 OA
BRANCH  21  24
ATOM     22  C   UNL     1       6.525   4.563  15.979  0.00  0.00    +0.000 A 
ATOM     23  C   UNL     1       5.473   3.968  16.688  0.00  0.00    +0.000 A 
ATOM     24  C   UNL     1       5.557   3.920  18.079  0.00  0.00    +0.000 A 
ATOM     25  N   UNL     1       6.636   4.463  18.706  0.00  0.00    +0.000 NA
ATOM     26  C   UNL     1       7.642   5.042  18.006  0.00  0.00    +0.000 A 
ATOM     27  N   UNL     1       7.583   5.089  16.651  0.00  0.00    +0.000 NA
BRANCH  22  28
ATOM     28  C   UNL     1       6.491   4.633  14.483  0.00  0.00    +0.000 C 
BRANCH  28  29
ATOM     29  N   UNL     1       7.638   5.389  13.994  0.00  0.00    +0.000 NA
ATOM     30  H   UNL     1       8.509   4.941  14.360  0.00  0.00    +0.000 HD
ATOM     31  H   UNL     1       7.593   6.363  14.371  0.00  0.00    +0.000 HD
ENDBRANCH  28  29
ENDBRANCH  22  28
ENDBRANCH  21  24
ENDBRANCH   1  21
TORSDOF 9
ENDMDL
MODEL 3
REMARK VINA RESULT:      -7.8      0.933      1.991
REMARK  Name = 
REMARK  9 active torsions:
REMARK  status: ('A' for Active; 'I' for Inactive)
REMARK    1  A    between atoms: N_1  and  C_2
REMARK    2  A    between atoms: C_2  and  C_3
REMARK    3  A    between atoms: C_5  and  O_6
REMARK    4  A    between atoms: O_6  and  C_7
REMARK    5  A    between atoms: C_11  and  C_12
REMARK    6  A    between atoms: N_14  and  CA_15
REMARK    7  A    between atoms: CA_15  and  C_16
REMARK    8  A    between atoms: CA_15  and  C_18
REMARK    9  A    between atoms: C_16  and  O_17
REMARK                            x       y       z     vdW  Elec       q    Type
REMARK                         _______ _______ _______ _____ _____    ______ ____
ROOT
ATOM      1  C   UNL     1       2.937   5.005  18.383  0.00  0.00    +0.000 A 
ATOM      2  C   UNL     1       2.711   4.075  19.408  0.00  0.00    +0.000 A 
ATOM      3  C   UNL     1       2.142   4.480  20.609  0.00  0.00    +0.000 A 
ATOM      4  C   UNL     1       1.796   5.815  20.805  0.00  0.00    +0.000 A 
ATOM      5  C   UNL     1       2.000   6.776  19.791  0.00  0.00    +0.000 A 
ATOM      6  C   UNL     1       2.570   6.343  18.568  0.00  0.00    +0.000 A 
ENDROOT
BRANCH   5   7
ATOM      7  C   UNL     1       1.611   8.200  20.053  0.00  0.00    +0.000 C 
ATOM      8  O   UNL     1       1.629   8.606  21.207  0.00  0.00    +0.000 OA
ATOM      9  N   UNL     1       1.234   9.049  19.050  0.00  0.00    +0.000 N 
ATOM     10  H   UNL     1       1.210   8.721  18.078  0.00  0.00    +0.000 HD
BRANCH   9  11
ATOM     11  CA  UNL     1       0.830  10.431  19.274  0.00  0.00    +0.000 C 
BRANCH  11  12
ATOM     12  C   UNL     1      -0.584  10.622  18.760  0.00  0.00    +0.000 A 
ATOM     13  C   UNL     1      -1.056   9.841  17.689  0.00  0.00    +0.000 A 
ATOM     14  C   UNL     1      -2.350  10.027  17.193  0.00  0.00    +0.000 A 
ATOM     15  C   UNL     1      -3.185  10.994  17.758  0.00  0.00    +0.000 A 
ATOM     16  C   UNL     1      -2.730  11.775  18.822  0.00  0.00    +0.000 A 
ATOM     17  C   UNL     1      -1.439  11.592  19.324  0.00  0.00    +0.000 A 
ENDBRANCH  11  12
BRANCH  11  18
ATOM     18  C   UNL     1       1.814  11.387  18.581  0.00  0.00    +0.000 C 
BRANCH  18  19
ATOM     19  O   UNL     1       2.294  10.820  17.392  0.00  0.00    +0.000 OA
ATOM     20  H   UNL     1       1.846  11.299  16.647  0.00  0.00    +0.000 HD
ENDBRANCH  18  19
ENDBRANCH  11  18
ENDBRANCH   9  11
ENDBRANCH   5   7
BRANCH   1  21
ATOM     21  O   UNL     1       3.496   4.629  17.203  0.00  0.00    +0.000 OA
BRANCH  21  24
ATOM     22  C   UNL     1       6.678   4.612  15.426  0.00  0.00    +0.000 A 
ATOM     23  C   UNL     1       5.294   4.586  15.643  0.00  0.00    +0.000 A 
ATOM     24  C   UNL     1       4.829   4.647  16.956  0.00  0.00    +0.000 A 
ATOM     25  N   UNL     1       5.719   4.750  17.980  0.00  0.00    +0.000 NA
ATOM     26  C   UNL     1       7.055   4.782  17.753  0.00  0.00    +0.000 A 
ATOM     27  N   UNL     1       7.527   4.713  16.483  0.00  0.00    +0.000 NA
BRANCH  22  28
ATOM     28  C   UNL     1       7.232   4.539  14.037  0.00  0.00    +0.000 C 
BRANCH  28  29
ATOM     29  N   UNL     1       6.382   3.693  13.207  0.00  0.00    +0.000 NA
ATOM     30  H   UNL     1       6.956   2.894  12.852  0.00  0.00    +0.000 HD
ATOM     31  H   UNL     1       6.049   4.243  12.383  0.00  0.00    +0.000 HD
ENDBRANCH  28  29
ENDBRANCH  22  28
ENDBRANCH  21  24
ENDBRANCH   1  21
TORSDOF 9
ENDMDL
MODEL 4
REMARK VINA RESULT:      -7.8      1.067      2.238
REMARK  Name = 
REMARK  9 active torsions:
REMARK  status: ('A' for Active; 'I' for Inactive)
REMARK    1  A    between atoms: N_1  and  C_2
REMARK    2  A    between atoms: C_2  and  C_3
REMARK    3  A    between atoms: C_5  and  O_6
REMARK    4  A    between atoms: O_6  and  C_7
REMARK    5  A    between atoms: C_11  and  C_12
REMARK    6  A    between atoms: N_14  and  CA_15
REMARK    7  A    between atoms: CA_15  and  C_16
REMARK    8  A    between atoms: CA_15  and  C_18
REMARK    9  A    between atoms: C_16  and  O_17
REMARK                            x       y       z     vdW  Elec       q    Type
REMARK                         _______ _______ _______ _____ _____    ______ ____
ROOT
ATOM      1  C   UNL     1       2.980   5.316  18.414  0.00  0.00    +0.000 A 
ATOM      2  C   UNL     1       2.861   4.394  19.465  0.00  0.00    +0.000 A 
ATOM      3  C   UNL     1       2.314   4.783  20.681  0.00  0.00    +0.000 A 
ATOM      4  C   UNL     1       1.882   6.095  20.867  0.00  0.00    +0.000 A 
ATOM      5  C   UNL     1       1.978   7.046  19.829  0.00  0.00    +0.000 A 
ATOM      6  C   UNL     1       2.527   6.629  18.591  0.00  0.00    +0.000 A 
ENDROOT
BRANCH   5   7
ATOM      7  C   UNL     1       1.501   8.446  20.081  0.00  0.00    +0.000 C 
ATOM      8  O   UNL     1       1.309   8.796  21.237  0.00  0.00    +0.000 OA
ATOM      9  N   UNL     1       1.268   9.331  19.065  0.00  0.00    +0.000 N 
ATOM     10  H   UNL     1       1.420   9.049  18.090  0.00  0.00    +0.000 HD
BRANCH   9  11
ATOM     11  CA  UNL     1       0.784  10.689  19.276  0.00  0.00    +0.000 C 
BRANCH  11  12
ATOM     12  C   UNL     1      -0.642  10.790  18.768  0.00  0.00    +0.000 A 
ATOM     13  C   UNL     1      -1.530  11.717  19.342  0.00  0.00    +0.000 A 
ATOM     14  C   UNL     1      -2.853  11.800  18.896  0.00  0.00    +0.000 A 
ATOM     15  C   UNL     1      -3.303  10.958  17.876  0.00  0.00    +0.000 A 
ATOM     16  C   UNL     1      -2.431  10.034  17.297  0.00  0.00    +0.000 A 
ATOM     17  C   UNL     1      -1.107   9.949  17.736  0.00  0.00    +0.000 A 
ENDBRANCH  11  12
BRANCH  11  18
ATOM     18  C   UNL     1       1.705  11.694  18.566  0.00  0.00    +0.000 C 
BRANCH  18  19
ATOM     19  O   UNL     1       2.308  11.101  17.447  0.00  0.00    +0.000 OA
ATOM     20  H   UNL     1       3.278  11.033  17.649  0.00  0.00    +0.000 HD
ENDBRANCH  18  19
ENDBRANCH  11  18
ENDBRANCH   9  11
ENDBRANCH   5   7
BRANCH   1  21
ATOM     21  O   UNL     1       3.516   4.955  17.219  0.00  0.00    +0.000 OA
BRANCH  21  24
ATOM     22  C   UNL     1       6.580   5.112  15.252  0.00  0.00    +0.000 A 
ATOM     23  C   UNL     1       5.258   4.805  15.604  0.00  0.00    +0.000 A 
ATOM     24  C   UNL     1       4.790   5.230  16.847  0.00  0.00    +0.000 A 
ATOM     25  N   UNL     1       5.611   5.941  17.667  0.00  0.00    +0.000 NA
ATOM     26  C   UNL     1       6.885   6.236  17.308  0.00  0.00    +0.000 A 
ATOM     27  N   UNL     1       7.361   5.821  16.107  0.00  0.00    +0.000 NA
BRANCH  22  28
ATOM     28  C   UNL     1       7.137   4.670  13.934  0.00  0.00    +0.000 C 
BRANCH  28  29
ATOM     29  N   UNL     1       6.357   3.553  13.414  0.00  0.00    +0.000 NA
ATOM     30  H   UNL     1       5.346   3.741  13.599  0.00  0.00    +0.000 HD
ATOM     31  H   UNL     1       6.622   2.681  13.926  0.00  0.00    +0.000 HD
ENDBRANCH  28  29
ENDBRANCH  22  28
ENDBRANCH  21  24
ENDBRANCH   1  21
TORSDOF 9
ENDMDL
MODEL 5
REMARK VINA RESULT:      -7.7      0.409      1.017
REMARK  Name = 
REMARK  9 active torsions:
REMARK  status: ('A' for Active; 'I' for Inactive)
REMARK    1  A    between atoms: N_1  and  C_2
REMARK    2  A    between atoms: C_2  and  C_3
REMARK    3  A    between atoms: C_5  and  O_6
REMARK    4  A    between atoms: O_6  and  C_7
REMARK    5  A    between atoms: C_11  and  C_12
REMARK    6  A    between atoms: N_14  and  CA_15
REMARK    7  A    between atoms: CA_15  and  C_16
REMARK    8  A    between atoms: CA_15  and  C_18
REMARK    9  A    between atoms: C_16  and  O_17
REMARK                            x       y       z     vdW  Elec       q    Type
REMARK                         _______ _______ _______ _____ _____    ______ ____
ROOT
ATOM      1  C   UNL     1       2.970   5.250  18.478  0.00  0.00    +0.000 A 
ATOM      2  C   UNL     1       2.700   4.286  19.461  0.00  0.00    +0.000 A 
ATOM      3  C   UNL     1       2.051   4.645  20.636  0.00  0.00    +0.000 A 
ATOM      4  C   UNL     1       1.666   5.967  20.846  0.00  0.00    +0.000 A 
ATOM      5  C   UNL     1       1.913   6.961  19.875  0.00  0.00    +0.000 A 
ATOM      6  C   UNL     1       2.565   6.575  18.678  0.00  0.00    +0.000 A 
ENDROOT
BRANCH   5   7
ATOM      7  C   UNL     1       1.481   8.370  20.152  0.00  0.00    +0.000 C 
ATOM      8  O   UNL     1       1.341   8.718  21.317  0.00  0.00    +0.000 OA
ATOM      9  N   UNL     1       1.234   9.268  19.151  0.00  0.00    +0.000 N 
ATOM     10  H   UNL     1       1.343   8.989  18.170  0.00  0.00    +0.000 HD
BRANCH   9  11
ATOM     11  CA  UNL     1       0.792  10.636  19.387  0.00  0.00    +0.000 C 
BRANCH  11  12
ATOM     12  C   UNL     1      -0.627  10.792  18.874  0.00  0.00    +0.000 A 
ATOM     13  C   UNL     1      -1.520  11.662  19.525  0.00  0.00    +0.000 A 
ATOM     14  C   UNL     1      -2.836  11.795  19.073  0.00  0.00    +0.000 A 
ATOM     15  C   UNL     1      -3.276  11.060  17.970  0.00  0.00    +0.000 A 
ATOM     16  C   UNL     1      -2.399  10.194  17.313  0.00  0.00    +0.000 A 
ATOM     17  C   UNL     1      -1.082  10.060  17.758  0.00  0.00    +0.000 A 
ENDBRANCH  11  12
BRANCH  11  18
ATOM     18  C   UNL     1       1.749  11.625  18.703  0.00  0.00    +0.000 C 
BRANCH  18  19
ATOM     19  O   UNL     1       1.034  12.524  17.899  0.00  0.00    +0.000 OA
ATOM     20  H   UNL     1       0.945  13.364  18.420  0.00  0.00    +0.000 HD
ENDBRANCH  18  19
ENDBRANCH  11  18
ENDBRANCH   9  11
ENDBRANCH   5   7
BRANCH   1  21
ATOM     21  O   UNL     1       3.607   4.918  17.325  0.00  0.00    +0.000 OA
BRANCH  21  24
ATOM     22  C   UNL     1       7.156   5.389  18.003  0.00  0.00    +0.000 A 
ATOM     23  C   UNL     1       5.767   5.432  18.182  0.00  0.00    +0.000 A 
ATOM     24  C   UNL     1       4.955   4.898  17.183  0.00  0.00    +0.000 A 
ATOM     25  N   UNL     1       5.525   4.336  16.083  0.00  0.00    +0.000 NA
ATOM     26  C   UNL     1       6.871   4.295  15.928  0.00  0.00    +0.000 A 
ATOM     27  N   UNL     1       7.678   4.820  16.885  0.00  0.00    +0.000 NA
BRANCH  22  28
ATOM     28  C   UNL     1       8.075   5.958  19.040  0.00  0.00    +0.000 C 
BRANCH  28  29
ATOM     29  N   UNL     1       7.766   5.386  20.346  0.00  0.00    +0.000 NA
ATOM     30  H   UNL     1       7.712   4.346  20.246  0.00  0.00    +0.000 HD
ATOM     31  H   UNL     1       6.829   5.729  20.659  0.00  0.00    +0.000 HD
ENDBRANCH  28  29
ENDBRANCH  22  28
ENDBRANCH  21  24
ENDBRANCH   1  21
TORSDOF 9
ENDMDL
MODEL 6
REMARK VINA RESULT:      -7.5      1.689      3.286
REMARK  Name = 
REMARK  9 active torsions:
REMARK  status: ('A' for Active; 'I' for Inactive)
REMARK    1  A    between atoms: N_1  and  C_2
REMARK    2  A    between atoms: C_2  and  C_3
REMARK    3  A    between atoms: C_5  and  O_6
REMARK    4  A    between atoms: O_6  and  C_7
REMARK    5  A    between atoms: C_11  and  C_12
REMARK    6  A    between atoms: N_14  and  CA_15
REMARK    7  A    between atoms: CA_15  and  C_16
REMARK    8  A    between atoms: CA_15  and  C_18
REMARK    9  A    between atoms: C_16  and  O_17
REMARK                            x       y       z     vdW  Elec       q    Type
REMARK                         _______ _______ _______ _____ _____    ______ ____
ROOT
ATOM      1  C   UNL     1       3.312   4.994  18.901  0.00  0.00    +0.000 A 
ATOM      2  C   UNL     1       2.900   4.803  20.229  0.00  0.00    +0.000 A 
ATOM      3  C   UNL     1       2.181   5.791  20.889  0.00  0.00    +0.000 A 
ATOM      4  C   UNL     1       1.865   6.981  20.237  0.00  0.00    +0.000 A 
ATOM      5  C   UNL     1       2.255   7.203  18.899  0.00  0.00    +0.000 A 
ATOM      6  C   UNL     1       2.977   6.180  18.236  0.00  0.00    +0.000 A 
ENDROOT
BRANCH   5   7
ATOM      7  C   UNL     1       1.892   8.502  18.243  0.00  0.00    +0.000 C 
ATOM      8  O   UNL     1       2.429   8.789  17.182  0.00  0.00    +0.000 OA
ATOM      9  N   UNL     1       0.992   9.371  18.795  0.00  0.00    +0.000 N 
ATOM     10  H   UNL     1       0.538   9.146  19.687  0.00  0.00    +0.000 HD
BRANCH   9  11
ATOM     11  CA  UNL     1       0.635  10.650  18.194  0.00  0.00    +0.000 C 
BRANCH  11  12
ATOM     12  C   UNL     1       1.363  11.761  18.927  0.00  0.00    +0.000 A 
ATOM     13  C   UNL     1       2.313  12.546  18.251  0.00  0.00    +0.000 A 
ATOM     14  C   UNL     1       3.006  13.557  18.925  0.00  0.00    +0.000 A 
ATOM     15  C   UNL     1       2.760  13.792  20.279  0.00  0.00    +0.000 A 
ATOM     16  C   UNL     1       1.818  13.020  20.962  0.00  0.00    +0.000 A 
ATOM     17  C   UNL     1       1.120  12.011  20.293  0.00  0.00    +0.000 A 
ENDBRANCH  11  12
BRANCH  11  18
ATOM     18  C   UNL     1      -0.888  10.849  18.243  0.00  0.00    +0.000 C 
BRANCH  18  19
ATOM     19  O   UNL     1      -1.467  10.511  17.011  0.00  0.00    +0.000 OA
ATOM     20  H   UNL     1      -1.030  11.081  16.325  0.00  0.00    +0.000 HD
ENDBRANCH  18  19
ENDBRANCH  11  18
ENDBRANCH   9  11
ENDBRANCH   5   7
BRANCH   1  21
ATOM     21  O   UNL     1       4.019   4.041  18.241  0.00  0.00    +0.000 OA
BRANCH  21  24
ATOM     22  C   UNL     1       6.577   4.546  15.694  0.00  0.00    +0.000 A 
ATOM     23  C   UNL     1       5.318   4.312  16.264  0.00  0.00    +0.000 A 
ATOM     24  C   UNL     1       5.222   4.261  17.654  0.00  0.00    +0.000 A 
ATOM     25  N   UNL     1       6.334   4.457  18.413  0.00  0.00    +0.000 NA
ATOM     26  C   UNL     1       7.543   4.690  17.846  0.00  0.00    +0.000 A 
ATOM     27  N   UNL     1       7.659   4.733  16.494  0.00  0.00    +0.000 NA
BRANCH  22  28
ATOM     28  C   UNL     1       6.739   4.601  14.206  0.00  0.00    +0.000 C 
BRANCH  28  29
ATOM     29  N   UNL     1       7.869   5.456  13.860  0.00  0.00    +0.000 NA
ATOM     30  H   UNL     1       7.884   5.580  12.822  0.00  0.00    +0.000 HD
ATOM     31  H   UNL     1       8.758   4.982  14.141  0.00  0.00    +0.000 HD
ENDBRANCH  28  29
ENDBRANCH  22  28
ENDBRANCH  21  24
ENDBRANCH   1  21
TORSDOF 9
ENDMDL
MODEL 7
REMARK VINA RESULT:      -7.5      2.669      8.965
REMARK  Name = 
REMARK  9 active torsions:
REMARK  status: ('A' for Active; 'I' for Inactive)
REMARK    1  A    between atoms: N_1  and  C_2
REMARK    2  A    between atoms: C_2  and  C_3
REMARK    3  A    between atoms: C_5  and  O_6
REMARK    4  A    between atoms: O_6  and  C_7
REMARK    5  A    between atoms: C_11  and  C_12
REMARK    6  A    between atoms: N_14  and  CA_15
REMARK    7  A    between atoms: CA_15  and  C_16
REMARK    8  A    between atoms: CA_15  and  C_18
REMARK    9  A    between atoms: C_16  and  O_17
REMARK                            x       y       z     vdW  Elec       q    Type
REMARK                         _______ _______ _______ _____ _____    ______ ____
ROOT
ATOM      1  C   UNL     1       0.250  10.595  19.888  0.00  0.00    +0.000 A 
ATOM      2  C   UNL     1       0.146  10.091  21.193  0.00  0.00    +0.000 A 
ATOM      3  C   UNL     1       0.778   8.903  21.538  0.00  0.00    +0.000 A 
ATOM      4  C   UNL     1       1.517   8.202  20.588  0.00  0.00    +0.000 A 
ATOM      5  C   UNL     1       1.651   8.684  19.269  0.00  0.00    +0.000 A 
ATOM      6  C   UNL     1       1.011   9.904  18.937  0.00  0.00    +0.000 A 
ENDROOT
BRANCH   5   7
ATOM      7  C   UNL     1       2.456   7.890  18.284  0.00  0.00    +0.000 C 
ATOM      8  O   UNL     1       2.672   8.377  17.182  0.00  0.00    +0.000 OA
ATOM      9  N   UNL     1       2.945   6.647  18.575  0.00  0.00    +0.000 N 
ATOM     10  H   UNL     1       2.768   6.225  19.492  0.00  0.00    +0.000 HD
BRANCH   9  11
ATOM     11  CA  UNL     1       3.712   5.843  17.632  0.00  0.00    +0.000 C 
BRANCH  11  12
ATOM     12  C   UNL     1       3.575   4.380  18.006  0.00  0.00    +0.000 A 
ATOM     13  C   UNL     1       4.352   3.843  19.049  0.00  0.00    +0.000 A 
ATOM     14  C   UNL     1       4.250   2.490  19.384  0.00  0.00    +0.000 A 
ATOM     15  C   UNL     1       3.375   1.658  18.683  0.00  0.00    +0.000 A 
ATOM     16  C   UNL     1       2.596   2.178  17.646  0.00  0.00    +0.000 A 
ATOM     17  C   UNL     1       2.692   3.530  17.309  0.00  0.00    +0.000 A 
ENDBRANCH  11  12
BRANCH  11  18
ATOM     18  C   UNL     1       5.183   6.288  17.634  0.00  0.00    +0.000 C 
BRANCH  18  19
ATOM     19  O   UNL     1       5.491   6.971  16.448  0.00  0.00    +0.000 OA
ATOM     20  H   UNL     1       6.422   6.722  16.209  0.00  0.00    +0.000 HD
ENDBRANCH  18  19
ENDBRANCH  11  18
ENDBRANCH   9  11
ENDBRANCH   5   7
BRANCH   1  21
ATOM     21  O   UNL     1      -0.364  11.753  19.531  0.00  0.00    +0.000 OA
BRANCH  21  24
ATOM     22  C   UNL     1      -3.545  11.516  17.767  0.00  0.00    +0.000 A 
ATOM     23  C   UNL     1      -2.172  11.401  18.022  0.00  0.00    +0.000 A 
ATOM     24  C   UNL     1      -1.686  11.853  19.249  0.00  0.00    +0.000 A 
ATOM     25  N   UNL     1      -2.551  12.370  20.164  0.00  0.00    +0.000 NA
ATOM     26  C   UNL     1      -3.878  12.468  19.905  0.00  0.00    +0.000 A 
ATOM     27  N   UNL     1      -4.367  12.043  18.713  0.00  0.00    +0.000 NA
BRANCH  22  28
ATOM     28  C   UNL     1      -4.118  11.056  16.462  0.00  0.00    +0.000 C 
BRANCH  28  29
ATOM     29  N   UNL     1      -3.219  11.414  15.371  0.00  0.00    +0.000 NA
ATOM     30  H   UNL     1      -3.688  12.137  14.780  0.00  0.00    +0.000 HD
ATOM     31  H   UNL     1      -3.047  10.572  14.776  0.00  0.00    +0.000 HD
ENDBRANCH  28  29
ENDBRANCH  22  28
ENDBRANCH  21  24
ENDBRANCH   1  21
TORSDOF 9
ENDMDL
MODEL 8
REMARK VINA RESULT:      -7.5      1.186      2.197
REMARK  Name = 
REMARK  9 active torsions:
REMARK  status: ('A' for Active; 'I' for Inactive)
REMARK    1  A    between atoms: N_1  and  C_2
REMARK    2  A    between atoms: C_2  and  C_3
REMARK    3  A    between atoms: C_5  and  O_6
REMARK    4  A    between atoms: O_6  and  C_7
REMARK    5  A    between atoms: C_11  and  C_12
REMARK    6  A    between atoms: N_14  and  CA_15
REMARK    7  A    between atoms: CA_15  and  C_16
REMARK    8  A    between atoms: CA_15  and  C_18
REMARK    9  A    between atoms: C_16  and  O_17
REMARK                            x       y       z     vdW  Elec       q    Type
REMARK                         _______ _______ _______ _____ _____    ______ ____
ROOT
ATOM      1  C   UNL     1       3.433   4.269  19.773  0.00  0.00    +0.000 A 
ATOM      2  C   UNL     1       2.333   3.464  20.105  0.00  0.00    +0.000 A 
ATOM      3  C   UNL     1       1.110   4.042  20.420  0.00  0.00    +0.000 A 
ATOM      4  C   UNL     1       0.968   5.428  20.411  0.00  0.00    +0.000 A 
ATOM      5  C   UNL     1       2.050   6.268  20.073  0.00  0.00    +0.000 A 
ATOM      6  C   UNL     1       3.287   5.661  19.742  0.00  0.00    +0.000 A 
ENDROOT
BRANCH   5   7
ATOM      7  C   UNL     1       1.846   7.754  20.080  0.00  0.00    +0.000 C 
ATOM      8  O   UNL     1       1.798   8.330  21.159  0.00  0.00    +0.000 OA
ATOM      9  N   UNL     1       1.705   8.477  18.928  0.00  0.00    +0.000 N 
ATOM     10  H   UNL     1       1.738   8.007  18.017  0.00  0.00    +0.000 HD
BRANCH   9  11
ATOM     11  CA  UNL     1       1.484   9.917  18.903  0.00  0.00    +0.000 C 
BRANCH  11  12
ATOM     12  C   UNL     1       0.022  10.187  18.601  0.00  0.00    +0.000 A 
ATOM     13  C   UNL     1      -0.728  11.026  19.445  0.00  0.00    +0.000 A 
ATOM     14  C   UNL     1      -2.082  11.261  19.187  0.00  0.00    +0.000 A 
ATOM     15  C   UNL     1      -2.702  10.661  18.089  0.00  0.00    +0.000 A 
ATOM     16  C   UNL     1      -1.968   9.826  17.243  0.00  0.00    +0.000 A 
ATOM     17  C   UNL     1      -0.614   9.590  17.493  0.00  0.00    +0.000 A 
ENDBRANCH  11  12
BRANCH  11  18
ATOM     18  C   UNL     1       2.403  10.574  17.862  0.00  0.00    +0.000 C 
BRANCH  18  19
ATOM     19  O   UNL     1       2.316  11.971  17.941  0.00  0.00    +0.000 OA
ATOM     20  H   UNL     1       1.349  12.194  17.982  0.00  0.00    +0.000 HD
ENDBRANCH  18  19
ENDBRANCH  11  18
ENDBRANCH   9  11
ENDBRANCH   5   7
BRANCH   1  21
ATOM     21  O   UNL     1       4.637   3.721  19.466  0.00  0.00    +0.000 OA
BRANCH  21  24
ATOM     22  C   UNL     1       6.552   4.819  16.566  0.00  0.00    +0.000 A 
ATOM     23  C   UNL     1       5.568   4.165  17.321  0.00  0.00    +0.000 A 
ATOM     24  C   UNL     1       5.576   4.335  18.705  0.00  0.00    +0.000 A 
ATOM     25  N   UNL     1       6.514   5.138  19.278  0.00  0.00    +0.000 NA
ATOM     26  C   UNL     1       7.454   5.769  18.533  0.00  0.00    +0.000 A 
ATOM     27  N   UNL     1       7.468   5.608  17.185  0.00  0.00    +0.000 NA
BRANCH  22  28
ATOM     28  C   UNL     1       6.596   4.663  15.077  0.00  0.00    +0.000 C 
BRANCH  28  29
ATOM     29  N   UNL     1       7.672   5.478  14.524  0.00  0.00    +0.000 NA
ATOM     30  H   UNL     1       7.423   5.730  13.540  0.00  0.00    +0.000 HD
ATOM     31  H   UNL     1       8.552   4.914  14.499  0.00  0.00    +0.000 HD
ENDBRANCH  28  29
ENDBRANCH  22  28
ENDBRANCH  21  24
ENDBRANCH   1  21
TORSDOF 9
ENDMDL
MODEL 9
REMARK VINA RESULT:      -7.5      2.715      8.918
REMARK  Name = 
REMARK  9 active torsions:
REMARK  status: ('A' for Active; 'I' for Inactive)
REMARK    1  A    between atoms: N_1  and  C_2
REMARK    2  A    between atoms: C_2  and  C_3
REMARK    3  A    between atoms: C_5  and  O_6
REMARK    4  A    between atoms: O_6  and  C_7
REMARK    5  A    between atoms: C_11  and  C_12
REMARK    6  A    between atoms: N_14  and  CA_15
REMARK    7  A    between atoms: CA_15  and  C_16
REMARK    8  A    between atoms: CA_15  and  C_18
REMARK    9  A    between atoms: C_16  and  O_17
REMARK                            x       y       z     vdW  Elec       q    Type
REMARK                         _______ _______ _______ _____ _____    ______ ____
ROOT
ATOM      1  C   UNL     1      -0.107  11.067  20.097  0.00  0.00    +0.000 A 
ATOM      2  C   UNL     1      -0.025  10.759  21.463  0.00  0.00    +0.000 A 
ATOM      3  C   UNL     1       0.686   9.644  21.890  0.00  0.00    +0.000 A 
ATOM      4  C   UNL     1       1.320   8.822  20.961  0.00  0.00    +0.000 A 
ATOM      5  C   UNL     1       1.266   9.106  19.580  0.00  0.00    +0.000 A 
ATOM      6  C   UNL     1       0.548  10.254  19.164  0.00  0.00    +0.000 A 
ENDROOT
BRANCH   5   7
ATOM      7  C   UNL     1       1.964   8.188  18.622  0.00  0.00    +0.000 C 
ATOM      8  O   UNL     1       2.172   8.584  17.483  0.00  0.00    +0.000 OA
ATOM      9  N   UNL     1       2.364   6.930  18.978  0.00  0.00    +0.000 N 
ATOM     10  H   UNL     1       2.192   6.583  19.927  0.00  0.00    +0.000 HD
BRANCH   9  11
ATOM     11  CA  UNL     1       3.025   6.007  18.064  0.00  0.00    +0.000 C 
BRANCH  11  12
ATOM     12  C   UNL     1       2.496   4.606  18.309  0.00  0.00    +0.000 A 
ATOM     13  C   UNL     1       2.908   3.543  17.484  0.00  0.00    +0.000 A 
ATOM     14  C   UNL     1       2.407   2.254  17.689  0.00  0.00    +0.000 A 
ATOM     15  C   UNL     1       1.491   2.012  18.714  0.00  0.00    +0.000 A 
ATOM     16  C   UNL     1       1.075   3.057  19.541  0.00  0.00    +0.000 A 
ATOM     17  C   UNL     1       1.574   4.348  19.344  0.00  0.00    +0.000 A 
ENDBRANCH  11  12
BRANCH  11  18
ATOM     18  C   UNL     1       4.548   6.074  18.256  0.00  0.00    +0.000 C 
BRANCH  18  19
ATOM     19  O   UNL     1       4.915   5.496  19.479  0.00  0.00    +0.000 OA
ATOM     20  H   UNL     1       4.096   5.474  20.041  0.00  0.00    +0.000 HD
ENDBRANCH  18  19
ENDBRANCH  11  18
ENDBRANCH   9  11
ENDBRANCH   5   7
BRANCH   1  21
ATOM     21  O   UNL     1      -0.801  12.151  19.661  0.00  0.00    +0.000 OA
BRANCH  21  24
ATOM     22  C   UNL     1      -3.852  11.662  17.730  0.00  0.00    +0.000 A 
ATOM     23  C   UNL     1      -2.488  11.681  18.049  0.00  0.00    +0.000 A 
ATOM     24  C   UNL     1      -2.111  12.123  19.317  0.00  0.00    +0.000 A 
ATOM     25  N   UNL     1      -3.068  12.499  20.208  0.00  0.00    +0.000 NA
ATOM     26  C   UNL     1      -4.385  12.467  19.887  0.00  0.00    +0.000 A 
ATOM     27  N   UNL     1      -4.769  12.050  18.654  0.00  0.00    +0.000 NA
BRANCH  22  28
ATOM     28  C   UNL     1      -4.311  11.206  16.379  0.00  0.00    +0.000 C 
BRANCH  28  29
ATOM     29  N   UNL     1      -3.239  11.382  15.405  0.00  0.00    +0.000 NA
ATOM     30  H   UNL     1      -3.220  12.386  15.113  0.00  0.00    +0.000 HD
ATOM     31  H   UNL     1      -3.445  10.804  14.559  0.00  0.00    +0.000 HD
ENDBRANCH  28  29
ENDBRANCH  22  28
ENDBRANCH  21  24
ENDBRANCH   1  21
TORSDOF 9
ENDMDL
