MODEL 1
REMARK VINA RESULT:      -7.8      0.000      0.000
REMARK  Name = 
REMARK  4 active torsions:
REMARK  status: ('A' for Active; 'I' for Inactive)
REMARK    1  A    between atoms: C_1  and  N_2
REMARK    2  A    between atoms: C_8  and  O_9
REMARK    3  A    between atoms: O_9  and  C_10
REMARK    4  A    between atoms: C_10  and  C_12
REMARK                            x       y       z     vdW  Elec       q    Type
REMARK                         _______ _______ _______ _____ _____    ______ ____
ROOT
ATOM      1  C   UNL     1       7.043   4.576  15.328  0.00  0.00    +0.000 C 
ATOM      2  N   UNL     1       7.479   5.217  16.555  0.00  0.00    +0.000 NA
ATOM      3  C   UNL     1       7.067   4.570  17.803  0.00  0.00    +0.000 C 
ATOM      4  C   UNL     1       7.717   5.534  18.808  0.00  0.00    +0.000 C 
ATOM      5  C   UNL     1       7.716   6.894  18.096  0.00  0.00    +0.000 C 
ATOM      6  C   UNL     1       7.074   6.615  16.730  0.00  0.00    +0.000 C 
ATOM      7  C   UNL     1       5.545   6.776  16.778  0.00  0.00    +0.000 C 
ATOM      8  C   UNL     1       4.898   5.922  17.879  0.00  0.00    +0.000 C 
ATOM      9  C   UNL     1       5.536   4.528  17.963  0.00  0.00    +0.000 C 
ENDROOT
BRANCH   8  10
ATOM     10  O   UNL     1       3.485   5.770  17.621  0.00  0.00    +0.000 OA
BRANCH  10  11
ATOM     11  C   UNL     1       2.656   6.111  18.643  0.00  0.00    +0.000 C 
ATOM     12  O   UNL     1       2.299   7.243  18.924  0.00  0.00    +0.000 OA
BRANCH  11  13
ATOM     13  C   UNL     1       2.185   4.904  19.380  0.00  0.00    +0.000 A 
ATOM     14  C   UNL     1       2.528   4.782  20.736  0.00  0.00    +0.000 A 
ATOM     15  C   UNL     1       2.051   3.709  21.493  0.00  0.00    +0.000 A 
ATOM     16  C   UNL     1       1.234   2.748  20.901  0.00  0.00    +0.000 A 
ATOM     17  C   UNL     1       0.909   2.847  19.547  0.00  0.00    +0.000 A 
ATOM     18  C   UNL     1       1.386   3.918  18.786  0.00  0.00    +0.000 A 
ENDBRANCH  11  13
ENDBRANCH  10  11
ENDBRANCH   8  10
TORSDOF 3
ENDMDL
MODEL 2
REMARK VINA RESULT:      -7.6      0.419      1.206
REMARK  Name = 
REMARK  4 active torsions:
REMARK  status: ('A' for Active; 'I' for Inactive)
REMARK    1  A    between atoms: C_1  and  N_2
REMARK    2  A    between atoms: C_8  and  O_9
REMARK    3  A    between atoms: O_9  and  C_10
REMARK    4  A    between atoms: C_10  and  C_12
REMARK                            x       y       z     vdW  Elec       q    Type
REMARK                         _______ _______ _______ _____ _____    ______ ____
ROOT
ATOM      1  C   UNL     1       6.793   5.130  14.724  0.00  0.00    +0.000 C 
ATOM      2  N   UNL     1       7.300   5.488  16.034  0.00  0.00    +0.000 NA
ATOM      3  C   UNL     1       7.013   4.546  17.119  0.00  0.00    +0.000 C 
ATOM      4  C   UNL     1       7.705   5.281  18.277  0.00  0.00    +0.000 C 
ATOM      5  C   UNL     1       7.598   6.768  17.910  0.00  0.00    +0.000 C 
ATOM      6  C   UNL     1       6.860   6.783  16.564  0.00  0.00    +0.000 C 
ATOM      7  C   UNL     1       5.335   6.846  16.754  0.00  0.00    +0.000 C 
ATOM      8  C   UNL     1       4.809   5.724  17.662  0.00  0.00    +0.000 C 
ATOM      9  C   UNL     1       5.501   4.385  17.368  0.00  0.00    +0.000 C 
ENDROOT
BRANCH   8  10
ATOM     10  O   UNL     1       3.386   5.561  17.472  0.00  0.00    +0.000 OA
BRANCH  10  11
ATOM     11  C   UNL     1       2.598   6.016  18.482  0.00  0.00    +0.000 C 
ATOM     12  O   UNL     1       2.319   7.184  18.696  0.00  0.00    +0.000 OA
BRANCH  11  13
ATOM     13  C   UNL     1       2.064   4.890  19.298  0.00  0.00    +0.000 A 
ATOM     14  C   UNL     1       1.431   3.830  18.628  0.00  0.00    +0.000 A 
ATOM     15  C   UNL     1       0.978   2.715  19.336  0.00  0.00    +0.000 A 
ATOM     16  C   UNL     1       1.148   2.651  20.718  0.00  0.00    +0.000 A 
ATOM     17  C   UNL     1       1.752   3.711  21.396  0.00  0.00    +0.000 A 
ATOM     18  C   UNL     1       2.205   4.830  20.691  0.00  0.00    +0.000 A 
ENDBRANCH  11  13
ENDBRANCH  10  11
ENDBRANCH   8  10
TORSDOF 3
ENDMDL
MODEL 3
REMARK VINA RESULT:      -7.4      1.876      2.894
REMARK  Name = 
REMARK  4 active torsions:
REMARK  status: ('A' for Active; 'I' for Inactive)
REMARK    1  A    between atoms: C_1  and  N_2
REMARK    2  A    between atoms: C_8  and  O_9
REMARK    3  A    between atoms: O_9  and  C_10
REMARK    4  A    between atoms: C_10  and  C_12
REMARK                            x       y       z     vdW  Elec       q    Type
REMARK                         _______ _______ _______ _____ _____    ______ ____
ROOT
ATOM      1  C   UNL     1       6.697   7.627  17.360  0.00  0.00    +0.000 C 
ATOM      2  N   UNL     1       6.520   6.542  16.413  0.00  0.00    +0.000 NA
ATOM      3  C   UNL     1       5.158   6.024  16.270  0.00  0.00    +0.000 C 
ATOM      4  C   UNL     1       5.414   4.939  15.213  0.00  0.00    +0.000 C 
ATOM      5  C   UNL     1       6.858   4.484  15.467  0.00  0.00    +0.000 C 
ATOM      6  C   UNL     1       7.332   5.344  16.647  0.00  0.00    +0.000 C 
ATOM      7  C   UNL     1       7.014   4.680  17.997  0.00  0.00    +0.000 C 
ATOM      8  C   UNL     1       5.527   4.318  18.139  0.00  0.00    +0.000 C 
ATOM      9  C   UNL     1       4.619   5.424  17.584  0.00  0.00    +0.000 C 
ENDROOT
BRANCH   8  10
ATOM     10  O   UNL     1       5.200   4.105  19.530  0.00  0.00    +0.000 OA
BRANCH  10  11
ATOM     11  C   UNL     1       4.638   2.904  19.829  0.00  0.00    +0.000 C 
ATOM     12  O   UNL     1       5.242   1.901  20.171  0.00  0.00    +0.000 OA
BRANCH  11  13
ATOM     13  C   UNL     1       3.152   2.965  19.729  0.00  0.00    +0.000 A 
ATOM     14  C   UNL     1       2.480   3.941  20.481  0.00  0.00    +0.000 A 
ATOM     15  C   UNL     1       1.095   4.091  20.370  0.00  0.00    +0.000 A 
ATOM     16  C   UNL     1       0.373   3.265  19.511  0.00  0.00    +0.000 A 
ATOM     17  C   UNL     1       1.030   2.275  18.779  0.00  0.00    +0.000 A 
ATOM     18  C   UNL     1       2.414   2.121  18.889  0.00  0.00    +0.000 A 
ENDBRANCH  11  13
ENDBRANCH  10  11
ENDBRANCH   8  10
TORSDOF 3
ENDMDL
MODEL 4
REMARK VINA RESULT:      -7.4      1.919      3.106
REMARK  Name = 
REMARK  4 active torsions:
REMARK  status: ('A' for Active; 'I' for Inactive)
REMARK    1  A    between atoms: C_1  and  N_2
REMARK    2  A    between atoms: C_8  and  O_9
REMARK    3  A    between atoms: O_9  and  C_10
REMARK    4  A    between atoms: C_10  and  C_12
REMARK                            x       y       z     vdW  Elec       q    Type
REMARK                         _______ _______ _______ _____ _____    ______ ____
ROOT
ATOM      1  C   UNL     1       6.531   7.476  17.254  0.00  0.00    +0.000 C 
ATOM      2  N   UNL     1       6.395   6.362  16.335  0.00  0.00    +0.000 NA
ATOM      3  C   UNL     1       5.059   5.772  16.227  0.00  0.00    +0.000 C 
ATOM      4  C   UNL     1       5.353   4.677  15.190  0.00  0.00    +0.000 C 
ATOM      5  C   UNL     1       6.822   4.302  15.431  0.00  0.00    +0.000 C 
ATOM      6  C   UNL     1       7.270   5.212  16.583  0.00  0.00    +0.000 C 
ATOM      7  C   UNL     1       7.007   4.565  17.953  0.00  0.00    +0.000 C 
ATOM      8  C   UNL     1       5.543   4.132  18.127  0.00  0.00    +0.000 C 
ATOM      9  C   UNL     1       4.572   5.177  17.562  0.00  0.00    +0.000 C 
ENDROOT
BRANCH   8  10
ATOM     10  O   UNL     1       5.249   3.936  19.528  0.00  0.00    +0.000 OA
BRANCH  10  11
ATOM     11  C   UNL     1       4.597   2.784  19.841  0.00  0.00    +0.000 C 
ATOM     12  O   UNL     1       5.123   1.741  20.191  0.00  0.00    +0.000 OA
BRANCH  11  13
ATOM     13  C   UNL     1       3.121   2.958  19.744  0.00  0.00    +0.000 A 
ATOM     14  C   UNL     1       2.413   2.124  18.864  0.00  0.00    +0.000 A 
ATOM     15  C   UNL     1       1.020   2.193  18.788  0.00  0.00    +0.000 A 
ATOM     16  C   UNL     1       0.324   3.098  19.587  0.00  0.00    +0.000 A 
ATOM     17  C   UNL     1       1.021   3.950  20.445  0.00  0.00    +0.000 A 
ATOM     18  C   UNL     1       2.414   3.885  20.522  0.00  0.00    +0.000 A 
ENDBRANCH  11  13
ENDBRANCH  10  11
ENDBRANCH   8  10
TORSDOF 3
ENDMDL
MODEL 5
REMARK VINA RESULT:      -7.3      2.502      5.850
REMARK  Name = 
REMARK  4 active torsions:
REMARK  status: ('A' for Active; 'I' for Inactive)
REMARK    1  A    between atoms: C_1  and  N_2
REMARK    2  A    between atoms: C_8  and  O_9
REMARK    3  A    between atoms: O_9  and  C_10
REMARK    4  A    between atoms: C_10  and  C_12
REMARK                            x       y       z     vdW  Elec       q    Type
REMARK                         _______ _______ _______ _____ _____    ______ ____
ROOT
ATOM      1  C   UNL     1       1.956   3.086  21.761  0.00  0.00    +0.000 C 
ATOM      2  N   UNL     1       1.627   3.252  20.358  0.00  0.00    +0.000 NA
ATOM      3  C   UNL     1       2.219   2.280  19.436  0.00  0.00    +0.000 C 
ATOM      4  C   UNL     1       1.633   2.801  18.115  0.00  0.00    +0.000 C 
ATOM      5  C   UNL     1       1.468   4.311  18.334  0.00  0.00    +0.000 C 
ATOM      6  C   UNL     1       1.963   4.551  19.766  0.00  0.00    +0.000 C 
ATOM      7  C   UNL     1       3.474   4.834  19.805  0.00  0.00    +0.000 C 
ATOM      8  C   UNL     1       4.296   3.736  19.111  0.00  0.00    +0.000 C 
ATOM      9  C   UNL     1       3.759   2.335  19.437  0.00  0.00    +0.000 C 
ENDROOT
BRANCH   8  10
ATOM     10  O   UNL     1       5.676   3.812  19.531  0.00  0.00    +0.000 OA
BRANCH  10  11
ATOM     11  C   UNL     1       6.356   4.919  19.131  0.00  0.00    +0.000 C 
ATOM     12  O   UNL     1       7.052   5.624  19.843  0.00  0.00    +0.000 OA
BRANCH  11  13
ATOM     13  C   UNL     1       6.185   5.158  17.670  0.00  0.00    +0.000 A 
ATOM     14  C   UNL     1       6.851   4.303  16.778  0.00  0.00    +0.000 A 
ATOM     15  C   UNL     1       6.667   4.435  15.399  0.00  0.00    +0.000 A 
ATOM     16  C   UNL     1       5.821   5.424  14.902  0.00  0.00    +0.000 A 
ATOM     17  C   UNL     1       5.176   6.296  15.780  0.00  0.00    +0.000 A 
ATOM     18  C   UNL     1       5.359   6.168  17.159  0.00  0.00    +0.000 A 
ENDBRANCH  11  13
ENDBRANCH  10  11
ENDBRANCH   8  10
TORSDOF 3
ENDMDL
MODEL 6
REMARK VINA RESULT:      -7.3      0.992      2.320
REMARK  Name = 
REMARK  4 active torsions:
REMARK  status: ('A' for Active; 'I' for Inactive)
REMARK    1  A    between atoms: C_1  and  N_2
REMARK    2  A    between atoms: C_8  and  O_9
REMARK    3  A    between atoms: O_9  and  C_10
REMARK    4  A    between atoms: C_10  and  C_12
REMARK                            x       y       z     vdW  Elec       q    Type
REMARK                         _______ _______ _______ _____ _____    ______ ____
ROOT
ATOM      1  C   UNL     1       7.815   7.524  17.561  0.00  0.00    +0.000 C 
ATOM      2  N   UNL     1       7.291   6.440  16.753  0.00  0.00    +0.000 NA
ATOM      3  C   UNL     1       5.928   6.613  16.243  0.00  0.00    +0.000 C 
ATOM      4  C   UNL     1       5.781   5.293  15.471  0.00  0.00    +0.000 C 
ATOM      5  C   UNL     1       6.667   4.298  16.235  0.00  0.00    +0.000 C 
ATOM      6  C   UNL     1       7.266   5.117  17.386  0.00  0.00    +0.000 C 
ATOM      7  C   UNL     1       6.366   5.086  18.633  0.00  0.00    +0.000 C 
ATOM      8  C   UNL     1       4.926   5.528  18.330  0.00  0.00    +0.000 C 
ATOM      9  C   UNL     1       4.891   6.730  17.376  0.00  0.00    +0.000 C 
ENDROOT
BRANCH   8  10
ATOM     10  O   UNL     1       4.252   5.889  19.555  0.00  0.00    +0.000 OA
BRANCH  10  11
ATOM     11  C   UNL     1       2.922   6.149  19.445  0.00  0.00    +0.000 C 
ATOM     12  O   UNL     1       2.422   7.250  19.279  0.00  0.00    +0.000 OA
BRANCH  11  13
ATOM     13  C   UNL     1       2.121   4.894  19.508  0.00  0.00    +0.000 A 
ATOM     14  C   UNL     1       1.783   4.264  18.299  0.00  0.00    +0.000 A 
ATOM     15  C   UNL     1       1.097   3.047  18.302  0.00  0.00    +0.000 A 
ATOM     16  C   UNL     1       0.741   2.452  19.511  0.00  0.00    +0.000 A 
ATOM     17  C   UNL     1       1.050   3.084  20.716  0.00  0.00    +0.000 A 
ATOM     18  C   UNL     1       1.733   4.302  20.718  0.00  0.00    +0.000 A 
ENDBRANCH  11  13
ENDBRANCH  10  11
ENDBRANCH   8  10
TORSDOF 3
ENDMDL
MODEL 7
REMARK VINA RESULT:      -7.1      1.082      2.127
REMARK  Name = 
REMARK  4 active torsions:
REMARK  status: ('A' for Active; 'I' for Inactive)
REMARK    1  A    between atoms: C_1  and  N_2
REMARK    2  A    between atoms: C_8  and  O_9
REMARK    3  A    between atoms: O_9  and  C_10
REMARK    4  A    between atoms: C_10  and  C_12
REMARK                            x       y       z     vdW  Elec       q    Type
REMARK                         _______ _______ _______ _____ _____    ______ ____
ROOT
ATOM      1  C   UNL     1       7.635   7.685  17.474  0.00  0.00    +0.000 C 
ATOM      2  N   UNL     1       7.175   6.529  16.728  0.00  0.00    +0.000 NA
ATOM      3  C   UNL     1       5.797   6.585  16.233  0.00  0.00    +0.000 C 
ATOM      4  C   UNL     1       5.729   5.222  15.529  0.00  0.00    +0.000 C 
ATOM      5  C   UNL     1       6.690   4.327  16.325  0.00  0.00    +0.000 C 
ATOM      6  C   UNL     1       7.248   5.241  17.425  0.00  0.00    +0.000 C 
ATOM      7  C   UNL     1       6.369   5.212  18.687  0.00  0.00    +0.000 C 
ATOM      8  C   UNL     1       4.898   5.540  18.387  0.00  0.00    +0.000 C 
ATOM      9  C   UNL     1       4.769   6.689  17.376  0.00  0.00    +0.000 C 
ENDROOT
BRANCH   8  10
ATOM     10  O   UNL     1       4.218   5.916  19.604  0.00  0.00    +0.000 OA
BRANCH  10  11
ATOM     11  C   UNL     1       2.881   6.138  19.491  0.00  0.00    +0.000 C 
ATOM     12  O   UNL     1       2.341   7.231  19.450  0.00  0.00    +0.000 OA
BRANCH  11  13
ATOM     13  C   UNL     1       2.130   4.855  19.376  0.00  0.00    +0.000 A 
ATOM     14  C   UNL     1       1.515   4.345  20.530  0.00  0.00    +0.000 A 
ATOM     15  C   UNL     1       0.738   3.185  20.464  0.00  0.00    +0.000 A 
ATOM     16  C   UNL     1       0.573   2.526  19.247  0.00  0.00    +0.000 A 
ATOM     17  C   UNL     1       1.202   3.012  18.101  0.00  0.00    +0.000 A 
ATOM     18  C   UNL     1       1.982   4.170  18.163  0.00  0.00    +0.000 A 
ENDBRANCH  11  13
ENDBRANCH  10  11
ENDBRANCH   8  10
TORSDOF 3
ENDMDL
MODEL 8
REMARK VINA RESULT:      -7.1      2.005      5.720
REMARK  Name = 
REMARK  4 active torsions:
REMARK  status: ('A' for Active; 'I' for Inactive)
REMARK    1  A    between atoms: C_1  and  N_2
REMARK    2  A    between atoms: C_8  and  O_9
REMARK    3  A    between atoms: O_9  and  C_10
REMARK    4  A    between atoms: C_10  and  C_12
REMARK                            x       y       z     vdW  Elec       q    Type
REMARK                         _______ _______ _______ _____ _____    ______ ____
ROOT
ATOM      1  C   UNL     1       4.344   2.329  20.089  0.00  0.00    +0.000 C 
ATOM      2  N   UNL     1       2.921   2.611  20.104  0.00  0.00    +0.000 NA
ATOM      3  C   UNL     1       2.218   2.459  18.828  0.00  0.00    +0.000 C 
ATOM      4  C   UNL     1       0.798   2.836  19.280  0.00  0.00    +0.000 C 
ATOM      5  C   UNL     1       1.010   3.829  20.431  0.00  0.00    +0.000 C 
ATOM      6  C   UNL     1       2.534   3.948  20.565  0.00  0.00    +0.000 C 
ATOM      7  C   UNL     1       3.098   5.059  19.664  0.00  0.00    +0.000 C 
ATOM      8  C   UNL     1       2.683   4.893  18.194  0.00  0.00    +0.000 C 
ATOM      9  C   UNL     1       2.748   3.424  17.750  0.00  0.00    +0.000 C 
ENDROOT
BRANCH   8  10
ATOM     10  O   UNL     1       3.552   5.672  17.343  0.00  0.00    +0.000 OA
BRANCH  10  11
ATOM     11  C   UNL     1       4.674   5.041  16.906  0.00  0.00    +0.000 C 
ATOM     12  O   UNL     1       4.707   4.123  16.103  0.00  0.00    +0.000 OA
BRANCH  11  13
ATOM     13  C   UNL     1       5.899   5.644  17.503  0.00  0.00    +0.000 A 
ATOM     14  C   UNL     1       6.371   6.851  16.964  0.00  0.00    +0.000 A 
ATOM     15  C   UNL     1       7.471   7.498  17.533  0.00  0.00    +0.000 A 
ATOM     16  C   UNL     1       8.110   6.942  18.639  0.00  0.00    +0.000 A 
ATOM     17  C   UNL     1       7.663   5.729  19.165  0.00  0.00    +0.000 A 
ATOM     18  C   UNL     1       6.565   5.078  18.599  0.00  0.00    +0.000 A 
ENDBRANCH  11  13
ENDBRANCH  10  11
ENDBRANCH   8  10
TORSDOF 3
ENDMDL
MODEL 9
REMARK VINA RESULT:      -6.9      1.068      1.397
REMARK  Name = 
REMARK  4 active torsions:
REMARK  status: ('A' for Active; 'I' for Inactive)
REMARK    1  A    between atoms: C_1  and  N_2
REMARK    2  A    between atoms: C_8  and  O_9
REMARK    3  A    between atoms: O_9  and  C_10
REMARK    4  A    between atoms: C_10  and  C_12
REMARK                            x       y       z     vdW  Elec       q    Type
REMARK                         _______ _______ _______ _____ _____    ______ ____
ROOT
ATOM      1  C   UNL     1       7.026   4.316  15.705  0.00  0.00    +0.000 C 
ATOM      2  N   UNL     1       7.467   5.314  16.660  0.00  0.00    +0.000 NA
ATOM      3  C   UNL     1       7.286   4.979  18.075  0.00  0.00    +0.000 C 
ATOM      4  C   UNL     1       7.865   6.254  18.708  0.00  0.00    +0.000 C 
ATOM      5  C   UNL     1       7.577   7.360  17.683  0.00  0.00    +0.000 C 
ATOM      6  C   UNL     1       6.861   6.643  16.531  0.00  0.00    +0.000 C 
ATOM      7  C   UNL     1       5.338   6.610  16.741  0.00  0.00    +0.000 C 
ATOM      8  C   UNL     1       4.945   6.007  18.098  0.00  0.00    +0.000 C 
ATOM      9  C   UNL     1       5.803   4.782  18.444  0.00  0.00    +0.000 C 
ENDROOT
BRANCH   8  10
ATOM     10  O   UNL     1       3.556   5.608  18.078  0.00  0.00    +0.000 OA
BRANCH  10  11
ATOM     11  C   UNL     1       3.324   4.277  17.922  0.00  0.00    +0.000 C 
ATOM     12  O   UNL     1       3.668   3.602  16.965  0.00  0.00    +0.000 OA
BRANCH  11  13
ATOM     13  C   UNL     1       2.619   3.711  19.106  0.00  0.00    +0.000 A 
ATOM     14  C   UNL     1       3.388   3.056  20.081  0.00  0.00    +0.000 A 
ATOM     15  C   UNL     1       2.789   2.570  21.247  0.00  0.00    +0.000 A 
ATOM     16  C   UNL     1       1.419   2.732  21.444  0.00  0.00    +0.000 A 
ATOM     17  C   UNL     1       0.643   3.359  20.468  0.00  0.00    +0.000 A 
ATOM     18  C   UNL     1       1.238   3.844  19.300  0.00  0.00    +0.000 A 
ENDBRANCH  11  13
ENDBRANCH  10  11
ENDBRANCH   8  10
TORSDOF 3
ENDMDL
