MODEL 1
REMARK VINA RESULT:      -5.9      0.000      0.000
REMARK  Name = 
REMARK  8 active torsions:
REMARK  status: ('A' for Active; 'I' for Inactive)
REMARK    1  A    between atoms: C_1  and  C_2
REMARK    2  A    between atoms: C_6  and  C_7
REMARK    3  A    between atoms: C_7  and  C_8
REMARK    4  A    between atoms: C_8  and  C_9
REMARK    5  A    between atoms: C_9  and  N_10
REMARK    6  A    between atoms: C_11  and  C_13
REMARK    7  A    between atoms: C_13  and  C_14
REMARK    8  A    between atoms: C_14  and  N_15
REMARK                            x       y       z     vdW  Elec       q    Type
REMARK                         _______ _______ _______ _____ _____    ______ ____
ROOT
ATOM      1  C   UNL     1       3.642   2.667  17.760  0.00  0.00    +0.000 C 
ENDROOT
BRANCH   1   2
ATOM      2  N   UNL     1       2.936   2.751  19.027  0.00  0.00    +0.000 N 
ATOM      3  C   UNL     1       3.581   2.538  20.225  0.00  0.00    +0.000 C 
ATOM      4  O   UNL     1       4.771   2.251  20.309  0.00  0.00    +0.000 OA
ATOM      5  H   UNL     1       1.960   3.014  19.022  0.00  0.00    +0.000 HD
BRANCH   3   6
ATOM      6  C   UNL     1       2.719   2.748  21.451  0.00  0.00    +0.000 C 
BRANCH   6   7
ATOM      7  C   UNL     1       1.729   3.874  21.188  0.00  0.00    +0.000 C 
BRANCH   7   8
ATOM      8  N   UNL     1       2.417   5.144  20.969  0.00  0.00    +0.000 NA
ATOM      9  H   UNL     1       3.403   4.982  20.767  0.00  0.00    +0.000 HD
ATOM     10  H   UNL     1       2.387   5.696  21.826  0.00  0.00    +0.000 HD
ENDBRANCH   7   8
ENDBRANCH   6   7
ENDBRANCH   3   6
ENDBRANCH   1   2
BRANCH   1  11
ATOM     11  C   UNL     1       3.388   3.904  16.898  0.00  0.00    +0.000 C 
BRANCH  11  12
ATOM     12  C   UNL     1       4.259   5.088  17.324  0.00  0.00    +0.000 C 
BRANCH  12  18
ATOM     13  C   UNL     1       6.193   4.253  14.722  0.00  0.00    +0.000 C 
ATOM     14  C   UNL     1       6.500   4.444  16.159  0.00  0.00    +0.000 A 
ATOM     15  N   UNL     1       7.775   4.293  16.638  0.00  0.00    +0.000 N 
ATOM     16  N   UNL     1       7.882   4.498  17.958  0.00  0.00    +0.000 NA
ATOM     17  C   UNL     1       6.639   4.799  18.330  0.00  0.00    +0.000 A 
ATOM     18  C   UNL     1       5.721   4.784  17.252  0.00  0.00    +0.000 A 
ATOM     19  H   UNL     1       8.614   4.054  16.121  0.00  0.00    +0.000 HD
ENDBRANCH  12  18
ENDBRANCH  11  12
ENDBRANCH   1  11
TORSDOF 7
ENDMDL
MODEL 2
REMARK VINA RESULT:      -5.8      2.079      2.566
REMARK  Name = 
REMARK  8 active torsions:
REMARK  status: ('A' for Active; 'I' for Inactive)
REMARK    1  A    between atoms: C_1  and  C_2
REMARK    2  A    between atoms: C_6  and  C_7
REMARK    3  A    between atoms: C_7  and  C_8
REMARK    4  A    between atoms: C_8  and  C_9
REMARK    5  A    between atoms: C_9  and  N_10
REMARK    6  A    between atoms: C_11  and  C_13
REMARK    7  A    between atoms: C_13  and  C_14
REMARK    8  A    between atoms: C_14  and  N_15
REMARK                            x       y       z     vdW  Elec       q    Type
REMARK                         _______ _______ _______ _____ _____    ______ ____
ROOT
ATOM      1  C   UNL     1       3.637   5.678  19.489  0.00  0.00    +0.000 C 
ENDROOT
BRANCH   1   2
ATOM      2  N   UNL     1       2.938   4.411  19.610  0.00  0.00    +0.000 N 
ATOM      3  C   UNL     1       1.728   4.317  20.260  0.00  0.00    +0.000 C 
ATOM      4  O   UNL     1       1.170   5.273  20.790  0.00  0.00    +0.000 OA
ATOM      5  H   UNL     1       3.333   3.593  19.166  0.00  0.00    +0.000 HD
BRANCH   3   6
ATOM      6  C   UNL     1       1.095   2.943  20.221  0.00  0.00    +0.000 C 
BRANCH   6   7
ATOM      7  C   UNL     1       0.975   2.480  18.775  0.00  0.00    +0.000 C 
BRANCH   7   8
ATOM      8  N   UNL     1       2.134   1.685  18.377  0.00  0.00    +0.000 NA
ATOM      9  H   UNL     1       2.399   1.902  17.417  0.00  0.00    +0.000 HD
ATOM     10  H   UNL     1       1.885   0.697  18.389  0.00  0.00    +0.000 HD
ENDBRANCH   7   8
ENDBRANCH   6   7
ENDBRANCH   3   6
ENDBRANCH   1   2
BRANCH   1  11
ATOM     11  C   UNL     1       3.628   6.184  18.046  0.00  0.00    +0.000 C 
BRANCH  11  12
ATOM     12  C   UNL     1       4.207   5.154  17.074  0.00  0.00    +0.000 C 
BRANCH  12  18
ATOM     13  C   UNL     1       6.051   3.904  14.576  0.00  0.00    +0.000 C 
ATOM     14  C   UNL     1       6.313   4.992  15.547  0.00  0.00    +0.000 A 
ATOM     15  N   UNL     1       7.484   5.704  15.516  0.00  0.00    +0.000 N 
ATOM     16  N   UNL     1       7.563   6.650  16.462  0.00  0.00    +0.000 NA
ATOM     17  C   UNL     1       6.404   6.543  17.111  0.00  0.00    +0.000 A 
ATOM     18  C   UNL     1       5.572   5.523  16.589  0.00  0.00    +0.000 A 
ATOM     19  H   UNL     1       8.264   5.599  14.877  0.00  0.00    +0.000 HD
ENDBRANCH  12  18
ENDBRANCH  11  12
ENDBRANCH   1  11
TORSDOF 7
ENDMDL
MODEL 3
REMARK VINA RESULT:      -5.8      1.561      1.643
REMARK  Name = 
REMARK  8 active torsions:
REMARK  status: ('A' for Active; 'I' for Inactive)
REMARK    1  A    between atoms: C_1  and  C_2
REMARK    2  A    between atoms: C_6  and  C_7
REMARK    3  A    between atoms: C_7  and  C_8
REMARK    4  A    between atoms: C_8  and  C_9
REMARK    5  A    between atoms: C_9  and  N_10
REMARK    6  A    between atoms: C_11  and  C_13
REMARK    7  A    between atoms: C_13  and  C_14
REMARK    8  A    between atoms: C_14  and  N_15
REMARK                            x       y       z     vdW  Elec       q    Type
REMARK                         _______ _______ _______ _____ _____    ______ ____
ROOT
ATOM      1  C   UNL     1       2.663   3.017  17.318  0.00  0.00    +0.000 C 
ENDROOT
BRANCH   1   2
ATOM      2  N   UNL     1       1.867   3.726  18.305  0.00  0.00    +0.000 N 
ATOM      3  C   UNL     1       1.870   3.356  19.632  0.00  0.00    +0.000 C 
ATOM      4  O   UNL     1       2.519   2.410  20.067  0.00  0.00    +0.000 OA
ATOM      5  H   UNL     1       1.335   4.535  18.011  0.00  0.00    +0.000 HD
BRANCH   3   6
ATOM      6  C   UNL     1       1.054   4.251  20.538  0.00  0.00    +0.000 C 
BRANCH   6   7
ATOM      7  C   UNL     1       1.709   5.624  20.619  0.00  0.00    +0.000 C 
BRANCH   7   8
ATOM      8  N   UNL     1       3.140   5.544  20.340  0.00  0.00    +0.000 NA
ATOM      9  H   UNL     1       3.316   4.900  19.571  0.00  0.00    +0.000 HD
ATOM     10  H   UNL     1       3.621   5.159  21.152  0.00  0.00    +0.000 HD
ENDBRANCH   7   8
ENDBRANCH   6   7
ENDBRANCH   3   6
ENDBRANCH   1   2
BRANCH   1  11
ATOM     11  C   UNL     1       4.105   3.525  17.298  0.00  0.00    +0.000 C 
BRANCH  11  12
ATOM     12  C   UNL     1       4.187   5.005  16.916  0.00  0.00    +0.000 C 
BRANCH  12  18
ATOM     13  C   UNL     1       6.067   3.958  14.352  0.00  0.00    +0.000 C 
ATOM     14  C   UNL     1       6.314   4.966  15.410  0.00  0.00    +0.000 A 
ATOM     15  N   UNL     1       7.484   5.679  15.451  0.00  0.00    +0.000 N 
ATOM     16  N   UNL     1       7.549   6.547  16.471  0.00  0.00    +0.000 NA
ATOM     17  C   UNL     1       6.382   6.388  17.093  0.00  0.00    +0.000 A 
ATOM     18  C   UNL     1       5.558   5.412  16.480  0.00  0.00    +0.000 A 
ATOM     19  H   UNL     1       8.272   5.625  14.816  0.00  0.00    +0.000 HD
ENDBRANCH  12  18
ENDBRANCH  11  12
ENDBRANCH   1  11
TORSDOF 7
ENDMDL
MODEL 4
REMARK VINA RESULT:      -5.8      2.276      2.844
REMARK  Name = 
REMARK  8 active torsions:
REMARK  status: ('A' for Active; 'I' for Inactive)
REMARK    1  A    between atoms: C_1  and  C_2
REMARK    2  A    between atoms: C_6  and  C_7
REMARK    3  A    between atoms: C_7  and  C_8
REMARK    4  A    between atoms: C_8  and  C_9
REMARK    5  A    between atoms: C_9  and  N_10
REMARK    6  A    between atoms: C_11  and  C_13
REMARK    7  A    between atoms: C_13  and  C_14
REMARK    8  A    between atoms: C_14  and  N_15
REMARK                            x       y       z     vdW  Elec       q    Type
REMARK                         _______ _______ _______ _____ _____    ______ ____
ROOT
ATOM      1  C   UNL     1       2.447   5.811  19.180  0.00  0.00    +0.000 C 
ENDROOT
BRANCH   1   2
ATOM      2  N   UNL     1       2.408   4.374  19.388  0.00  0.00    +0.000 N 
ATOM      3  C   UNL     1       1.864   3.526  18.449  0.00  0.00    +0.000 C 
ATOM      4  O   UNL     1       1.365   3.915  17.397  0.00  0.00    +0.000 OA
ATOM      5  H   UNL     1       2.832   3.992  20.223  0.00  0.00    +0.000 HD
BRANCH   3   6
ATOM      6  C   UNL     1       1.982   2.055  18.784  0.00  0.00    +0.000 C 
BRANCH   6   7
ATOM      7  C   UNL     1       3.368   1.556  18.398  0.00  0.00    +0.000 C 
BRANCH   7   8
ATOM      8  N   UNL     1       4.159   2.618  17.781  0.00  0.00    +0.000 NA
ATOM      9  H   UNL     1       5.074   2.264  17.506  0.00  0.00    +0.000 HD
ATOM     10  H   UNL     1       4.331   3.353  18.467  0.00  0.00    +0.000 HD
ENDBRANCH   7   8
ENDBRANCH   6   7
ENDBRANCH   3   6
ENDBRANCH   1   2
BRANCH   1  11
ATOM     11  C   UNL     1       3.836   6.274  18.740  0.00  0.00    +0.000 C 
BRANCH  11  12
ATOM     12  C   UNL     1       3.985   6.273  17.217  0.00  0.00    +0.000 C 
BRANCH  12  18
ATOM     13  C   UNL     1       5.512   4.427  14.879  0.00  0.00    +0.000 C 
ATOM     14  C   UNL     1       6.021   5.468  15.802  0.00  0.00    +0.000 A 
ATOM     15  N   UNL     1       7.339   5.846  15.789  0.00  0.00    +0.000 N 
ATOM     16  N   UNL     1       7.635   6.797  16.686  0.00  0.00    +0.000 NA
ATOM     17  C   UNL     1       6.469   7.038  17.284  0.00  0.00    +0.000 A 
ATOM     18  C   UNL     1       5.414   6.240  16.778  0.00  0.00    +0.000 A 
ATOM     19  H   UNL     1       8.083   5.499  15.194  0.00  0.00    +0.000 HD
ENDBRANCH  12  18
ENDBRANCH  11  12
ENDBRANCH   1  11
TORSDOF 7
ENDMDL
MODEL 5
REMARK VINA RESULT:      -5.7      1.704      2.307
REMARK  Name = 
REMARK  8 active torsions:
REMARK  status: ('A' for Active; 'I' for Inactive)
REMARK    1  A    between atoms: C_1  and  C_2
REMARK    2  A    between atoms: C_6  and  C_7
REMARK    3  A    between atoms: C_7  and  C_8
REMARK    4  A    between atoms: C_8  and  C_9
REMARK    5  A    between atoms: C_9  and  N_10
REMARK    6  A    between atoms: C_11  and  C_13
REMARK    7  A    between atoms: C_13  and  C_14
REMARK    8  A    between atoms: C_14  and  N_15
REMARK                            x       y       z     vdW  Elec       q    Type
REMARK                         _______ _______ _______ _____ _____    ______ ____
ROOT
ATOM      1  C   UNL     1       4.168   4.463  18.382  0.00  0.00    +0.000 C 
ENDROOT
BRANCH   1   2
ATOM      2  N   UNL     1       3.635   4.084  19.679  0.00  0.00    +0.000 N 
ATOM      3  C   UNL     1       3.177   2.809  19.923  0.00  0.00    +0.000 C 
ATOM      4  O   UNL     1       3.168   1.921  19.076  0.00  0.00    +0.000 OA
ATOM      5  H   UNL     1       3.646   4.766  20.426  0.00  0.00    +0.000 HD
BRANCH   3   6
ATOM      6  C   UNL     1       2.736   2.560  21.349  0.00  0.00    +0.000 C 
BRANCH   6   7
ATOM      7  C   UNL     1       1.278   2.968  21.508  0.00  0.00    +0.000 C 
BRANCH   7   8
ATOM      8  N   UNL     1       0.604   3.037  20.215  0.00  0.00    +0.000 NA
ATOM      9  H   UNL     1       1.008   3.777  19.643  0.00  0.00    +0.000 HD
ATOM     10  H   UNL     1      -0.374   3.287  20.357  0.00  0.00    +0.000 HD
ENDBRANCH   7   8
ENDBRANCH   6   7
ENDBRANCH   3   6
ENDBRANCH   1   2
BRANCH   1  11
ATOM     11  C   UNL     1       3.397   5.642  17.785  0.00  0.00    +0.000 C 
BRANCH  11  12
ATOM     12  C   UNL     1       4.329   6.775  17.351  0.00  0.00    +0.000 C 
BRANCH  12  18
ATOM     13  C   UNL     1       7.597   6.703  18.073  0.00  0.00    +0.000 C 
ATOM     14  C   UNL     1       6.841   6.265  16.877  0.00  0.00    +0.000 A 
ATOM     15  N   UNL     1       7.478   5.699  15.803  0.00  0.00    +0.000 N 
ATOM     16  N   UNL     1       6.651   5.360  14.804  0.00  0.00    +0.000 NA
ATOM     17  C   UNL     1       5.450   5.715  15.258  0.00  0.00    +0.000 A 
ATOM     18  C   UNL     1       5.496   6.288  16.552  0.00  0.00    +0.000 A 
ATOM     19  H   UNL     1       8.468   5.512  15.690  0.00  0.00    +0.000 HD
ENDBRANCH  12  18
ENDBRANCH  11  12
ENDBRANCH   1  11
TORSDOF 7
ENDMDL
MODEL 6
REMARK VINA RESULT:      -5.7      1.747      2.275
REMARK  Name = 
REMARK  8 active torsions:
REMARK  status: ('A' for Active; 'I' for Inactive)
REMARK    1  A    between atoms: C_1  and  C_2
REMARK    2  A    between atoms: C_6  and  C_7
REMARK    3  A    between atoms: C_7  and  C_8
REMARK    4  A    between atoms: C_8  and  C_9
REMARK    5  A    between atoms: C_9  and  N_10
REMARK    6  A    between atoms: C_11  and  C_13
REMARK    7  A    between atoms: C_13  and  C_14
REMARK    8  A    between atoms: C_14  and  N_15
REMARK                            x       y       z     vdW  Elec       q    Type
REMARK                         _______ _______ _______ _____ _____    ______ ____
ROOT
ATOM      1  C   UNL     1       2.603   5.545  17.766  0.00  0.00    +0.000 C 
ENDROOT
BRANCH   1   2
ATOM      2  N   UNL     1       2.648   4.513  18.787  0.00  0.00    +0.000 N 
ATOM      3  C   UNL     1       2.484   3.183  18.472  0.00  0.00    +0.000 C 
ATOM      4  O   UNL     1       2.273   2.780  17.332  0.00  0.00    +0.000 OA
ATOM      5  H   UNL     1       2.849   4.781  19.741  0.00  0.00    +0.000 HD
BRANCH   3   6
ATOM      6  C   UNL     1       2.645   2.233  19.639  0.00  0.00    +0.000 C 
BRANCH   6   7
ATOM      7  C   UNL     1       4.065   2.331  20.180  0.00  0.00    +0.000 C 
BRANCH   7   8
ATOM      8  N   UNL     1       5.007   2.705  19.129  0.00  0.00    +0.000 NA
ATOM      9  H   UNL     1       5.242   1.895  18.558  0.00  0.00    +0.000 HD
ATOM     10  H   UNL     1       5.879   3.020  19.554  0.00  0.00    +0.000 HD
ENDBRANCH   7   8
ENDBRANCH   6   7
ENDBRANCH   3   6
ENDBRANCH   1   2
BRANCH   1  11
ATOM     11  C   UNL     1       3.524   6.715  18.115  0.00  0.00    +0.000 C 
BRANCH  11  12
ATOM     12  C   UNL     1       4.674   6.856  17.115  0.00  0.00    +0.000 C 
BRANCH  12  18
ATOM     13  C   UNL     1       5.773   4.380  15.149  0.00  0.00    +0.000 C 
ATOM     14  C   UNL     1       6.193   4.829  16.497  0.00  0.00    +0.000 A 
ATOM     15  N   UNL     1       7.215   4.208  17.166  0.00  0.00    +0.000 N 
ATOM     16  N   UNL     1       7.467   4.735  18.372  0.00  0.00    +0.000 NA
ATOM     17  C   UNL     1       6.584   5.728  18.472  0.00  0.00    +0.000 A 
ATOM     18  C   UNL     1       5.753   5.844  17.331  0.00  0.00    +0.000 A 
ATOM     19  H   UNL     1       7.781   3.426  16.857  0.00  0.00    +0.000 HD
ENDBRANCH  12  18
ENDBRANCH  11  12
ENDBRANCH   1  11
TORSDOF 7
ENDMDL
MODEL 7
REMARK VINA RESULT:      -5.7      1.800      1.948
REMARK  Name = 
REMARK  8 active torsions:
REMARK  status: ('A' for Active; 'I' for Inactive)
REMARK    1  A    between atoms: C_1  and  C_2
REMARK    2  A    between atoms: C_6  and  C_7
REMARK    3  A    between atoms: C_7  and  C_8
REMARK    4  A    between atoms: C_8  and  C_9
REMARK    5  A    between atoms: C_9  and  N_10
REMARK    6  A    between atoms: C_11  and  C_13
REMARK    7  A    between atoms: C_13  and  C_14
REMARK    8  A    between atoms: C_14  and  N_15
REMARK                            x       y       z     vdW  Elec       q    Type
REMARK                         _______ _______ _______ _____ _____    ______ ____
ROOT
ATOM      1  C   UNL     1       3.497   4.433  17.452  0.00  0.00    +0.000 C 
ENDROOT
BRANCH   1   2
ATOM      2  N   UNL     1       3.010   3.636  18.563  0.00  0.00    +0.000 N 
ATOM      3  C   UNL     1       1.698   3.225  18.633  0.00  0.00    +0.000 C 
ATOM      4  O   UNL     1       0.856   3.510  17.786  0.00  0.00    +0.000 OA
ATOM      5  H   UNL     1       3.665   3.344  19.276  0.00  0.00    +0.000 HD
BRANCH   3   6
ATOM      6  C   UNL     1       1.377   2.332  19.811  0.00  0.00    +0.000 C 
BRANCH   6   7
ATOM      7  C   UNL     1       1.405   3.153  21.093  0.00  0.00    +0.000 C 
BRANCH   7   8
ATOM      8  N   UNL     1       2.545   2.789  21.929  0.00  0.00    +0.000 NA
ATOM      9  H   UNL     1       2.258   2.701  22.903  0.00  0.00    +0.000 HD
ATOM     10  H   UNL     1       3.236   3.539  21.902  0.00  0.00    +0.000 HD
ENDBRANCH   7   8
ENDBRANCH   6   7
ENDBRANCH   3   6
ENDBRANCH   1   2
BRANCH   1  11
ATOM     11  C   UNL     1       3.700   5.893  17.859  0.00  0.00    +0.000 C 
BRANCH  11  12
ATOM     12  C   UNL     1       4.963   6.492  17.234  0.00  0.00    +0.000 C 
BRANCH  12  18
ATOM     13  C   UNL     1       6.778   4.663  15.098  0.00  0.00    +0.000 C 
ATOM     14  C   UNL     1       6.912   4.900  16.555  0.00  0.00    +0.000 A 
ATOM     15  N   UNL     1       7.930   4.334  17.276  0.00  0.00    +0.000 N 
ATOM     16  N   UNL     1       7.906   4.646  18.579  0.00  0.00    +0.000 NA
ATOM     17  C   UNL     1       6.844   5.443  18.690  0.00  0.00    +0.000 A 
ATOM     18  C   UNL     1       6.174   5.646  17.459  0.00  0.00    +0.000 A 
ATOM     19  H   UNL     1       8.673   3.730  16.941  0.00  0.00    +0.000 HD
ENDBRANCH  12  18
ENDBRANCH  11  12
ENDBRANCH   1  11
TORSDOF 7
ENDMDL
MODEL 8
REMARK VINA RESULT:      -5.7      1.792      1.849
REMARK  Name = 
REMARK  8 active torsions:
REMARK  status: ('A' for Active; 'I' for Inactive)
REMARK    1  A    between atoms: C_1  and  C_2
REMARK    2  A    between atoms: C_6  and  C_7
REMARK    3  A    between atoms: C_7  and  C_8
REMARK    4  A    between atoms: C_8  and  C_9
REMARK    5  A    between atoms: C_9  and  N_10
REMARK    6  A    between atoms: C_11  and  C_13
REMARK    7  A    between atoms: C_13  and  C_14
REMARK    8  A    between atoms: C_14  and  N_15
REMARK                            x       y       z     vdW  Elec       q    Type
REMARK                         _______ _______ _______ _____ _____    ______ ____
ROOT
ATOM      1  C   UNL     1       2.665   3.167  17.159  0.00  0.00    +0.000 C 
ENDROOT
BRANCH   1   2
ATOM      2  N   UNL     1       2.070   3.775  18.337  0.00  0.00    +0.000 N 
ATOM      3  C   UNL     1       1.537   3.009  19.349  0.00  0.00    +0.000 C 
ATOM      4  O   UNL     1       1.508   1.783  19.324  0.00  0.00    +0.000 OA
ATOM      5  H   UNL     1       2.093   4.782  18.428  0.00  0.00    +0.000 HD
BRANCH   3   6
ATOM      6  C   UNL     1       1.036   3.798  20.540  0.00  0.00    +0.000 C 
BRANCH   6   7
ATOM      7  C   UNL     1       2.140   3.897  21.584  0.00  0.00    +0.000 C 
BRANCH   7   8
ATOM      8  N   UNL     1       2.595   2.572  21.999  0.00  0.00    +0.000 NA
ATOM      9  H   UNL     1       2.397   1.886  21.273  0.00  0.00    +0.000 HD
ATOM     10  H   UNL     1       2.071   2.279  22.823  0.00  0.00    +0.000 HD
ENDBRANCH   7   8
ENDBRANCH   6   7
ENDBRANCH   3   6
ENDBRANCH   1   2
BRANCH   1  11
ATOM     11  C   UNL     1       4.130   3.579  16.999  0.00  0.00    +0.000 C 
BRANCH  11  12
ATOM     12  C   UNL     1       4.298   5.100  16.972  0.00  0.00    +0.000 C 
BRANCH  12  18
ATOM     13  C   UNL     1       6.124   4.157  14.330  0.00  0.00    +0.000 C 
ATOM     14  C   UNL     1       6.396   5.117  15.425  0.00  0.00    +0.000 A 
ATOM     15  N   UNL     1       7.570   5.823  15.475  0.00  0.00    +0.000 N 
ATOM     16  N   UNL     1       7.658   6.646  16.530  0.00  0.00    +0.000 NA
ATOM     17  C   UNL     1       6.502   6.465  17.166  0.00  0.00    +0.000 A 
ATOM     18  C   UNL     1       5.662   5.520  16.528  0.00  0.00    +0.000 A 
ATOM     19  H   UNL     1       8.346   5.794  14.824  0.00  0.00    +0.000 HD
ENDBRANCH  12  18
ENDBRANCH  11  12
ENDBRANCH   1  11
TORSDOF 7
ENDMDL
MODEL 9
REMARK VINA RESULT:      -5.7      1.317      1.847
REMARK  Name = 
REMARK  8 active torsions:
REMARK  status: ('A' for Active; 'I' for Inactive)
REMARK    1  A    between atoms: C_1  and  C_2
REMARK    2  A    between atoms: C_6  and  C_7
REMARK    3  A    between atoms: C_7  and  C_8
REMARK    4  A    between atoms: C_8  and  C_9
REMARK    5  A    between atoms: C_9  and  N_10
REMARK    6  A    between atoms: C_11  and  C_13
REMARK    7  A    between atoms: C_13  and  C_14
REMARK    8  A    between atoms: C_14  and  N_15
REMARK                            x       y       z     vdW  Elec       q    Type
REMARK                         _______ _______ _______ _____ _____    ______ ____
ROOT
ATOM      1  C   UNL     1       3.629   5.111  17.433  0.00  0.00    +0.000 C 
ENDROOT
BRANCH   1   2
ATOM      2  N   UNL     1       2.944   4.594  18.604  0.00  0.00    +0.000 N 
ATOM      3  C   UNL     1       3.522   3.643  19.415  0.00  0.00    +0.000 C 
ATOM      4  O   UNL     1       4.630   3.159  19.202  0.00  0.00    +0.000 OA
ATOM      5  H   UNL     1       2.041   4.979  18.848  0.00  0.00    +0.000 HD
BRANCH   3   6
ATOM      6  C   UNL     1       2.711   3.279  20.638  0.00  0.00    +0.000 C 
BRANCH   6   7
ATOM      7  C   UNL     1       1.550   2.383  20.229  0.00  0.00    +0.000 C 
BRANCH   7   8
ATOM      8  N   UNL     1       1.780   1.786  18.916  0.00  0.00    +0.000 NA
ATOM      9  H   UNL     1       1.139   2.181  18.230  0.00  0.00    +0.000 HD
ATOM     10  H   UNL     1       1.575   0.788  18.958  0.00  0.00    +0.000 HD
ENDBRANCH   7   8
ENDBRANCH   6   7
ENDBRANCH   3   6
ENDBRANCH   1   2
BRANCH   1  11
ATOM     11  C   UNL     1       4.015   6.579  17.615  0.00  0.00    +0.000 C 
BRANCH  11  12
ATOM     12  C   UNL     1       5.372   6.898  16.982  0.00  0.00    +0.000 C 
BRANCH  12  18
ATOM     13  C   UNL     1       6.853   4.580  15.075  0.00  0.00    +0.000 C 
ATOM     14  C   UNL     1       7.018   4.934  16.504  0.00  0.00    +0.000 A 
ATOM     15  N   UNL     1       7.919   4.275  17.299  0.00  0.00    +0.000 N 
ATOM     16  N   UNL     1       7.942   4.716  18.565  0.00  0.00    +0.000 NA
ATOM     17  C   UNL     1       7.034   5.691  18.574  0.00  0.00    +0.000 A 
ATOM     18  C   UNL     1       6.416   5.882  17.315  0.00  0.00    +0.000 A 
ATOM     19  H   UNL     1       8.547   3.522  17.042  0.00  0.00    +0.000 HD
ENDBRANCH  12  18
ENDBRANCH  11  12
ENDBRANCH   1  11
TORSDOF 7
ENDMDL
