MODEL 1
REMARK VINA RESULT:      -7.9      0.000      0.000
REMARK  Name = 
REMARK  9 active torsions:
REMARK  status: ('A' for Active; 'I' for Inactive)
REMARK    1  A    between atoms: C_1  and  C_2
REMARK    2  A    between atoms: C_2  and  C_3
REMARK    3  A    between atoms: C_3  and  C_4
REMARK    4  A    between atoms: C_4  and  N_5
REMARK    5  A    between atoms: N_5  and  C_15
REMARK    6  A    between atoms: C_6  and  C_8
REMARK    7  A    between atoms: C_15  and  C_16
REMARK    8  A    between atoms: C_15  and  C_18
REMARK    9  A    between atoms: C_16  and  C_17
REMARK                            x       y       z     vdW  Elec       q    Type
REMARK                         _______ _______ _______ _____ _____    ______ ____
ROOT
ATOM      1  N   UNL     1       4.735   3.975  17.565  0.00  0.00    +0.000 N 
ATOM      2  C   UNL     1       3.924   2.889  18.005  0.00  0.00    +0.000 C 
ATOM      3  O   UNL     1       3.829   1.835  17.377  0.00  0.00    +0.000 OA
ENDROOT
BRANCH   2   4
ATOM      4  C   UNL     1       3.037   2.970  19.191  0.00  0.00    +0.000 A 
ATOM      5  C   UNL     1       1.670   3.263  19.073  0.00  0.00    +0.000 A 
ATOM      6  C   UNL     1       0.830   3.260  20.183  0.00  0.00    +0.000 A 
ATOM      7  C   UNL     1       1.316   2.834  21.407  0.00  0.00    +0.000 A 
ATOM      8  C   UNL     1       2.645   2.446  21.496  0.00  0.00    +0.000 A 
ATOM      9  N   UNL     1       3.534   2.534  20.416  0.00  0.00    +0.000 N 
ATOM     10  O   UNL     1       4.752   2.249  20.641  0.00  0.00    +0.000 OA
ENDBRANCH   2   4
BRANCH   1  11
ATOM     11  C   UNL     1       5.583   3.794  16.369  0.00  0.00    +0.000 C 
BRANCH  11  12
ATOM     12  C   UNL     1       5.299   4.414  14.997  0.00  0.00    +0.000 C 
BRANCH  12  14
ATOM     13  C   UNL     1       6.001   3.557  12.769  0.00  0.00    +0.000 C 
ATOM     14  C   UNL     1       6.432   4.379  13.980  0.00  0.00    +0.000 C 
ENDBRANCH  12  14
ENDBRANCH  11  12
ENDBRANCH   1  11
BRANCH   1  15
ATOM     15  C   UNL     1       5.064   5.163  18.431  0.00  0.00    +0.000 C 
BRANCH  15  16
ATOM     16  C   UNL     1       3.962   6.232  18.472  0.00  0.00    +0.000 A 
ATOM     17  C   UNL     1       3.143   6.327  19.616  0.00  0.00    +0.000 A 
ATOM     18  C   UNL     1       2.168   7.318  19.728  0.00  0.00    +0.000 A 
ATOM     19  C   UNL     1       1.993   8.237  18.699  0.00  0.00    +0.000 A 
ATOM     20  C   UNL     1       2.791   8.160  17.559  0.00  0.00    +0.000 A 
ATOM     21  C   UNL     1       3.781   7.174  17.446  0.00  0.00    +0.000 A 
ENDBRANCH  15  16
BRANCH  15  22
ATOM     22  C   UNL     1       6.357   5.985  18.109  0.00  0.00    +0.000 C 
ATOM     23  C   UNL     1       7.632   5.633  18.862  0.00  0.00    +0.000 C 
ENDBRANCH  15  22
ENDBRANCH   1  15
TORSDOF 7
ENDMDL
MODEL 2
REMARK VINA RESULT:      -7.8      0.113      1.012
REMARK  Name = 
REMARK  9 active torsions:
REMARK  status: ('A' for Active; 'I' for Inactive)
REMARK    1  A    between atoms: C_1  and  C_2
REMARK    2  A    between atoms: C_2  and  C_3
REMARK    3  A    between atoms: C_3  and  C_4
REMARK    4  A    between atoms: C_4  and  N_5
REMARK    5  A    between atoms: N_5  and  C_15
REMARK    6  A    between atoms: C_6  and  C_8
REMARK    7  A    between atoms: C_15  and  C_16
REMARK    8  A    between atoms: C_15  and  C_18
REMARK    9  A    between atoms: C_16  and  C_17
REMARK                            x       y       z     vdW  Elec       q    Type
REMARK                         _______ _______ _______ _____ _____    ______ ____
ROOT
ATOM      1  N   UNL     1       4.767   3.929  17.540  0.00  0.00    +0.000 N 
ATOM      2  C   UNL     1       3.909   2.873  17.966  0.00  0.00    +0.000 C 
ATOM      3  O   UNL     1       3.756   1.840  17.316  0.00  0.00    +0.000 OA
ENDROOT
BRANCH   2   4
ATOM      4  C   UNL     1       3.039   2.970  19.163  0.00  0.00    +0.000 A 
ATOM      5  C   UNL     1       1.676   3.290  19.063  0.00  0.00    +0.000 A 
ATOM      6  C   UNL     1       0.851   3.302  20.184  0.00  0.00    +0.000 A 
ATOM      7  C   UNL     1       1.344   2.864  21.401  0.00  0.00    +0.000 A 
ATOM      8  C   UNL     1       2.666   2.450  21.472  0.00  0.00    +0.000 A 
ATOM      9  N   UNL     1       3.542   2.522  20.381  0.00  0.00    +0.000 N 
ATOM     10  O   UNL     1       4.758   2.213  20.590  0.00  0.00    +0.000 OA
ENDBRANCH   2   4
BRANCH   1  11
ATOM     11  C   UNL     1       5.593   3.735  16.332  0.00  0.00    +0.000 C 
BRANCH  11  12
ATOM     12  C   UNL     1       5.339   4.417  14.983  0.00  0.00    +0.000 C 
BRANCH  12  14
ATOM     13  C   UNL     1       5.950   3.519  12.745  0.00  0.00    +0.000 C 
ATOM     14  C   UNL     1       6.448   4.319  13.945  0.00  0.00    +0.000 C 
ENDBRANCH  12  14
ENDBRANCH  11  12
ENDBRANCH   1  11
BRANCH   1  15
ATOM     15  C   UNL     1       5.162   5.080  18.430  0.00  0.00    +0.000 C 
BRANCH  15  16
ATOM     16  C   UNL     1       4.094   6.178  18.542  0.00  0.00    +0.000 A 
ATOM     17  C   UNL     1       3.920   7.076  17.469  0.00  0.00    +0.000 A 
ATOM     18  C   UNL     1       2.925   8.053  17.496  0.00  0.00    +0.000 A 
ATOM     19  C   UNL     1       2.081   8.152  18.597  0.00  0.00    +0.000 A 
ATOM     20  C   UNL     1       2.238   7.276  19.670  0.00  0.00    +0.000 A 
ATOM     21  C   UNL     1       3.228   6.283  19.642  0.00  0.00    +0.000 A 
ENDBRANCH  15  16
BRANCH  15  22
ATOM     22  C   UNL     1       6.466   5.874  18.085  0.00  0.00    +0.000 C 
ATOM     23  C   UNL     1       7.622   5.811  19.073  0.00  0.00    +0.000 C 
ENDBRANCH  15  22
ENDBRANCH   1  15
TORSDOF 7
ENDMDL
MODEL 3
REMARK VINA RESULT:      -7.6      0.978      1.430
REMARK  Name = 
REMARK  9 active torsions:
REMARK  status: ('A' for Active; 'I' for Inactive)
REMARK    1  A    between atoms: C_1  and  C_2
REMARK    2  A    between atoms: C_2  and  C_3
REMARK    3  A    between atoms: C_3  and  C_4
REMARK    4  A    between atoms: C_4  and  N_5
REMARK    5  A    between atoms: N_5  and  C_15
REMARK    6  A    between atoms: C_6  and  C_8
REMARK    7  A    between atoms: C_15  and  C_16
REMARK    8  A    between atoms: C_15  and  C_18
REMARK    9  A    between atoms: C_16  and  C_17
REMARK                            x       y       z     vdW  Elec       q    Type
REMARK                         _______ _______ _______ _____ _____    ______ ____
ROOT
ATOM      1  N   UNL     1       4.671   3.974  17.525  0.00  0.00    +0.000 N 
ATOM      2  C   UNL     1       3.867   2.854  17.885  0.00  0.00    +0.000 C 
ATOM      3  O   UNL     1       3.788   1.843  17.188  0.00  0.00    +0.000 OA
ENDROOT
BRANCH   2   4
ATOM      4  C   UNL     1       2.968   2.849  19.064  0.00  0.00    +0.000 A 
ATOM      5  C   UNL     1       3.449   2.607  20.360  0.00  0.00    +0.000 A 
ATOM      6  C   UNL     1       2.611   2.681  21.469  0.00  0.00    +0.000 A 
ATOM      7  C   UNL     1       1.311   3.128  21.315  0.00  0.00    +0.000 A 
ATOM      8  C   UNL     1       0.870   3.465  20.044  0.00  0.00    +0.000 A 
ATOM      9  N   UNL     1       1.663   3.305  18.900  0.00  0.00    +0.000 N 
ATOM     10  O   UNL     1       1.119   3.548  17.776  0.00  0.00    +0.000 OA
ENDBRANCH   2   4
BRANCH   1  11
ATOM     11  C   UNL     1       5.532   3.880  16.328  0.00  0.00    +0.000 C 
BRANCH  11  12
ATOM     12  C   UNL     1       5.422   4.791  15.102  0.00  0.00    +0.000 C 
BRANCH  12  14
ATOM     13  C   UNL     1       6.197   3.570  13.077  0.00  0.00    +0.000 C 
ATOM     14  C   UNL     1       6.533   4.684  14.065  0.00  0.00    +0.000 C 
ENDBRANCH  12  14
ENDBRANCH  11  12
ENDBRANCH   1  11
BRANCH   1  15
ATOM     15  C   UNL     1       4.981   5.105  18.471  0.00  0.00    +0.000 C 
BRANCH  15  16
ATOM     16  C   UNL     1       3.902   6.198  18.515  0.00  0.00    +0.000 A 
ATOM     17  C   UNL     1       3.080   6.302  19.656  0.00  0.00    +0.000 A 
ATOM     18  C   UNL     1       2.126   7.313  19.771  0.00  0.00    +0.000 A 
ATOM     19  C   UNL     1       1.974   8.243  18.747  0.00  0.00    +0.000 A 
ATOM     20  C   UNL     1       2.775   8.156  17.610  0.00  0.00    +0.000 A 
ATOM     21  C   UNL     1       3.745   7.150  17.495  0.00  0.00    +0.000 A 
ENDBRANCH  15  16
BRANCH  15  22
ATOM     22  C   UNL     1       6.306   5.912  18.260  0.00  0.00    +0.000 C 
ATOM     23  C   UNL     1       7.457   5.657  19.223  0.00  0.00    +0.000 C 
ENDBRANCH  15  22
ENDBRANCH   1  15
TORSDOF 7
ENDMDL
MODEL 4
REMARK VINA RESULT:      -7.6      0.982      1.751
REMARK  Name = 
REMARK  9 active torsions:
REMARK  status: ('A' for Active; 'I' for Inactive)
REMARK    1  A    between atoms: C_1  and  C_2
REMARK    2  A    between atoms: C_2  and  C_3
REMARK    3  A    between atoms: C_3  and  C_4
REMARK    4  A    between atoms: C_4  and  N_5
REMARK    5  A    between atoms: N_5  and  C_15
REMARK    6  A    between atoms: C_6  and  C_8
REMARK    7  A    between atoms: C_15  and  C_16
REMARK    8  A    between atoms: C_15  and  C_18
REMARK    9  A    between atoms: C_16  and  C_17
REMARK                            x       y       z     vdW  Elec       q    Type
REMARK                         _______ _______ _______ _____ _____    ______ ____
ROOT
ATOM      1  N   UNL     1       4.790   3.976  17.568  0.00  0.00    +0.000 N 
ATOM      2  C   UNL     1       3.940   2.877  17.889  0.00  0.00    +0.000 C 
ATOM      3  O   UNL     1       3.846   1.881  17.173  0.00  0.00    +0.000 OA
ENDROOT
BRANCH   2   4
ATOM      4  C   UNL     1       3.013   2.882  19.046  0.00  0.00    +0.000 A 
ATOM      5  C   UNL     1       3.458   2.628  20.352  0.00  0.00    +0.000 A 
ATOM      6  C   UNL     1       2.594   2.712  21.441  0.00  0.00    +0.000 A 
ATOM      7  C   UNL     1       1.305   3.181  21.256  0.00  0.00    +0.000 A 
ATOM      8  C   UNL     1       0.901   3.530  19.976  0.00  0.00    +0.000 A 
ATOM      9  N   UNL     1       1.720   3.361  18.851  0.00  0.00    +0.000 N 
ATOM     10  O   UNL     1       1.208   3.617  17.716  0.00  0.00    +0.000 OA
ENDBRANCH   2   4
BRANCH   1  11
ATOM     11  C   UNL     1       5.677   3.873  16.391  0.00  0.00    +0.000 C 
BRANCH  11  12
ATOM     12  C   UNL     1       5.293   4.298  14.970  0.00  0.00    +0.000 C 
BRANCH  12  14
ATOM     13  C   UNL     1       5.612   3.494  12.637  0.00  0.00    +0.000 C 
ATOM     14  C   UNL     1       6.319   4.038  13.875  0.00  0.00    +0.000 C 
ENDBRANCH  12  14
ENDBRANCH  11  12
ENDBRANCH   1  11
BRANCH   1  15
ATOM     15  C   UNL     1       5.112   5.081  18.540  0.00  0.00    +0.000 C 
BRANCH  15  16
ATOM     16  C   UNL     1       4.044   6.183  18.612  0.00  0.00    +0.000 A 
ATOM     17  C   UNL     1       3.870   7.039  17.506  0.00  0.00    +0.000 A 
ATOM     18  C   UNL     1       2.875   8.017  17.496  0.00  0.00    +0.000 A 
ATOM     19  C   UNL     1       2.031   8.156  18.593  0.00  0.00    +0.000 A 
ATOM     20  C   UNL     1       2.187   7.321  19.698  0.00  0.00    +0.000 A 
ATOM     21  C   UNL     1       3.177   6.328  19.707  0.00  0.00    +0.000 A 
ENDBRANCH  15  16
BRANCH  15  22
ATOM     22  C   UNL     1       6.445   5.878  18.346  0.00  0.00    +0.000 C 
ATOM     23  C   UNL     1       7.544   5.694  19.383  0.00  0.00    +0.000 C 
ENDBRANCH  15  22
ENDBRANCH   1  15
TORSDOF 7
ENDMDL
MODEL 5
REMARK VINA RESULT:      -7.4      0.865      2.800
REMARK  Name = 
REMARK  9 active torsions:
REMARK  status: ('A' for Active; 'I' for Inactive)
REMARK    1  A    between atoms: C_1  and  C_2
REMARK    2  A    between atoms: C_2  and  C_3
REMARK    3  A    between atoms: C_3  and  C_4
REMARK    4  A    between atoms: C_4  and  N_5
REMARK    5  A    between atoms: N_5  and  C_15
REMARK    6  A    between atoms: C_6  and  C_8
REMARK    7  A    between atoms: C_15  and  C_16
REMARK    8  A    between atoms: C_15  and  C_18
REMARK    9  A    between atoms: C_16  and  C_17
REMARK                            x       y       z     vdW  Elec       q    Type
REMARK                         _______ _______ _______ _____ _____    ______ ____
ROOT
ATOM      1  N   UNL     1       4.397   3.901  16.947  0.00  0.00    +0.000 N 
ATOM      2  C   UNL     1       3.887   2.829  17.735  0.00  0.00    +0.000 C 
ATOM      3  O   UNL     1       4.078   1.647  17.451  0.00  0.00    +0.000 OA
ENDROOT
BRANCH   2   4
ATOM      4  C   UNL     1       2.988   3.034  18.897  0.00  0.00    +0.000 A 
ATOM      5  C   UNL     1       1.613   3.262  18.737  0.00  0.00    +0.000 A 
ATOM      6  C   UNL     1       0.765   3.377  19.836  0.00  0.00    +0.000 A 
ATOM      7  C   UNL     1       1.256   3.132  21.106  0.00  0.00    +0.000 A 
ATOM      8  C   UNL     1       2.597   2.805  21.250  0.00  0.00    +0.000 A 
ATOM      9  N   UNL     1       3.490   2.781  20.171  0.00  0.00    +0.000 N 
ATOM     10  O   UNL     1       4.716   2.571  20.435  0.00  0.00    +0.000 OA
ENDBRANCH   2   4
BRANCH   1  11
ATOM     11  C   UNL     1       5.284   3.590  15.807  0.00  0.00    +0.000 C 
BRANCH  11  12
ATOM     12  C   UNL     1       5.365   4.413  14.517  0.00  0.00    +0.000 C 
BRANCH  12  14
ATOM     13  C   UNL     1       5.536   3.356  12.271  0.00  0.00    +0.000 C 
ATOM     14  C   UNL     1       6.330   3.918  13.448  0.00  0.00    +0.000 C 
ENDBRANCH  12  14
ENDBRANCH  11  12
ENDBRANCH   1  11
BRANCH   1  15
ATOM     15  C   UNL     1       4.394   5.336  17.406  0.00  0.00    +0.000 C 
BRANCH  15  16
ATOM     16  C   UNL     1       5.770   5.855  17.850  0.00  0.00    +0.000 A 
ATOM     17  C   UNL     1       6.334   6.958  17.177  0.00  0.00    +0.000 A 
ATOM     18  C   UNL     1       7.552   7.505  17.580  0.00  0.00    +0.000 A 
ATOM     19  C   UNL     1       8.232   6.961  18.665  0.00  0.00    +0.000 A 
ATOM     20  C   UNL     1       7.692   5.869  19.342  0.00  0.00    +0.000 A 
ATOM     21  C   UNL     1       6.461   5.323  18.950  0.00  0.00    +0.000 A 
ENDBRANCH  15  16
BRANCH  15  22
ATOM     22  C   UNL     1       3.454   5.737  18.592  0.00  0.00    +0.000 C 
ATOM     23  C   UNL     1       2.657   7.028  18.467  0.00  0.00    +0.000 C 
ENDBRANCH  15  22
ENDBRANCH   1  15
TORSDOF 7
ENDMDL
MODEL 6
REMARK VINA RESULT:      -7.4      0.848      2.613
REMARK  Name = 
REMARK  9 active torsions:
REMARK  status: ('A' for Active; 'I' for Inactive)
REMARK    1  A    between atoms: C_1  and  C_2
REMARK    2  A    between atoms: C_2  and  C_3
REMARK    3  A    between atoms: C_3  and  C_4
REMARK    4  A    between atoms: C_4  and  N_5
REMARK    5  A    between atoms: N_5  and  C_15
REMARK    6  A    between atoms: C_6  and  C_8
REMARK    7  A    between atoms: C_15  and  C_16
REMARK    8  A    between atoms: C_15  and  C_18
REMARK    9  A    between atoms: C_16  and  C_17
REMARK                            x       y       z     vdW  Elec       q    Type
REMARK                         _______ _______ _______ _____ _____    ______ ____
ROOT
ATOM      1  N   UNL     1       3.938   4.194  17.080  0.00  0.00    +0.000 N 
ATOM      2  C   UNL     1       3.555   3.032  17.811  0.00  0.00    +0.000 C 
ATOM      3  O   UNL     1       3.693   1.894  17.365  0.00  0.00    +0.000 OA
ENDROOT
BRANCH   2   4
ATOM      4  C   UNL     1       2.855   3.091  19.117  0.00  0.00    +0.000 A 
ATOM      5  C   UNL     1       1.474   3.326  19.206  0.00  0.00    +0.000 A 
ATOM      6  C   UNL     1       0.814   3.303  20.431  0.00  0.00    +0.000 A 
ATOM      7  C   UNL     1       1.497   2.912  21.569  0.00  0.00    +0.000 A 
ATOM      8  C   UNL     1       2.840   2.580  21.458  0.00  0.00    +0.000 A 
ATOM      9  N   UNL     1       3.550   2.691  20.255  0.00  0.00    +0.000 N 
ATOM     10  O   UNL     1       4.800   2.460  20.294  0.00  0.00    +0.000 OA
ENDBRANCH   2   4
BRANCH   1  11
ATOM     11  C   UNL     1       4.629   4.029  15.785  0.00  0.00    +0.000 C 
BRANCH  11  12
ATOM     12  C   UNL     1       6.136   3.804  15.624  0.00  0.00    +0.000 C 
BRANCH  12  14
ATOM     13  C   UNL     1       6.128   3.753  13.136  0.00  0.00    +0.000 C 
ATOM     14  C   UNL     1       6.784   4.372  14.368  0.00  0.00    +0.000 C 
ENDBRANCH  12  14
ENDBRANCH  11  12
ENDBRANCH   1  11
BRANCH   1  15
ATOM     15  C   UNL     1       4.014   5.568  17.695  0.00  0.00    +0.000 C 
BRANCH  15  16
ATOM     16  C   UNL     1       5.443   6.036  18.006  0.00  0.00    +0.000 A 
ATOM     17  C   UNL     1       6.166   5.391  19.031  0.00  0.00    +0.000 A 
ATOM     18  C   UNL     1       7.488   5.736  19.313  0.00  0.00    +0.000 A 
ATOM     19  C   UNL     1       8.115   6.735  18.574  0.00  0.00    +0.000 A 
ATOM     20  C   UNL     1       7.418   7.386  17.558  0.00  0.00    +0.000 A 
ATOM     21  C   UNL     1       6.093   7.033  17.262  0.00  0.00    +0.000 A 
ENDBRANCH  15  16
BRANCH  15  22
ATOM     22  C   UNL     1       3.246   5.827  19.035  0.00  0.00    +0.000 C 
ATOM     23  C   UNL     1       2.481   7.135  19.177  0.00  0.00    +0.000 C 
ENDBRANCH  15  22
ENDBRANCH   1  15
TORSDOF 7
ENDMDL
MODEL 7
REMARK VINA RESULT:      -7.2      1.857      4.697
REMARK  Name = 
REMARK  9 active torsions:
REMARK  status: ('A' for Active; 'I' for Inactive)
REMARK    1  A    between atoms: C_1  and  C_2
REMARK    2  A    between atoms: C_2  and  C_3
REMARK    3  A    between atoms: C_3  and  C_4
REMARK    4  A    between atoms: C_4  and  N_5
REMARK    5  A    between atoms: N_5  and  C_15
REMARK    6  A    between atoms: C_6  and  C_8
REMARK    7  A    between atoms: C_15  and  C_16
REMARK    8  A    between atoms: C_15  and  C_18
REMARK    9  A    between atoms: C_16  and  C_17
REMARK                            x       y       z     vdW  Elec       q    Type
REMARK                         _______ _______ _______ _____ _____    ______ ____
ROOT
ATOM      1  N   UNL     1       5.822   4.672  17.410  0.00  0.00    +0.000 N 
ATOM      2  C   UNL     1       5.161   4.119  18.546  0.00  0.00    +0.000 C 
ATOM      3  O   UNL     1       5.741   3.902  19.609  0.00  0.00    +0.000 OA
ENDROOT
BRANCH   2   4
ATOM      4  C   UNL     1       3.755   3.650  18.516  0.00  0.00    +0.000 A 
ATOM      5  C   UNL     1       3.396   2.425  17.932  0.00  0.00    +0.000 A 
ATOM      6  C   UNL     1       2.085   1.958  17.977  0.00  0.00    +0.000 A 
ATOM      7  C   UNL     1       1.141   2.642  18.722  0.00  0.00    +0.000 A 
ATOM      8  C   UNL     1       1.527   3.799  19.384  0.00  0.00    +0.000 A 
ATOM      9  N   UNL     1       2.813   4.342  19.272  0.00  0.00    +0.000 N 
ATOM     10  O   UNL     1       3.023   5.462  19.838  0.00  0.00    +0.000 OA
ENDBRANCH   2   4
BRANCH   1  11
ATOM     11  C   UNL     1       7.227   5.107  17.543  0.00  0.00    +0.000 C 
BRANCH  11  12
ATOM     12  C   UNL     1       7.681   6.375  18.274  0.00  0.00    +0.000 C 
BRANCH  12  14
ATOM     13  C   UNL     1       8.380   8.763  18.287  0.00  0.00    +0.000 C 
ATOM     14  C   UNL     1       7.736   7.657  17.454  0.00  0.00    +0.000 C 
ENDBRANCH  12  14
ENDBRANCH  11  12
ENDBRANCH   1  11
BRANCH   1  15
ATOM     15  C   UNL     1       5.088   5.176  16.194  0.00  0.00    +0.000 C 
BRANCH  15  16
ATOM     16  C   UNL     1       5.765   4.819  14.862  0.00  0.00    +0.000 A 
ATOM     17  C   UNL     1       7.004   5.412  14.545  0.00  0.00    +0.000 A 
ATOM     18  C   UNL     1       7.689   5.077  13.377  0.00  0.00    +0.000 A 
ATOM     19  C   UNL     1       7.150   4.139  12.502  0.00  0.00    +0.000 A 
ATOM     20  C   UNL     1       5.925   3.542  12.797  0.00  0.00    +0.000 A 
ATOM     21  C   UNL     1       5.239   3.866  13.976  0.00  0.00    +0.000 A 
ENDBRANCH  15  16
BRANCH  15  22
ATOM     22  C   UNL     1       4.825   6.714  16.068  0.00  0.00    +0.000 C 
ATOM     23  C   UNL     1       4.040   7.397  17.178  0.00  0.00    +0.000 C 
ENDBRANCH  15  22
ENDBRANCH   1  15
TORSDOF 7
ENDMDL
MODEL 8
REMARK VINA RESULT:      -7.0      1.899      4.663
REMARK  Name = 
REMARK  9 active torsions:
REMARK  status: ('A' for Active; 'I' for Inactive)
REMARK    1  A    between atoms: C_1  and  C_2
REMARK    2  A    between atoms: C_2  and  C_3
REMARK    3  A    between atoms: C_3  and  C_4
REMARK    4  A    between atoms: C_4  and  N_5
REMARK    5  A    between atoms: N_5  and  C_15
REMARK    6  A    between atoms: C_6  and  C_8
REMARK    7  A    between atoms: C_15  and  C_16
REMARK    8  A    between atoms: C_15  and  C_18
REMARK    9  A    between atoms: C_16  and  C_17
REMARK                            x       y       z     vdW  Elec       q    Type
REMARK                         _______ _______ _______ _____ _____    ______ ____
ROOT
ATOM      1  N   UNL     1       5.871   4.529  17.325  0.00  0.00    +0.000 N 
ATOM      2  C   UNL     1       5.176   4.044  18.470  0.00  0.00    +0.000 C 
ATOM      3  O   UNL     1       5.737   3.824  19.542  0.00  0.00    +0.000 OA
ENDROOT
BRANCH   2   4
ATOM      4  C   UNL     1       3.746   3.653  18.444  0.00  0.00    +0.000 A 
ATOM      5  C   UNL     1       3.320   2.442  17.875  0.00  0.00    +0.000 A 
ATOM      6  C   UNL     1       1.986   2.048  17.924  0.00  0.00    +0.000 A 
ATOM      7  C   UNL     1       1.080   2.793  18.659  0.00  0.00    +0.000 A 
ATOM      8  C   UNL     1       1.528   3.935  19.307  0.00  0.00    +0.000 A 
ATOM      9  N   UNL     1       2.843   4.405  19.190  0.00  0.00    +0.000 N 
ATOM     10  O   UNL     1       3.113   5.518  19.742  0.00  0.00    +0.000 OA
ENDBRANCH   2   4
BRANCH   1  11
ATOM     11  C   UNL     1       7.297   4.890  17.454  0.00  0.00    +0.000 C 
BRANCH  11  12
ATOM     12  C   UNL     1       7.932   5.500  18.708  0.00  0.00    +0.000 C 
BRANCH  12  14
ATOM     13  C   UNL     1       7.785   7.578  17.347  0.00  0.00    +0.000 C 
ATOM     14  C   UNL     1       8.074   7.016  18.737  0.00  0.00    +0.000 C 
ENDBRANCH  12  14
ENDBRANCH  11  12
ENDBRANCH   1  11
BRANCH   1  15
ATOM     15  C   UNL     1       5.172   5.041  16.091  0.00  0.00    +0.000 C 
BRANCH  15  16
ATOM     16  C   UNL     1       5.890   4.697  14.778  0.00  0.00    +0.000 A 
ATOM     17  C   UNL     1       5.285   3.788  13.885  0.00  0.00    +0.000 A 
ATOM     18  C   UNL     1       5.865   3.488  12.653  0.00  0.00    +0.000 A 
ATOM     19  C   UNL     1       7.063   4.093  12.286  0.00  0.00    +0.000 A 
ATOM     20  C   UNL     1       7.678   4.993  13.154  0.00  0.00    +0.000 A 
ATOM     21  C   UNL     1       7.092   5.308  14.388  0.00  0.00    +0.000 A 
ENDBRANCH  15  16
BRANCH  15  22
ATOM     22  C   UNL     1       4.906   6.579  15.970  0.00  0.00    +0.000 C 
ATOM     23  C   UNL     1       4.148   7.264  17.097  0.00  0.00    +0.000 C 
ENDBRANCH  15  22
ENDBRANCH   1  15
TORSDOF 7
ENDMDL
MODEL 9
REMARK VINA RESULT:      -7.0      2.532      5.997
REMARK  Name = 
REMARK  9 active torsions:
REMARK  status: ('A' for Active; 'I' for Inactive)
REMARK    1  A    between atoms: C_1  and  C_2
REMARK    2  A    between atoms: C_2  and  C_3
REMARK    3  A    between atoms: C_3  and  C_4
REMARK    4  A    between atoms: C_4  and  N_5
REMARK    5  A    between atoms: N_5  and  C_15
REMARK    6  A    between atoms: C_6  and  C_8
REMARK    7  A    between atoms: C_15  and  C_16
REMARK    8  A    between atoms: C_15  and  C_18
REMARK    9  A    between atoms: C_16  and  C_17
REMARK                            x       y       z     vdW  Elec       q    Type
REMARK                         _______ _______ _______ _____ _____    ______ ____
ROOT
ATOM      1  N   UNL     1       4.852   5.558  16.695  0.00  0.00    +0.000 N 
ATOM      2  C   UNL     1       5.216   5.937  15.370  0.00  0.00    +0.000 C 
ATOM      3  O   UNL     1       5.071   7.083  14.946  0.00  0.00    +0.000 OA
ENDROOT
BRANCH   2   4
ATOM      4  C   UNL     1       5.689   4.969  14.352  0.00  0.00    +0.000 A 
ATOM      5  C   UNL     1       4.796   4.186  13.604  0.00  0.00    +0.000 A 
ATOM      6  C   UNL     1       5.246   3.337  12.596  0.00  0.00    +0.000 A 
ATOM      7  C   UNL     1       6.580   3.357  12.231  0.00  0.00    +0.000 A 
ATOM      8  C   UNL     1       7.442   4.210  12.905  0.00  0.00    +0.000 A 
ATOM      9  N   UNL     1       7.032   5.000  13.987  0.00  0.00    +0.000 N 
ATOM     10  O   UNL     1       7.930   5.664  14.595  0.00  0.00    +0.000 OA
ENDBRANCH   2   4
BRANCH   1  11
ATOM     11  C   UNL     1       4.390   6.599  17.635  0.00  0.00    +0.000 C 
BRANCH  11  12
ATOM     12  C   UNL     1       2.949   7.113  17.727  0.00  0.00    +0.000 C 
BRANCH  12  14
ATOM     13  C   UNL     1       2.310   6.104  19.910  0.00  0.00    +0.000 C 
ATOM     14  C   UNL     1       2.413   7.408  19.121  0.00  0.00    +0.000 C 
ENDBRANCH  12  14
ENDBRANCH  11  12
ENDBRANCH   1  11
BRANCH   1  15
ATOM     15  C   UNL     1       5.248   4.242  17.313  0.00  0.00    +0.000 C 
BRANCH  15  16
ATOM     16  C   UNL     1       4.092   3.503  18.005  0.00  0.00    +0.000 A 
ATOM     17  C   UNL     1       4.258   3.068  19.336  0.00  0.00    +0.000 A 
ATOM     18  C   UNL     1       3.220   2.446  20.030  0.00  0.00    +0.000 A 
ATOM     19  C   UNL     1       1.991   2.248  19.406  0.00  0.00    +0.000 A 
ATOM     20  C   UNL     1       1.807   2.670  18.091  0.00  0.00    +0.000 A 
ATOM     21  C   UNL     1       2.844   3.307  17.394  0.00  0.00    +0.000 A 
ENDBRANCH  15  16
BRANCH  15  22
ATOM     22  C   UNL     1       6.381   4.236  18.393  0.00  0.00    +0.000 C 
ATOM     23  C   UNL     1       7.724   4.849  18.022  0.00  0.00    +0.000 C 
ENDBRANCH  15  22
ENDBRANCH   1  15
TORSDOF 7
ENDMDL
