MODEL 1
REMARK VINA RESULT:      -8.6      0.000      0.000
REMARK  Name = 
REMARK  6 active torsions:
REMARK  status: ('A' for Active; 'I' for Inactive)
REMARK    1  A    between atoms: C_1  and  O_2
REMARK    2  A    between atoms: O_2  and  C_3
REMARK    3  A    between atoms: C_6  and  O_7
REMARK    4  A    between atoms: C_8  and  C_9
REMARK    5  A    between atoms: N_10  and  N_11
REMARK    6  A    between atoms: C_12  and  C_14
REMARK                            x       y       z     vdW  Elec       q    Type
REMARK                         _______ _______ _______ _____ _____    ______ ____
ROOT
ATOM      1  N   UNL     1       7.735   7.777  18.078  0.00  0.00    +0.000 N 
ATOM      2  C   UNL     1       7.659   6.487  18.587  0.00  0.00    +0.000 C 
ATOM      3  O   UNL     1       8.464   6.021  19.397  0.00  0.00    +0.000 OA
ATOM      4  H   UNL     1       7.068   8.112  17.380  0.00  0.00    +0.000 HD
ENDROOT
BRANCH   2   5
ATOM      5  C   UNL     1       6.510   5.656  18.103  0.00  0.00    +0.000 A 
ATOM      6  C   UNL     1       5.628   5.227  19.026  0.00  0.00    +0.000 A 
ATOM      7  C   UNL     1       4.457   4.450  18.646  0.00  0.00    +0.000 A 
ATOM      8  C   UNL     1       3.519   3.992  19.575  0.00  0.00    +0.000 A 
ATOM      9  C   UNL     1       2.396   3.275  19.145  0.00  0.00    +0.000 A 
ATOM     10  C   UNL     1       2.203   3.015  17.788  0.00  0.00    +0.000 A 
ATOM     11  C   UNL     1       3.138   3.461  16.856  0.00  0.00    +0.000 A 
ATOM     12  C   UNL     1       4.253   4.171  17.298  0.00  0.00    +0.000 A 
ATOM     13  O   UNL     1       5.179   4.598  16.331  0.00  0.00    +0.000 OA
ATOM     14  C   UNL     1       6.318   5.316  16.677  0.00  0.00    +0.000 A 
ATOM     15  O   UNL     1       7.128   5.660  15.821  0.00  0.00    +0.000 OA
ENDBRANCH   2   5
BRANCH   1  17
ATOM     16  C   UNL     1       8.609   9.872  18.301  0.00  0.00    +0.000 C 
ATOM     17  N   UNL     1       8.735   8.599  18.506  0.00  0.00    +0.000 NA
BRANCH  16  22
ATOM     18  C   UNL     1      11.450  12.350  18.103  0.00  0.00    +0.000 A 
ATOM     19  C   UNL     1      11.713  12.586  19.454  0.00  0.00    +0.000 A 
ATOM     20  C   UNL     1      10.972  11.934  20.446  0.00  0.00    +0.000 A 
ATOM     21  C   UNL     1       9.957  11.040  20.086  0.00  0.00    +0.000 A 
ATOM     22  C   UNL     1       9.684  10.800  18.736  0.00  0.00    +0.000 A 
ATOM     23  C   UNL     1      10.435  11.460  17.753  0.00  0.00    +0.000 A 
BRANCH  18  25
ATOM     24  C   UNL     1      12.115  14.458  17.249  0.00  0.00    +0.000 C 
ATOM     25  O   UNL     1      12.237  13.037  17.220  0.00  0.00    +0.000 OA
ENDBRANCH  18  25
BRANCH  21  26
ATOM     26  O   UNL     1       9.238  10.407  21.059  0.00  0.00    +0.000 OA
ATOM     27  H   UNL     1       8.646   9.755  20.641  0.00  0.00    +0.000 HD
ENDBRANCH  21  26
ENDBRANCH  16  22
ENDBRANCH   1  17
TORSDOF 5
ENDMDL
MODEL 2
REMARK VINA RESULT:      -7.8      1.212      1.375
REMARK  Name = 
REMARK  6 active torsions:
REMARK  status: ('A' for Active; 'I' for Inactive)
REMARK    1  A    between atoms: C_1  and  O_2
REMARK    2  A    between atoms: O_2  and  C_3
REMARK    3  A    between atoms: C_6  and  O_7
REMARK    4  A    between atoms: C_8  and  C_9
REMARK    5  A    between atoms: N_10  and  N_11
REMARK    6  A    between atoms: C_12  and  C_14
REMARK                            x       y       z     vdW  Elec       q    Type
REMARK                         _______ _______ _______ _____ _____    ______ ____
ROOT
ATOM      1  N   UNL     1       7.932   7.517  18.284  0.00  0.00    +0.000 N 
ATOM      2  C   UNL     1       6.830   7.440  17.442  0.00  0.00    +0.000 C 
ATOM      3  O   UNL     1       6.495   8.339  16.667  0.00  0.00    +0.000 OA
ATOM      4  H   UNL     1       8.154   6.763  18.937  0.00  0.00    +0.000 HD
ENDROOT
BRANCH   2   5
ATOM      5  C   UNL     1       6.041   6.168  17.506  0.00  0.00    +0.000 A 
ATOM      6  C   UNL     1       4.714   6.275  17.713  0.00  0.00    +0.000 A 
ATOM      7  C   UNL     1       3.860   5.098  17.748  0.00  0.00    +0.000 A 
ATOM      8  C   UNL     1       2.480   5.170  17.956  0.00  0.00    +0.000 A 
ATOM      9  C   UNL     1       1.704   4.004  17.949  0.00  0.00    +0.000 A 
ATOM     10  C   UNL     1       2.303   2.762  17.731  0.00  0.00    +0.000 A 
ATOM     11  C   UNL     1       3.680   2.680  17.531  0.00  0.00    +0.000 A 
ATOM     12  C   UNL     1       4.439   3.849  17.544  0.00  0.00    +0.000 A 
ATOM     13  O   UNL     1       5.825   3.727  17.348  0.00  0.00    +0.000 OA
ATOM     14  C   UNL     1       6.662   4.837  17.340  0.00  0.00    +0.000 A 
ATOM     15  O   UNL     1       7.874   4.709  17.189  0.00  0.00    +0.000 OA
ENDBRANCH   2   5
BRANCH   1  17
ATOM     16  C   UNL     1       8.759   9.383  19.304  0.00  0.00    +0.000 C 
ATOM     17  N   UNL     1       8.715   8.632  18.247  0.00  0.00    +0.000 NA
BRANCH  16  22
ATOM     18  C   UNL     1      10.849  12.245  18.005  0.00  0.00    +0.000 A 
ATOM     19  C   UNL     1      11.131  12.944  19.180  0.00  0.00    +0.000 A 
ATOM     20  C   UNL     1      10.651  12.486  20.412  0.00  0.00    +0.000 A 
ATOM     21  C   UNL     1       9.878  11.321  20.470  0.00  0.00    +0.000 A 
ATOM     22  C   UNL     1       9.586  10.616  19.298  0.00  0.00    +0.000 A 
ATOM     23  C   UNL     1      10.076  11.086  18.071  0.00  0.00    +0.000 A 
BRANCH  18  25
ATOM     24  C   UNL     1      11.456  14.203  16.815  0.00  0.00    +0.000 C 
ATOM     25  O   UNL     1      11.373  12.780  16.859  0.00  0.00    +0.000 OA
ENDBRANCH  18  25
BRANCH  21  26
ATOM     26  O   UNL     1       9.412  10.879  21.676  0.00  0.00    +0.000 OA
ATOM     27  H   UNL     1       8.868  10.083  21.532  0.00  0.00    +0.000 HD
ENDBRANCH  21  26
ENDBRANCH  16  22
ENDBRANCH   1  17
TORSDOF 5
ENDMDL
MODEL 3
REMARK VINA RESULT:      -7.8      5.240      7.762
REMARK  Name = 
REMARK  6 active torsions:
REMARK  status: ('A' for Active; 'I' for Inactive)
REMARK    1  A    between atoms: C_1  and  O_2
REMARK    2  A    between atoms: O_2  and  C_3
REMARK    3  A    between atoms: C_6  and  O_7
REMARK    4  A    between atoms: C_8  and  C_9
REMARK    5  A    between atoms: N_10  and  N_11
REMARK    6  A    between atoms: C_12  and  C_14
REMARK                            x       y       z     vdW  Elec       q    Type
REMARK                         _______ _______ _______ _____ _____    ______ ____
ROOT
ATOM      1  N   UNL     1       3.766   6.905  17.298  0.00  0.00    +0.000 N 
ATOM      2  C   UNL     1       4.799   6.006  17.531  0.00  0.00    +0.000 C 
ATOM      3  O   UNL     1       5.069   5.544  18.642  0.00  0.00    +0.000 OA
ATOM      4  H   UNL     1       3.599   7.292  16.367  0.00  0.00    +0.000 HD
ENDROOT
BRANCH   2   5
ATOM      5  C   UNL     1       5.597   5.596  16.331  0.00  0.00    +0.000 A 
ATOM      6  C   UNL     1       4.989   4.800  15.430  0.00  0.00    +0.000 A 
ATOM      7  C   UNL     1       5.670   4.384  14.213  0.00  0.00    +0.000 A 
ATOM      8  C   UNL     1       5.071   3.562  13.254  0.00  0.00    +0.000 A 
ATOM      9  C   UNL     1       5.765   3.220  12.087  0.00  0.00    +0.000 A 
ATOM     10  C   UNL     1       7.057   3.700  11.871  0.00  0.00    +0.000 A 
ATOM     11  C   UNL     1       7.665   4.513  12.825  0.00  0.00    +0.000 A 
ATOM     12  C   UNL     1       6.963   4.842  13.983  0.00  0.00    +0.000 A 
ATOM     13  O   UNL     1       7.611   5.658  14.927  0.00  0.00    +0.000 OA
ATOM     14  C   UNL     1       6.989   6.042  16.110  0.00  0.00    +0.000 A 
ATOM     15  O   UNL     1       7.579   6.735  16.933  0.00  0.00    +0.000 OA
ENDBRANCH   2   5
BRANCH   1  17
ATOM     16  C   UNL     1       2.285   8.378  18.214  0.00  0.00    +0.000 C 
ATOM     17  N   UNL     1       2.977   7.290  18.342  0.00  0.00    +0.000 NA
BRANCH  16  22
ATOM     18  C   UNL     1      -0.246  10.420  20.133  0.00  0.00    +0.000 A 
ATOM     19  C   UNL     1      -0.246   9.775  21.372  0.00  0.00    +0.000 A 
ATOM     20  C   UNL     1       0.584   8.673  21.600  0.00  0.00    +0.000 A 
ATOM     21  C   UNL     1       1.421   8.206  20.579  0.00  0.00    +0.000 A 
ATOM     22  C   UNL     1       1.426   8.842  19.334  0.00  0.00    +0.000 A 
ATOM     23  C   UNL     1       0.589   9.947  19.121  0.00  0.00    +0.000 A 
BRANCH  18  25
ATOM     24  C   UNL     1      -1.604  11.748  18.717  0.00  0.00    +0.000 C 
ATOM     25  O   UNL     1      -1.093  11.489  20.023  0.00  0.00    +0.000 OA
ENDBRANCH  18  25
BRANCH  21  26
ATOM     26  O   UNL     1       2.229   7.129  20.808  0.00  0.00    +0.000 OA
ATOM     27  H   UNL     1       1.751   6.489  21.367  0.00  0.00    +0.000 HD
ENDBRANCH  21  26
ENDBRANCH  16  22
ENDBRANCH   1  17
TORSDOF 5
ENDMDL
MODEL 4
REMARK VINA RESULT:      -7.6      6.998      9.719
REMARK  Name = 
REMARK  6 active torsions:
REMARK  status: ('A' for Active; 'I' for Inactive)
REMARK    1  A    between atoms: C_1  and  O_2
REMARK    2  A    between atoms: O_2  and  C_3
REMARK    3  A    between atoms: C_6  and  O_7
REMARK    4  A    between atoms: C_8  and  C_9
REMARK    5  A    between atoms: N_10  and  N_11
REMARK    6  A    between atoms: C_12  and  C_14
REMARK                            x       y       z     vdW  Elec       q    Type
REMARK                         _______ _______ _______ _____ _____    ______ ____
ROOT
ATOM      1  N   UNL     1       1.547   8.242  20.230  0.00  0.00    +0.000 N 
ATOM      2  C   UNL     1       1.099   9.487  19.807  0.00  0.00    +0.000 C 
ATOM      3  O   UNL     1       1.348   9.964  18.697  0.00  0.00    +0.000 OA
ATOM      4  H   UNL     1       1.348   7.899  21.172  0.00  0.00    +0.000 HD
ENDROOT
BRANCH   2   5
ATOM      5  C   UNL     1       0.259  10.251  20.784  0.00  0.00    +0.000 A 
ATOM      6  C   UNL     1      -0.715  11.033  20.280  0.00  0.00    +0.000 A 
ATOM      7  C   UNL     1      -1.608  11.780  21.154  0.00  0.00    +0.000 A 
ATOM      8  C   UNL     1      -2.632  12.598  20.668  0.00  0.00    +0.000 A 
ATOM      9  C   UNL     1      -3.480  13.269  21.558  0.00  0.00    +0.000 A 
ATOM     10  C   UNL     1      -3.311  13.122  22.935  0.00  0.00    +0.000 A 
ATOM     11  C   UNL     1      -2.288  12.315  23.428  0.00  0.00    +0.000 A 
ATOM     12  C   UNL     1      -1.450  11.657  22.531  0.00  0.00    +0.000 A 
ATOM     13  O   UNL     1      -0.423  10.859  23.064  0.00  0.00    +0.000 OA
ATOM     14  C   UNL     1       0.458  10.160  22.246  0.00  0.00    +0.000 A 
ATOM     15  O   UNL     1       1.363   9.486  22.730  0.00  0.00    +0.000 OA
ENDBRANCH   2   5
BRANCH   1  17
ATOM     16  C   UNL     1       2.653   6.301  19.771  0.00  0.00    +0.000 C 
ATOM     17  N   UNL     1       2.284   7.478  19.374  0.00  0.00    +0.000 NA
BRANCH  16  22
ATOM     18  C   UNL     1       5.676   4.603  18.277  0.00  0.00    +0.000 A 
ATOM     19  C   UNL     1       5.098   3.842  17.260  0.00  0.00    +0.000 A 
ATOM     20  C   UNL     1       3.716   3.878  17.043  0.00  0.00    +0.000 A 
ATOM     21  C   UNL     1       2.904   4.681  17.853  0.00  0.00    +0.000 A 
ATOM     22  C   UNL     1       3.472   5.444  18.876  0.00  0.00    +0.000 A 
ATOM     23  C   UNL     1       4.859   5.398  19.081  0.00  0.00    +0.000 A 
BRANCH  18  25
ATOM     24  C   UNL     1       7.703   5.616  18.971  0.00  0.00    +0.000 C 
ATOM     25  O   UNL     1       7.035   4.495  18.397  0.00  0.00    +0.000 OA
ENDBRANCH  18  25
BRANCH  21  26
ATOM     26  O   UNL     1       1.555   4.712  17.635  0.00  0.00    +0.000 OA
ATOM     27  H   UNL     1       1.384   5.129  16.771  0.00  0.00    +0.000 HD
ENDBRANCH  21  26
ENDBRANCH  16  22
ENDBRANCH   1  17
TORSDOF 5
ENDMDL
MODEL 5
REMARK VINA RESULT:      -7.5      7.257     10.408
REMARK  Name = 
REMARK  6 active torsions:
REMARK  status: ('A' for Active; 'I' for Inactive)
REMARK    1  A    between atoms: C_1  and  O_2
REMARK    2  A    between atoms: O_2  and  C_3
REMARK    3  A    between atoms: C_6  and  O_7
REMARK    4  A    between atoms: C_8  and  C_9
REMARK    5  A    between atoms: N_10  and  N_11
REMARK    6  A    between atoms: C_12  and  C_14
REMARK                            x       y       z     vdW  Elec       q    Type
REMARK                         _______ _______ _______ _____ _____    ______ ____
ROOT
ATOM      1  N   UNL     1       1.169   7.924  21.176  0.00  0.00    +0.000 N 
ATOM      2  C   UNL     1       0.937   9.125  20.516  0.00  0.00    +0.000 C 
ATOM      3  O   UNL     1       1.382   9.389  19.396  0.00  0.00    +0.000 OA
ATOM      4  H   UNL     1       0.811   7.760  22.118  0.00  0.00    +0.000 HD
ENDROOT
BRANCH   2   5
ATOM      5  C   UNL     1       0.083  10.119  21.240  0.00  0.00    +0.000 A 
ATOM      6  C   UNL     1      -0.720  10.902  20.494  0.00  0.00    +0.000 A 
ATOM      7  C   UNL     1      -1.617  11.868  21.112  0.00  0.00    +0.000 A 
ATOM      8  C   UNL     1      -2.466  12.693  20.370  0.00  0.00    +0.000 A 
ATOM      9  C   UNL     1      -3.330  13.582  21.023  0.00  0.00    +0.000 A 
ATOM     10  C   UNL     1      -3.351  13.647  22.416  0.00  0.00    +0.000 A 
ATOM     11  C   UNL     1      -2.502  12.833  23.163  0.00  0.00    +0.000 A 
ATOM     12  C   UNL     1      -1.645  11.956  22.500  0.00  0.00    +0.000 A 
ATOM     13  O   UNL     1      -0.797  11.156  23.285  0.00  0.00    +0.000 OA
ATOM     14  C   UNL     1       0.087  10.249  22.713  0.00  0.00    +0.000 A 
ATOM     15  O   UNL     1       0.837   9.576  23.414  0.00  0.00    +0.000 OA
ENDBRANCH   2   5
BRANCH   1  17
ATOM     16  C   UNL     1       1.576   5.722  20.743  0.00  0.00    +0.000 C 
ATOM     17  N   UNL     1       1.907   6.961  20.555  0.00  0.00    +0.000 NA
BRANCH  16  22
ATOM     18  C   UNL     1       4.493   3.921  19.163  0.00  0.00    +0.000 A 
ATOM     19  C   UNL     1       3.943   2.663  18.908  0.00  0.00    +0.000 A 
ATOM     20  C   UNL     1       2.612   2.389  19.240  0.00  0.00    +0.000 A 
ATOM     21  C   UNL     1       1.823   3.380  19.837  0.00  0.00    +0.000 A 
ATOM     22  C   UNL     1       2.365   4.641  20.100  0.00  0.00    +0.000 A 
ATOM     23  C   UNL     1       3.701   4.902  19.760  0.00  0.00    +0.000 A 
BRANCH  18  25
ATOM     24  C   UNL     1       6.407   5.317  19.160  0.00  0.00    +0.000 C 
ATOM     25  O   UNL     1       5.801   4.080  18.793  0.00  0.00    +0.000 OA
ENDBRANCH  18  25
BRANCH  21  26
ATOM     26  O   UNL     1       0.524   3.105  20.159  0.00  0.00    +0.000 OA
ATOM     27  H   UNL     1      -0.058   3.500  19.484  0.00  0.00    +0.000 HD
ENDBRANCH  21  26
ENDBRANCH  16  22
ENDBRANCH   1  17
TORSDOF 5
ENDMDL
MODEL 6
REMARK VINA RESULT:      -7.5      6.882      9.030
REMARK  Name = 
REMARK  6 active torsions:
REMARK  status: ('A' for Active; 'I' for Inactive)
REMARK    1  A    between atoms: C_1  and  O_2
REMARK    2  A    between atoms: O_2  and  C_3
REMARK    3  A    between atoms: C_6  and  O_7
REMARK    4  A    between atoms: C_8  and  C_9
REMARK    5  A    between atoms: N_10  and  N_11
REMARK    6  A    between atoms: C_12  and  C_14
REMARK                            x       y       z     vdW  Elec       q    Type
REMARK                         _______ _______ _______ _____ _____    ______ ____
ROOT
ATOM      1  N   UNL     1       1.409   8.530  19.295  0.00  0.00    +0.000 N 
ATOM      2  C   UNL     1       1.160   9.564  18.402  0.00  0.00    +0.000 C 
ATOM      3  O   UNL     1       1.944   9.906  17.514  0.00  0.00    +0.000 OA
ATOM      4  H   UNL     1       0.747   8.301  20.040  0.00  0.00    +0.000 HD
ENDROOT
BRANCH   2   5
ATOM      5  C   UNL     1      -0.155  10.265  18.557  0.00  0.00    +0.000 A 
ATOM      6  C   UNL     1      -1.052  10.121  17.563  0.00  0.00    +0.000 A 
ATOM      7  C   UNL     1      -2.371  10.730  17.645  0.00  0.00    +0.000 A 
ATOM      8  C   UNL     1      -3.328  10.599  16.635  0.00  0.00    +0.000 A 
ATOM      9  C   UNL     1      -4.593  11.182  16.784  0.00  0.00    +0.000 A 
ATOM     10  C   UNL     1      -4.907  11.894  17.942  0.00  0.00    +0.000 A 
ATOM     11  C   UNL     1      -3.956  12.037  18.950  0.00  0.00    +0.000 A 
ATOM     12  C   UNL     1      -2.700  11.454  18.786  0.00  0.00    +0.000 A 
ATOM     13  O   UNL     1      -1.764  11.625  19.820  0.00  0.00    +0.000 OA
ATOM     14  C   UNL     1      -0.488  11.076  19.748  0.00  0.00    +0.000 A 
ATOM     15  O   UNL     1       0.325  11.256  20.650  0.00  0.00    +0.000 OA
ENDBRANCH   2   5
BRANCH   1  17
ATOM     16  C   UNL     1       2.745   7.099  18.124  0.00  0.00    +0.000 C 
ATOM     17  N   UNL     1       2.571   7.825  19.184  0.00  0.00    +0.000 NA
BRANCH  16  22
ATOM     18  C   UNL     1       5.912   5.725  16.596  0.00  0.00    +0.000 A 
ATOM     19  C   UNL     1       6.360   4.865  17.601  0.00  0.00    +0.000 A 
ATOM     20  C   UNL     1       5.631   4.717  18.786  0.00  0.00    +0.000 A 
ATOM     21  C   UNL     1       4.444   5.436  18.970  0.00  0.00    +0.000 A 
ATOM     22  C   UNL     1       3.989   6.302  17.972  0.00  0.00    +0.000 A 
ATOM     23  C   UNL     1       4.730   6.440  16.789  0.00  0.00    +0.000 A 
BRANCH  18  25
ATOM     24  C   UNL     1       6.864   4.570  14.759  0.00  0.00    +0.000 C 
ATOM     25  O   UNL     1       6.700   5.790  15.480  0.00  0.00    +0.000 OA
ENDBRANCH  18  25
BRANCH  21  26
ATOM     26  O   UNL     1       3.737   5.286  20.130  0.00  0.00    +0.000 OA
ATOM     27  H   UNL     1       2.980   5.900  20.119  0.00  0.00    +0.000 HD
ENDBRANCH  21  26
ENDBRANCH  16  22
ENDBRANCH   1  17
TORSDOF 5
ENDMDL
MODEL 7
REMARK VINA RESULT:      -7.4      1.242      1.750
REMARK  Name = 
REMARK  6 active torsions:
REMARK  status: ('A' for Active; 'I' for Inactive)
REMARK    1  A    between atoms: C_1  and  O_2
REMARK    2  A    between atoms: O_2  and  C_3
REMARK    3  A    between atoms: C_6  and  O_7
REMARK    4  A    between atoms: C_8  and  C_9
REMARK    5  A    between atoms: N_10  and  N_11
REMARK    6  A    between atoms: C_12  and  C_14
REMARK                            x       y       z     vdW  Elec       q    Type
REMARK                         _______ _______ _______ _____ _____    ______ ____
ROOT
ATOM      1  N   UNL     1       7.915   8.285  18.745  0.00  0.00    +0.000 N 
ATOM      2  C   UNL     1       7.567   7.438  17.700  0.00  0.00    +0.000 C 
ATOM      3  O   UNL     1       7.960   7.584  16.541  0.00  0.00    +0.000 OA
ATOM      4  H   UNL     1       7.539   8.149  19.686  0.00  0.00    +0.000 HD
ENDROOT
BRANCH   2   5
ATOM      5  C   UNL     1       6.672   6.290  18.055  0.00  0.00    +0.000 A 
ATOM      6  C   UNL     1       5.410   6.325  17.585  0.00  0.00    +0.000 A 
ATOM      7  C   UNL     1       4.480   5.235  17.842  0.00  0.00    +0.000 A 
ATOM      8  C   UNL     1       3.165   5.235  17.369  0.00  0.00    +0.000 A 
ATOM      9  C   UNL     1       2.326   4.143  17.622  0.00  0.00    +0.000 A 
ATOM     10  C   UNL     1       2.798   3.046  18.345  0.00  0.00    +0.000 A 
ATOM     11  C   UNL     1       4.105   3.042  18.827  0.00  0.00    +0.000 A 
ATOM     12  C   UNL     1       4.927   4.137  18.571  0.00  0.00    +0.000 A 
ATOM     13  O   UNL     1       6.237   4.102  19.080  0.00  0.00    +0.000 OA
ATOM     14  C   UNL     1       7.130   5.146  18.871  0.00  0.00    +0.000 A 
ATOM     15  O   UNL     1       8.263   5.108  19.343  0.00  0.00    +0.000 OA
ENDBRANCH   2   5
BRANCH   1  17
ATOM     16  C   UNL     1       9.112  10.075  19.497  0.00  0.00    +0.000 C 
ATOM     17  N   UNL     1       8.758   9.327  18.499  0.00  0.00    +0.000 NA
BRANCH  16  22
ATOM     18  C   UNL     1      11.168  12.663  17.671  0.00  0.00    +0.000 A 
ATOM     19  C   UNL     1      11.687  13.409  18.730  0.00  0.00    +0.000 A 
ATOM     20  C   UNL     1      11.380  13.073  20.053  0.00  0.00    +0.000 A 
ATOM     21  C   UNL     1      10.544  11.983  20.321  0.00  0.00    +0.000 A 
ATOM     22  C   UNL     1      10.016  11.232  19.267  0.00  0.00    +0.000 A 
ATOM     23  C   UNL     1      10.332  11.580  17.946  0.00  0.00    +0.000 A 
BRANCH  18  25
ATOM     24  C   UNL     1      11.780  14.474  16.271  0.00  0.00    +0.000 C 
ATOM     25  O   UNL     1      11.536  13.077  16.420  0.00  0.00    +0.000 OA
ENDBRANCH  18  25
BRANCH  21  26
ATOM     26  O   UNL     1      10.248  11.661  21.616  0.00  0.00    +0.000 OA
ATOM     27  H   UNL     1      10.737  12.259  22.209  0.00  0.00    +0.000 HD
ENDBRANCH  21  26
ENDBRANCH  16  22
ENDBRANCH   1  17
TORSDOF 5
ENDMDL
MODEL 8
REMARK VINA RESULT:      -7.4      2.166      3.911
REMARK  Name = 
REMARK  6 active torsions:
REMARK  status: ('A' for Active; 'I' for Inactive)
REMARK    1  A    between atoms: C_1  and  O_2
REMARK    2  A    between atoms: O_2  and  C_3
REMARK    3  A    between atoms: C_6  and  O_7
REMARK    4  A    between atoms: C_8  and  C_9
REMARK    5  A    between atoms: N_10  and  N_11
REMARK    6  A    between atoms: C_12  and  C_14
REMARK                            x       y       z     vdW  Elec       q    Type
REMARK                         _______ _______ _______ _____ _____    ______ ____
ROOT
ATOM      1  N   UNL     1       7.807   8.126  17.405  0.00  0.00    +0.000 N 
ATOM      2  C   UNL     1       7.574   6.789  17.700  0.00  0.00    +0.000 C 
ATOM      3  O   UNL     1       7.924   6.248  18.751  0.00  0.00    +0.000 OA
ATOM      4  H   UNL     1       7.532   8.528  16.506  0.00  0.00    +0.000 HD
ENDROOT
BRANCH   2   5
ATOM      5  C   UNL     1       6.841   6.004  16.655  0.00  0.00    +0.000 A 
ATOM      6  C   UNL     1       7.481   5.781  15.491  0.00  0.00    +0.000 A 
ATOM      7  C   UNL     1       6.865   4.992  14.433  0.00  0.00    +0.000 A 
ATOM      8  C   UNL     1       7.499   4.737  13.214  0.00  0.00    +0.000 A 
ATOM      9  C   UNL     1       6.869   3.945  12.246  0.00  0.00    +0.000 A 
ATOM     10  C   UNL     1       5.607   3.403  12.493  0.00  0.00    +0.000 A 
ATOM     11  C   UNL     1       4.965   3.659  13.702  0.00  0.00    +0.000 A 
ATOM     12  C   UNL     1       5.602   4.452  14.655  0.00  0.00    +0.000 A 
ATOM     13  O   UNL     1       4.921   4.696  15.859  0.00  0.00    +0.000 OA
ATOM     14  C   UNL     1       5.479   5.471  16.870  0.00  0.00    +0.000 A 
ATOM     15  O   UNL     1       4.859   5.693  17.906  0.00  0.00    +0.000 OA
ENDBRANCH   2   5
BRANCH   1  17
ATOM     16  C   UNL     1       8.846  10.080  17.960  0.00  0.00    +0.000 C 
ATOM     17  N   UNL     1       8.436   8.907  18.330  0.00  0.00    +0.000 NA
BRANCH  16  22
ATOM     18  C   UNL     1       9.624  11.909  21.170  0.00  0.00    +0.000 A 
ATOM     19  C   UNL     1      10.816  12.559  20.842  0.00  0.00    +0.000 A 
ATOM     20  C   UNL     1      11.376  12.415  19.568  0.00  0.00    +0.000 A 
ATOM     21  C   UNL     1      10.742  11.612  18.613  0.00  0.00    +0.000 A 
ATOM     22  C   UNL     1       9.551  10.955  18.932  0.00  0.00    +0.000 A 
ATOM     23  C   UNL     1       9.000  11.108  20.213  0.00  0.00    +0.000 A 
BRANCH  18  25
ATOM     24  C   UNL     1       7.797  11.795  22.674  0.00  0.00    +0.000 C 
ATOM     25  O   UNL     1       9.165  12.123  22.441  0.00  0.00    +0.000 OA
ENDBRANCH  18  25
BRANCH  21  26
ATOM     26  O   UNL     1      11.295  11.476  17.371  0.00  0.00    +0.000 OA
ATOM     27  H   UNL     1      12.114  12.003  17.331  0.00  0.00    +0.000 HD
ENDBRANCH  21  26
ENDBRANCH  16  22
ENDBRANCH   1  17
TORSDOF 5
ENDMDL
MODEL 9
REMARK VINA RESULT:      -7.3      7.307      9.258
REMARK  Name = 
REMARK  6 active torsions:
REMARK  status: ('A' for Active; 'I' for Inactive)
REMARK    1  A    between atoms: C_1  and  O_2
REMARK    2  A    between atoms: O_2  and  C_3
REMARK    3  A    between atoms: C_6  and  O_7
REMARK    4  A    between atoms: C_8  and  C_9
REMARK    5  A    between atoms: N_10  and  N_11
REMARK    6  A    between atoms: C_12  and  C_14
REMARK                            x       y       z     vdW  Elec       q    Type
REMARK                         _______ _______ _______ _____ _____    ______ ____
ROOT
ATOM      1  N   UNL     1       1.424   8.806  20.187  0.00  0.00    +0.000 N 
ATOM      2  C   UNL     1       1.691   8.566  18.845  0.00  0.00    +0.000 C 
ATOM      3  O   UNL     1       1.247   9.254  17.923  0.00  0.00    +0.000 OA
ATOM      4  H   UNL     1       1.783   8.189  20.918  0.00  0.00    +0.000 HD
ENDROOT
BRANCH   2   5
ATOM      5  C   UNL     1       2.585   7.400  18.551  0.00  0.00    +0.000 A 
ATOM      6  C   UNL     1       3.386   7.494  17.472  0.00  0.00    +0.000 A 
ATOM      7  C   UNL     1       4.319   6.430  17.131  0.00  0.00    +0.000 A 
ATOM      8  C   UNL     1       5.167   6.494  16.022  0.00  0.00    +0.000 A 
ATOM      9  C   UNL     1       6.065   5.452  15.762  0.00  0.00    +0.000 A 
ATOM     10  C   UNL     1       6.123   4.345  16.610  0.00  0.00    +0.000 A 
ATOM     11  C   UNL     1       5.275   4.269  17.713  0.00  0.00    +0.000 A 
ATOM     12  C   UNL     1       4.384   5.312  17.957  0.00  0.00    +0.000 A 
ATOM     13  O   UNL     1       3.538   5.198  19.074  0.00  0.00    +0.000 OA
ATOM     14  C   UNL     1       2.620   6.190  19.399  0.00  0.00    +0.000 A 
ATOM     15  O   UNL     1       1.873   6.062  20.365  0.00  0.00    +0.000 OA
ENDBRANCH   2   5
BRANCH   1  17
ATOM     16  C   UNL     1       0.471  10.126  21.785  0.00  0.00    +0.000 C 
ATOM     17  N   UNL     1       0.648   9.875  20.525  0.00  0.00    +0.000 NA
BRANCH  16  22
ATOM     18  C   UNL     1      -2.408  12.038  23.304  0.00  0.00    +0.000 A 
ATOM     19  C   UNL     1      -2.043  13.358  23.035  0.00  0.00    +0.000 A 
ATOM     20  C   UNL     1      -0.858  13.641  22.347  0.00  0.00    +0.000 A 
ATOM     21  C   UNL     1      -0.027  12.596  21.928  0.00  0.00    +0.000 A 
ATOM     22  C   UNL     1      -0.382  11.271  22.196  0.00  0.00    +0.000 A 
ATOM     23  C   UNL     1      -1.573  11.002  22.885  0.00  0.00    +0.000 A 
BRANCH  18  25
ATOM     24  C   UNL     1      -4.173  13.065  24.507  0.00  0.00    +0.000 C 
ATOM     25  O   UNL     1      -3.588  11.877  23.978  0.00  0.00    +0.000 OA
ENDBRANCH  18  25
BRANCH  21  26
ATOM     26  O   UNL     1       1.129  12.879  21.256  0.00  0.00    +0.000 OA
ATOM     27  H   UNL     1       1.769  12.162  21.414  0.00  0.00    +0.000 HD
ENDBRANCH  21  26
ENDBRANCH  16  22
ENDBRANCH   1  17
TORSDOF 5
ENDMDL
