MODEL 1
REMARK VINA RESULT:      -8.4      0.000      0.000
REMARK  Name = 
REMARK  7 active torsions:
REMARK  status: ('A' for Active; 'I' for Inactive)
REMARK    1  A    between atoms: C_1  and  C_2
REMARK    2  A    between atoms: C_2  and  C_3
REMARK    3  A    between atoms: C_6  and  O_7
REMARK    4  A    between atoms: O_7  and  C_8
REMARK    5  A    between atoms: C_8  and  C_9
REMARK    6  A    between atoms: C_19  and  C_20
REMARK    7  A    between atoms: C_19  and  C_21
REMARK                            x       y       z     vdW  Elec       q    Type
REMARK                         _______ _______ _______ _____ _____    ______ ____
ROOT
ATOM      1  C   UNL     1       0.984   9.763  19.929  0.00  0.00    +0.000 C 
ATOM      2  O   UNL     1       0.878   9.270  21.054  0.00  0.00    +0.000 OA
ATOM      3  N   UNL     1       1.643   9.197  18.862  0.00  0.00    +0.000 N 
ATOM      4  C   UNL     1       2.172   7.912  18.878  0.00  0.00    +0.000 A 
ATOM      5  N   UNL     1       3.016   7.611  17.876  0.00  0.00    +0.000 NA
ATOM      6  C   UNL     1       3.549   6.366  17.899  0.00  0.00    +0.000 A 
ATOM      7  C   UNL     1       3.246   5.423  18.854  0.00  0.00    +0.000 A 
ATOM      8  C   UNL     1       2.329   5.802  19.808  0.00  0.00    +0.000 A 
ATOM      9  N   UNL     1       1.810   7.045  19.834  0.00  0.00    +0.000 NA
ATOM     10  C   UNL     1       1.846   4.852  20.875  0.00  0.00    +0.000 C 
ATOM     11  C   UNL     1       2.033   3.369  20.484  0.00  0.00    +0.000 C 
ATOM     12  C   UNL     1       1.030   2.956  19.385  0.00  0.00    +0.000 C 
ATOM     13  C   UNL     1       1.779   2.472  21.709  0.00  0.00    +0.000 C 
ATOM     14  C   UNL     1       3.482   3.166  20.005  0.00  0.00    +0.000 C 
ATOM     15  C   UNL     1       3.820   4.070  18.838  0.00  0.00    +0.000 C 
ATOM     16  O   UNL     1       4.566   3.728  17.931  0.00  0.00    +0.000 OA
ATOM     17  H   UNL     1       1.854   9.721  18.028  0.00  0.00    +0.000 HD
ENDROOT
BRANCH   1  18
ATOM     18  C   UNL     1       0.380  11.139  19.654  0.00  0.00    +0.000 C 
BRANCH  18  19
ATOM     19  O   UNL     1      -0.229  11.112  18.369  0.00  0.00    +0.000 OA
BRANCH  19  23
ATOM     20  C   UNL     1      -4.403  11.140  18.084  0.00  0.00    +0.000 A 
ATOM     21  C   UNL     1      -3.606  10.271  17.332  0.00  0.00    +0.000 A 
ATOM     22  C   UNL     1      -2.215  10.289  17.469  0.00  0.00    +0.000 A 
ATOM     23  C   UNL     1      -1.595  11.184  18.342  0.00  0.00    +0.000 A 
ATOM     24  C   UNL     1      -2.385  12.025  19.125  0.00  0.00    +0.000 A 
ATOM     25  C   UNL     1      -3.781  12.001  18.997  0.00  0.00    +0.000 A 
BRANCH  20  27
ATOM     26  C   UNL     1      -6.609  10.276  18.951  0.00  0.00    +0.000 C 
ATOM     27  C   UNL     1      -5.903  11.143  17.920  0.00  0.00    +0.000 C 
ENDBRANCH  20  27
ENDBRANCH  19  23
ENDBRANCH  18  19
ENDBRANCH   1  18
TORSDOF 4
ENDMDL
MODEL 2
REMARK VINA RESULT:      -8.1      2.321      3.866
REMARK  Name = 
REMARK  7 active torsions:
REMARK  status: ('A' for Active; 'I' for Inactive)
REMARK    1  A    between atoms: C_1  and  C_2
REMARK    2  A    between atoms: C_2  and  C_3
REMARK    3  A    between atoms: C_6  and  O_7
REMARK    4  A    between atoms: O_7  and  C_8
REMARK    5  A    between atoms: C_8  and  C_9
REMARK    6  A    between atoms: C_19  and  C_20
REMARK    7  A    between atoms: C_19  and  C_21
REMARK                            x       y       z     vdW  Elec       q    Type
REMARK                         _______ _______ _______ _____ _____    ______ ____
ROOT
ATOM      1  C   UNL     1       1.302   8.380  21.017  0.00  0.00    +0.000 C 
ATOM      2  O   UNL     1       1.478   8.901  19.915  0.00  0.00    +0.000 OA
ATOM      3  N   UNL     1       1.498   7.052  21.320  0.00  0.00    +0.000 N 
ATOM      4  C   UNL     1       2.056   6.136  20.437  0.00  0.00    +0.000 A 
ATOM      5  N   UNL     1       1.925   4.841  20.772  0.00  0.00    +0.000 NA
ATOM      6  C   UNL     1       2.451   3.944  19.904  0.00  0.00    +0.000 A 
ATOM      7  C   UNL     1       3.117   4.296  18.752  0.00  0.00    +0.000 A 
ATOM      8  C   UNL     1       3.252   5.645  18.521  0.00  0.00    +0.000 A 
ATOM      9  N   UNL     1       2.706   6.562  19.346  0.00  0.00    +0.000 NA
ATOM     10  C   UNL     1       4.018   6.181  17.337  0.00  0.00    +0.000 C 
ATOM     11  C   UNL     1       5.034   5.164  16.774  0.00  0.00    +0.000 C 
ATOM     12  C   UNL     1       6.237   4.996  17.728  0.00  0.00    +0.000 C 
ATOM     13  C   UNL     1       5.576   5.663  15.423  0.00  0.00    +0.000 C 
ATOM     14  C   UNL     1       4.316   3.818  16.560  0.00  0.00    +0.000 C 
ATOM     15  C   UNL     1       3.701   3.300  17.843  0.00  0.00    +0.000 C 
ATOM     16  O   UNL     1       3.644   2.109  18.115  0.00  0.00    +0.000 OA
ATOM     17  H   UNL     1       1.164   6.647  22.181  0.00  0.00    +0.000 HD
ENDROOT
BRANCH   1  18
ATOM     18  C   UNL     1       0.785   9.233  22.175  0.00  0.00    +0.000 C 
BRANCH  18  19
ATOM     19  O   UNL     1       0.791  10.595  21.765  0.00  0.00    +0.000 OA
BRANCH  19  23
ATOM     20  C   UNL     1      -2.936  12.479  22.014  0.00  0.00    +0.000 A 
ATOM     21  C   UNL     1      -2.318  11.890  23.122  0.00  0.00    +0.000 A 
ATOM     22  C   UNL     1      -1.066  11.282  22.995  0.00  0.00    +0.000 A 
ATOM     23  C   UNL     1      -0.418  11.234  21.759  0.00  0.00    +0.000 A 
ATOM     24  C   UNL     1      -1.009  11.854  20.658  0.00  0.00    +0.000 A 
ATOM     25  C   UNL     1      -2.260  12.475  20.787  0.00  0.00    +0.000 A 
BRANCH  20  27
ATOM     26  C   UNL     1      -5.214  12.782  20.973  0.00  0.00    +0.000 C 
ATOM     27  C   UNL     1      -4.299  13.113  22.142  0.00  0.00    +0.000 C 
ENDBRANCH  20  27
ENDBRANCH  19  23
ENDBRANCH  18  19
ENDBRANCH   1  18
TORSDOF 4
ENDMDL
MODEL 3
REMARK VINA RESULT:      -8.1      1.528      2.949
REMARK  Name = 
REMARK  7 active torsions:
REMARK  status: ('A' for Active; 'I' for Inactive)
REMARK    1  A    between atoms: C_1  and  C_2
REMARK    2  A    between atoms: C_2  and  C_3
REMARK    3  A    between atoms: C_6  and  O_7
REMARK    4  A    between atoms: O_7  and  C_8
REMARK    5  A    between atoms: C_8  and  C_9
REMARK    6  A    between atoms: C_19  and  C_20
REMARK    7  A    between atoms: C_19  and  C_21
REMARK                            x       y       z     vdW  Elec       q    Type
REMARK                         _______ _______ _______ _____ _____    ______ ____
ROOT
ATOM      1  C   UNL     1       1.599   9.568  18.582  0.00  0.00    +0.000 C 
ATOM      2  O   UNL     1       1.895   9.429  17.394  0.00  0.00    +0.000 OA
ATOM      3  N   UNL     1       1.665   8.590  19.548  0.00  0.00    +0.000 N 
ATOM      4  C   UNL     1       2.209   7.330  19.331  0.00  0.00    +0.000 A 
ATOM      5  N   UNL     1       1.951   6.407  20.273  0.00  0.00    +0.000 NA
ATOM      6  C   UNL     1       2.462   5.172  20.056  0.00  0.00    +0.000 A 
ATOM      7  C   UNL     1       3.235   4.848  18.964  0.00  0.00    +0.000 A 
ATOM      8  C   UNL     1       3.494   5.871  18.081  0.00  0.00    +0.000 A 
ATOM      9  N   UNL     1       2.967   7.100  18.250  0.00  0.00    +0.000 NA
ATOM     10  C   UNL     1       4.383   5.683  16.878  0.00  0.00    +0.000 C 
ATOM     11  C   UNL     1       5.351   4.489  17.031  0.00  0.00    +0.000 C 
ATOM     12  C   UNL     1       6.466   4.808  18.051  0.00  0.00    +0.000 C 
ATOM     13  C   UNL     1       6.027   4.190  15.681  0.00  0.00    +0.000 C 
ATOM     14  C   UNL     1       4.544   3.255  17.473  0.00  0.00    +0.000 C 
ATOM     15  C   UNL     1       3.800   3.505  18.768  0.00  0.00    +0.000 C 
ATOM     16  O   UNL     1       3.627   2.635  19.611  0.00  0.00    +0.000 OA
ATOM     17  H   UNL     1       1.239   8.707  20.454  0.00  0.00    +0.000 HD
ENDROOT
BRANCH   1  18
ATOM     18  C   UNL     1       1.072  10.917  19.070  0.00  0.00    +0.000 C 
BRANCH  18  19
ATOM     19  O   UNL     1      -0.127  10.691  19.803  0.00  0.00    +0.000 OA
BRANCH  19  23
ATOM     20  C   UNL     1      -3.783  11.336  17.876  0.00  0.00    +0.000 A 
ATOM     21  C   UNL     1      -3.371  12.095  18.976  0.00  0.00    +0.000 A 
ATOM     22  C   UNL     1      -2.135  11.852  19.581  0.00  0.00    +0.000 A 
ATOM     23  C   UNL     1      -1.298  10.838  19.113  0.00  0.00    +0.000 A 
ATOM     24  C   UNL     1      -1.683  10.104  17.991  0.00  0.00    +0.000 A 
ATOM     25  C   UNL     1      -2.918  10.355  17.376  0.00  0.00    +0.000 A 
BRANCH  20  27
ATOM     26  C   UNL     1      -6.287  11.140  18.118  0.00  0.00    +0.000 C 
ATOM     27  C   UNL     1      -5.128  11.578  17.236  0.00  0.00    +0.000 C 
ENDBRANCH  20  27
ENDBRANCH  19  23
ENDBRANCH  18  19
ENDBRANCH   1  18
TORSDOF 4
ENDMDL
MODEL 4
REMARK VINA RESULT:      -8.1      2.519      3.868
REMARK  Name = 
REMARK  7 active torsions:
REMARK  status: ('A' for Active; 'I' for Inactive)
REMARK    1  A    between atoms: C_1  and  C_2
REMARK    2  A    between atoms: C_2  and  C_3
REMARK    3  A    between atoms: C_6  and  O_7
REMARK    4  A    between atoms: O_7  and  C_8
REMARK    5  A    between atoms: C_8  and  C_9
REMARK    6  A    between atoms: C_19  and  C_20
REMARK    7  A    between atoms: C_19  and  C_21
REMARK                            x       y       z     vdW  Elec       q    Type
REMARK                         _______ _______ _______ _____ _____    ______ ____
ROOT
ATOM      1  C   UNL     1       1.324   8.358  21.008  0.00  0.00    +0.000 C 
ATOM      2  O   UNL     1       1.502   8.883  19.907  0.00  0.00    +0.000 OA
ATOM      3  N   UNL     1       1.519   7.030  21.306  0.00  0.00    +0.000 N 
ATOM      4  C   UNL     1       2.079   6.116  20.421  0.00  0.00    +0.000 A 
ATOM      5  N   UNL     1       1.948   4.820  20.752  0.00  0.00    +0.000 NA
ATOM      6  C   UNL     1       2.475   3.926  19.882  0.00  0.00    +0.000 A 
ATOM      7  C   UNL     1       3.143   4.282  18.732  0.00  0.00    +0.000 A 
ATOM      8  C   UNL     1       3.278   5.632  18.505  0.00  0.00    +0.000 A 
ATOM      9  N   UNL     1       2.731   6.546  19.332  0.00  0.00    +0.000 NA
ATOM     10  C   UNL     1       4.046   6.172  17.325  0.00  0.00    +0.000 C 
ATOM     11  C   UNL     1       5.064   5.156  16.760  0.00  0.00    +0.000 C 
ATOM     12  C   UNL     1       6.265   4.986  17.715  0.00  0.00    +0.000 C 
ATOM     13  C   UNL     1       5.608   5.661  15.411  0.00  0.00    +0.000 C 
ATOM     14  C   UNL     1       4.346   3.812  16.540  0.00  0.00    +0.000 C 
ATOM     15  C   UNL     1       3.729   3.289  17.820  0.00  0.00    +0.000 C 
ATOM     16  O   UNL     1       3.671   2.097  18.089  0.00  0.00    +0.000 OA
ATOM     17  H   UNL     1       1.184   6.622  22.165  0.00  0.00    +0.000 HD
ENDROOT
BRANCH   1  18
ATOM     18  C   UNL     1       0.805   9.207  22.167  0.00  0.00    +0.000 C 
BRANCH  18  19
ATOM     19  O   UNL     1       0.791  10.569  21.754  0.00  0.00    +0.000 OA
BRANCH  19  23
ATOM     20  C   UNL     1      -2.840  12.646  21.813  0.00  0.00    +0.000 A 
ATOM     21  C   UNL     1      -2.077  12.503  20.650  0.00  0.00    +0.000 A 
ATOM     22  C   UNL     1      -0.875  11.790  20.675  0.00  0.00    +0.000 A 
ATOM     23  C   UNL     1      -0.405  11.224  21.861  0.00  0.00    +0.000 A 
ATOM     24  C   UNL     1      -1.180  11.327  23.016  0.00  0.00    +0.000 A 
ATOM     25  C   UNL     1      -2.392  12.033  22.990  0.00  0.00    +0.000 A 
BRANCH  20  27
ATOM     26  C   UNL     1      -5.104  12.991  22.871  0.00  0.00    +0.000 C 
ATOM     27  C   UNL     1      -4.124  13.437  21.797  0.00  0.00    +0.000 C 
ENDBRANCH  20  27
ENDBRANCH  19  23
ENDBRANCH  18  19
ENDBRANCH   1  18
TORSDOF 4
ENDMDL
MODEL 5
REMARK VINA RESULT:      -8.0      2.673      9.021
REMARK  Name = 
REMARK  7 active torsions:
REMARK  status: ('A' for Active; 'I' for Inactive)
REMARK    1  A    between atoms: C_1  and  C_2
REMARK    2  A    between atoms: C_2  and  C_3
REMARK    3  A    between atoms: C_6  and  O_7
REMARK    4  A    between atoms: O_7  and  C_8
REMARK    5  A    between atoms: C_8  and  C_9
REMARK    6  A    between atoms: C_19  and  C_20
REMARK    7  A    between atoms: C_19  and  C_21
REMARK                            x       y       z     vdW  Elec       q    Type
REMARK                         _______ _______ _______ _____ _____    ______ ____
ROOT
ATOM      1  C   UNL     1       2.565   6.649  19.521  0.00  0.00    +0.000 C 
ATOM      2  O   UNL     1       2.864   7.425  18.612  0.00  0.00    +0.000 OA
ATOM      3  N   UNL     1       1.914   6.987  20.686  0.00  0.00    +0.000 N 
ATOM      4  C   UNL     1       1.383   8.247  20.932  0.00  0.00    +0.000 A 
ATOM      5  N   UNL     1       1.031   8.498  22.205  0.00  0.00    +0.000 NA
ATOM      6  C   UNL     1       0.531   9.732  22.453  0.00  0.00    +0.000 A 
ATOM      7  C   UNL     1       0.345  10.690  21.483  0.00  0.00    +0.000 A 
ATOM      8  C   UNL     1       0.681  10.324  20.200  0.00  0.00    +0.000 A 
ATOM      9  N   UNL     1       1.216   9.117  19.927  0.00  0.00    +0.000 NA
ATOM     10  C   UNL     1       0.466  11.242  19.023  0.00  0.00    +0.000 C 
ATOM     11  C   UNL     1      -0.603  12.323  19.297  0.00  0.00    +0.000 C 
ATOM     12  C   UNL     1      -2.018  11.707  19.325  0.00  0.00    +0.000 C 
ATOM     13  C   UNL     1      -0.576  13.378  18.176  0.00  0.00    +0.000 C 
ATOM     14  C   UNL     1      -0.279  13.008  20.637  0.00  0.00    +0.000 C 
ATOM     15  C   UNL     1      -0.225  12.013  21.778  0.00  0.00    +0.000 C 
ATOM     16  O   UNL     1      -0.596  12.284  22.911  0.00  0.00    +0.000 OA
ATOM     17  H   UNL     1       1.861   6.355  21.469  0.00  0.00    +0.000 HD
ENDROOT
BRANCH   1  18
ATOM     18  C   UNL     1       2.964   5.178  19.412  0.00  0.00    +0.000 C 
BRANCH  18  19
ATOM     19  O   UNL     1       4.381   5.091  19.489  0.00  0.00    +0.000 OA
BRANCH  19  23
ATOM     20  C   UNL     1       6.259   4.851  15.758  0.00  0.00    +0.000 A 
ATOM     21  C   UNL     1       5.087   4.147  16.055  0.00  0.00    +0.000 A 
ATOM     22  C   UNL     1       4.488   4.267  17.312  0.00  0.00    +0.000 A 
ATOM     23  C   UNL     1       5.055   5.074  18.299  0.00  0.00    +0.000 A 
ATOM     24  C   UNL     1       6.200   5.812  17.998  0.00  0.00    +0.000 A 
ATOM     25  C   UNL     1       6.796   5.702  16.733  0.00  0.00    +0.000 A 
BRANCH  20  27
ATOM     26  C   UNL     1       6.132   3.823  13.458  0.00  0.00    +0.000 C 
ATOM     27  C   UNL     1       6.923   4.704  14.412  0.00  0.00    +0.000 C 
ENDBRANCH  20  27
ENDBRANCH  19  23
ENDBRANCH  18  19
ENDBRANCH   1  18
TORSDOF 4
ENDMDL
MODEL 6
REMARK VINA RESULT:      -8.0      1.707      3.132
REMARK  Name = 
REMARK  7 active torsions:
REMARK  status: ('A' for Active; 'I' for Inactive)
REMARK    1  A    between atoms: C_1  and  C_2
REMARK    2  A    between atoms: C_2  and  C_3
REMARK    3  A    between atoms: C_6  and  O_7
REMARK    4  A    between atoms: O_7  and  C_8
REMARK    5  A    between atoms: C_8  and  C_9
REMARK    6  A    between atoms: C_19  and  C_20
REMARK    7  A    between atoms: C_19  and  C_21
REMARK                            x       y       z     vdW  Elec       q    Type
REMARK                         _______ _______ _______ _____ _____    ______ ____
ROOT
ATOM      1  C   UNL     1       1.670   9.718  18.446  0.00  0.00    +0.000 C 
ATOM      2  O   UNL     1       2.071   9.760  17.281  0.00  0.00    +0.000 OA
ATOM      3  N   UNL     1       1.733   8.625  19.280  0.00  0.00    +0.000 N 
ATOM      4  C   UNL     1       2.390   7.445  18.953  0.00  0.00    +0.000 A 
ATOM      5  N   UNL     1       2.129   6.389  19.743  0.00  0.00    +0.000 NA
ATOM      6  C   UNL     1       2.752   5.231  19.416  0.00  0.00    +0.000 A 
ATOM      7  C   UNL     1       3.634   5.109  18.366  0.00  0.00    +0.000 A 
ATOM      8  C   UNL     1       3.883   6.256  17.650  0.00  0.00    +0.000 A 
ATOM      9  N   UNL     1       3.250   7.414  17.926  0.00  0.00    +0.000 NA
ATOM     10  C   UNL     1       4.879   6.292  16.518  0.00  0.00    +0.000 C 
ATOM     11  C   UNL     1       5.922   5.156  16.604  0.00  0.00    +0.000 C 
ATOM     12  C   UNL     1       6.921   5.409  17.754  0.00  0.00    +0.000 C 
ATOM     13  C   UNL     1       6.726   5.087  15.294  0.00  0.00    +0.000 C 
ATOM     14  C   UNL     1       5.181   3.822  16.809  0.00  0.00    +0.000 C 
ATOM     15  C   UNL     1       4.316   3.845  18.052  0.00  0.00    +0.000 C 
ATOM     16  O   UNL     1       4.144   2.861  18.757  0.00  0.00    +0.000 OA
ATOM     17  H   UNL     1       1.228   8.591  20.151  0.00  0.00    +0.000 HD
ENDROOT
BRANCH   1  18
ATOM     18  C   UNL     1       1.001  10.950  19.052  0.00  0.00    +0.000 C 
BRANCH  18  19
ATOM     19  O   UNL     1      -0.184  10.534  19.719  0.00  0.00    +0.000 OA
BRANCH  19  23
ATOM     20  C   UNL     1      -3.735  11.193  17.607  0.00  0.00    +0.000 A 
ATOM     21  C   UNL     1      -2.824  10.194  17.249  0.00  0.00    +0.000 A 
ATOM     22  C   UNL     1      -1.655  10.003  17.991  0.00  0.00    +0.000 A 
ATOM     23  C   UNL     1      -1.366  10.814  19.090  0.00  0.00    +0.000 A 
ATOM     24  C   UNL     1      -2.290  11.784  19.479  0.00  0.00    +0.000 A 
ATOM     25  C   UNL     1      -3.468  11.970  18.742  0.00  0.00    +0.000 A 
BRANCH  20  27
ATOM     26  C   UNL     1      -5.842  12.554  17.335  0.00  0.00    +0.000 C 
ATOM     27  C   UNL     1      -4.985  11.421  16.793  0.00  0.00    +0.000 C 
ENDBRANCH  20  27
ENDBRANCH  19  23
ENDBRANCH  18  19
ENDBRANCH   1  18
TORSDOF 4
ENDMDL
MODEL 7
REMARK VINA RESULT:      -8.0      1.948      3.422
REMARK  Name = 
REMARK  7 active torsions:
REMARK  status: ('A' for Active; 'I' for Inactive)
REMARK    1  A    between atoms: C_1  and  C_2
REMARK    2  A    between atoms: C_2  and  C_3
REMARK    3  A    between atoms: C_6  and  O_7
REMARK    4  A    between atoms: O_7  and  C_8
REMARK    5  A    between atoms: C_8  and  C_9
REMARK    6  A    between atoms: C_19  and  C_20
REMARK    7  A    between atoms: C_19  and  C_21
REMARK                            x       y       z     vdW  Elec       q    Type
REMARK                         _______ _______ _______ _____ _____    ______ ____
ROOT
ATOM      1  C   UNL     1       1.836   9.509  18.539  0.00  0.00    +0.000 C 
ATOM      2  O   UNL     1       2.261   9.655  17.392  0.00  0.00    +0.000 OA
ATOM      3  N   UNL     1       1.851   8.336  19.259  0.00  0.00    +0.000 N 
ATOM      4  C   UNL     1       2.478   7.174  18.825  0.00  0.00    +0.000 A 
ATOM      5  N   UNL     1       2.169   6.053  19.498  0.00  0.00    +0.000 NA
ATOM      6  C   UNL     1       2.763   4.915  19.066  0.00  0.00    +0.000 A 
ATOM      7  C   UNL     1       3.661   4.871  18.024  0.00  0.00    +0.000 A 
ATOM      8  C   UNL     1       3.959   6.076  17.431  0.00  0.00    +0.000 A 
ATOM      9  N   UNL     1       3.356   7.220  17.814  0.00  0.00    +0.000 NA
ATOM     10  C   UNL     1       4.977   6.194  16.326  0.00  0.00    +0.000 C 
ATOM     11  C   UNL     1       5.984   5.022  16.313  0.00  0.00    +0.000 C 
ATOM     12  C   UNL     1       6.968   5.126  17.499  0.00  0.00    +0.000 C 
ATOM     13  C   UNL     1       6.811   5.060  15.016  0.00  0.00    +0.000 C 
ATOM     14  C   UNL     1       5.198   3.699  16.369  0.00  0.00    +0.000 C 
ATOM     15  C   UNL     1       4.311   3.624  17.594  0.00  0.00    +0.000 C 
ATOM     16  O   UNL     1       4.095   2.579  18.192  0.00  0.00    +0.000 OA
ATOM     17  H   UNL     1       1.327   8.230  20.114  0.00  0.00    +0.000 HD
ENDROOT
BRANCH   1  18
ATOM     18  C   UNL     1       1.193  10.694  19.256  0.00  0.00    +0.000 C 
BRANCH  18  19
ATOM     19  O   UNL     1      -0.115  10.315  19.666  0.00  0.00    +0.000 OA
BRANCH  19  23
ATOM     20  C   UNL     1      -3.087  10.839  16.768  0.00  0.00    +0.000 A 
ATOM     21  C   UNL     1      -2.081   9.875  16.645  0.00  0.00    +0.000 A 
ATOM     22  C   UNL     1      -1.115   9.727  17.645  0.00  0.00    +0.000 A 
ATOM     23  C   UNL     1      -1.124  10.549  18.773  0.00  0.00    +0.000 A 
ATOM     24  C   UNL     1      -2.147  11.486  18.923  0.00  0.00    +0.000 A 
ATOM     25  C   UNL     1      -3.123  11.627  17.926  0.00  0.00    +0.000 A 
BRANCH  20  27
ATOM     26  C   UNL     1      -3.843  10.151  14.462  0.00  0.00    +0.000 C 
ATOM     27  C   UNL     1      -4.115  11.020  15.680  0.00  0.00    +0.000 C 
ENDBRANCH  20  27
ENDBRANCH  19  23
ENDBRANCH  18  19
ENDBRANCH   1  18
TORSDOF 4
ENDMDL
MODEL 8
REMARK VINA RESULT:      -8.0      2.102      2.674
REMARK  Name = 
REMARK  7 active torsions:
REMARK  status: ('A' for Active; 'I' for Inactive)
REMARK    1  A    between atoms: C_1  and  C_2
REMARK    2  A    between atoms: C_2  and  C_3
REMARK    3  A    between atoms: C_6  and  O_7
REMARK    4  A    between atoms: O_7  and  C_8
REMARK    5  A    between atoms: C_8  and  C_9
REMARK    6  A    between atoms: C_19  and  C_20
REMARK    7  A    between atoms: C_19  and  C_21
REMARK                            x       y       z     vdW  Elec       q    Type
REMARK                         _______ _______ _______ _____ _____    ______ ____
ROOT
ATOM      1  C   UNL     1       1.040   9.780  19.646  0.00  0.00    +0.000 C 
ATOM      2  O   UNL     1       0.881   9.316  20.777  0.00  0.00    +0.000 OA
ATOM      3  N   UNL     1       1.746   9.187  18.625  0.00  0.00    +0.000 N 
ATOM      4  C   UNL     1       2.271   7.902  18.697  0.00  0.00    +0.000 A 
ATOM      5  N   UNL     1       3.159   7.575  17.743  0.00  0.00    +0.000 NA
ATOM      6  C   UNL     1       3.688   6.331  17.822  0.00  0.00    +0.000 A 
ATOM      7  C   UNL     1       3.339   5.412  18.785  0.00  0.00    +0.000 A 
ATOM      8  C   UNL     1       2.380   5.816  19.686  0.00  0.00    +0.000 A 
ATOM      9  N   UNL     1       1.863   7.061  19.657  0.00  0.00    +0.000 NA
ATOM     10  C   UNL     1       1.847   4.894  20.753  0.00  0.00    +0.000 C 
ATOM     11  C   UNL     1       2.048   3.402  20.409  0.00  0.00    +0.000 C 
ATOM     12  C   UNL     1       1.096   2.962  19.275  0.00  0.00    +0.000 C 
ATOM     13  C   UNL     1       1.736   2.536  21.642  0.00  0.00    +0.000 C 
ATOM     14  C   UNL     1       3.517   3.185  20.002  0.00  0.00    +0.000 C 
ATOM     15  C   UNL     1       3.910   4.058  18.829  0.00  0.00    +0.000 C 
ATOM     16  O   UNL     1       4.696   3.694  17.966  0.00  0.00    +0.000 OA
ATOM     17  H   UNL     1       1.997   9.690  17.788  0.00  0.00    +0.000 HD
ENDROOT
BRANCH   1  18
ATOM     18  C   UNL     1       0.452  11.149  19.309  0.00  0.00    +0.000 C 
BRANCH  18  19
ATOM     19  O   UNL     1       0.537  11.971  20.468  0.00  0.00    +0.000 OA
BRANCH  19  23
ATOM     20  C   UNL     1      -3.090  12.555  22.469  0.00  0.00    +0.000 A 
ATOM     21  C   UNL     1      -2.896  12.943  21.139  0.00  0.00    +0.000 A 
ATOM     22  C   UNL     1      -1.671  12.717  20.507  0.00  0.00    +0.000 A 
ATOM     23  C   UNL     1      -0.613  12.119  21.194  0.00  0.00    +0.000 A 
ATOM     24  C   UNL     1      -0.811  11.691  22.506  0.00  0.00    +0.000 A 
ATOM     25  C   UNL     1      -2.044  11.907  23.138  0.00  0.00    +0.000 A 
BRANCH  20  27
ATOM     26  C   UNL     1      -4.363  12.487  24.646  0.00  0.00    +0.000 C 
ATOM     27  C   UNL     1      -4.403  12.821  23.163  0.00  0.00    +0.000 C 
ENDBRANCH  20  27
ENDBRANCH  19  23
ENDBRANCH  18  19
ENDBRANCH   1  18
TORSDOF 4
ENDMDL
MODEL 9
REMARK VINA RESULT:      -8.0      1.297      1.710
REMARK  Name = 
REMARK  7 active torsions:
REMARK  status: ('A' for Active; 'I' for Inactive)
REMARK    1  A    between atoms: C_1  and  C_2
REMARK    2  A    between atoms: C_2  and  C_3
REMARK    3  A    between atoms: C_6  and  O_7
REMARK    4  A    between atoms: O_7  and  C_8
REMARK    5  A    between atoms: C_8  and  C_9
REMARK    6  A    between atoms: C_19  and  C_20
REMARK    7  A    between atoms: C_19  and  C_21
REMARK                            x       y       z     vdW  Elec       q    Type
REMARK                         _______ _______ _______ _____ _____    ______ ____
ROOT
ATOM      1  C   UNL     1       1.084   9.832  19.853  0.00  0.00    +0.000 C 
ATOM      2  O   UNL     1       0.954   9.345  20.978  0.00  0.00    +0.000 OA
ATOM      3  N   UNL     1       1.742   9.249  18.795  0.00  0.00    +0.000 N 
ATOM      4  C   UNL     1       2.242   7.952  18.820  0.00  0.00    +0.000 A 
ATOM      5  N   UNL     1       3.090   7.630  17.828  0.00  0.00    +0.000 NA
ATOM      6  C   UNL     1       3.594   6.373  17.860  0.00  0.00    +0.000 A 
ATOM      7  C   UNL     1       3.258   5.440  18.813  0.00  0.00    +0.000 A 
ATOM      8  C   UNL     1       2.340   5.842  19.755  0.00  0.00    +0.000 A 
ATOM      9  N   UNL     1       1.849   7.097  19.773  0.00  0.00    +0.000 NA
ATOM     10  C   UNL     1       1.823   4.906  20.819  0.00  0.00    +0.000 C 
ATOM     11  C   UNL     1       1.981   3.418  20.433  0.00  0.00    +0.000 C 
ATOM     12  C   UNL     1       0.981   3.026  19.323  0.00  0.00    +0.000 C 
ATOM     13  C   UNL     1       1.692   2.530  21.656  0.00  0.00    +0.000 C 
ATOM     14  C   UNL     1       3.430   3.181  19.971  0.00  0.00    +0.000 C 
ATOM     15  C   UNL     1       3.802   4.074  18.806  0.00  0.00    +0.000 C 
ATOM     16  O   UNL     1       4.550   3.713  17.908  0.00  0.00    +0.000 OA
ATOM     17  H   UNL     1       1.975   9.767  17.962  0.00  0.00    +0.000 HD
ENDROOT
BRANCH   1  18
ATOM     18  C   UNL     1       0.515  11.221  19.569  0.00  0.00    +0.000 C 
BRANCH  18  19
ATOM     19  O   UNL     1      -0.901  11.159  19.692  0.00  0.00    +0.000 OA
BRANCH  19  23
ATOM     20  C   UNL     1      -3.136  10.360  16.247  0.00  0.00    +0.000 A 
ATOM     21  C   UNL     1      -3.115   9.494  17.345  0.00  0.00    +0.000 A 
ATOM     22  C   UNL     1      -2.362   9.808  18.480  0.00  0.00    +0.000 A 
ATOM     23  C   UNL     1      -1.605  10.979  18.533  0.00  0.00    +0.000 A 
ATOM     24  C   UNL     1      -1.653  11.868  17.460  0.00  0.00    +0.000 A 
ATOM     25  C   UNL     1      -2.417  11.560  16.325  0.00  0.00    +0.000 A 
BRANCH  20  27
ATOM     26  C   UNL     1      -3.065   9.966  13.756  0.00  0.00    +0.000 C 
ATOM     27  C   UNL     1      -3.925  10.013  15.009  0.00  0.00    +0.000 C 
ENDBRANCH  20  27
ENDBRANCH  19  23
ENDBRANCH  18  19
ENDBRANCH   1  18
TORSDOF 4
ENDMDL
