MODEL 1
REMARK VINA RESULT:      -8.2      0.000      0.000
REMARK  Name = 
REMARK  9 active torsions:
REMARK  status: ('A' for Active; 'I' for Inactive)
REMARK    1  A    between atoms: C_1  and  C_2
REMARK    2  A    between atoms: C_2  and  C_3
REMARK    3  A    between atoms: C_3  and  O_4
REMARK    4  A    between atoms: O_4  and  C_5
REMARK    5  A    between atoms: C_10  and  N_11
REMARK    6  A    between atoms: C_13  and  C_14
REMARK    7  A    between atoms: C_13  and  N_17
REMARK    8  A    between atoms: C_14  and  C_15
REMARK    9  A    between atoms: C_19  and  C_20
REMARK                            x       y       z     vdW  Elec       q    Type
REMARK                         _______ _______ _______ _____ _____    ______ ____
ROOT
ATOM      1  N   UNL     1       4.026   5.816  18.164  0.00  0.00    +0.000 NA
ATOM      2  C   UNL     1       2.590   5.434  18.116  0.00  0.00    +0.000 C 
ATOM      3  C   UNL     1       2.308   6.229  19.422  0.00  0.00    +0.000 C 
ATOM      4  C   UNL     1       3.874   6.089  19.614  0.00  0.00    +0.000 C 
ENDROOT
BRANCH   1  10
ATOM      5  C   UNL     1       6.992   4.892  14.078  0.00  0.00    +0.000 C 
ATOM      6  O   UNL     1       8.113   5.376  13.966  0.00  0.00    +0.000 OA
ATOM      7  N   UNL     1       6.256   4.905  15.262  0.00  0.00    +0.000 N 
ATOM      8  C   UNL     1       6.745   5.706  16.379  0.00  0.00    +0.000 C 
ATOM      9  C   UNL     1       6.403   5.066  17.726  0.00  0.00    +0.000 C 
ATOM     10  C   UNL     1       4.915   4.666  17.890  0.00  0.00    +0.000 C 
ATOM     11  C   UNL     1       4.479   3.895  16.622  0.00  0.00    +0.000 C 
ATOM     12  C   UNL     1       4.835   4.596  15.313  0.00  0.00    +0.000 C 
BRANCH   5  13
ATOM     13  O   UNL     1       6.321   4.348  13.023  0.00  0.00    +0.000 OA
BRANCH  13  14
ATOM     14  C   UNL     1       6.632   2.961  12.832  0.00  0.00    +0.000 C 
BRANCH  14  16
ATOM     15  C   UNL     1       4.655   2.939  11.288  0.00  0.00    +0.000 C 
ATOM     16  C   UNL     1       5.969   2.283  11.645  0.00  0.00    +0.000 C 
ATOM     17  C   UNL     1       6.088   0.787  11.435  0.00  0.00    +0.000 C 
ATOM     18  C   UNL     1       6.792   1.728  10.496  0.00  0.00    +0.000 C 
ENDBRANCH  14  16
ENDBRANCH  13  14
ENDBRANCH   5  13
ENDBRANCH   1  10
BRANCH   3  19
ATOM     19  N   UNL     1       2.021   7.699  19.112  0.00  0.00    +0.000 N 
ATOM     20  C   UNL     1       1.540   8.713  20.013  0.00  0.00    +0.000 A 
ATOM     21  C   UNL     1       1.244   9.861  19.291  0.00  0.00    +0.000 A 
ATOM     22  C   UNL     1       1.619   9.451  17.970  0.00  0.00    +0.000 A 
ATOM     23  N   UNL     1       2.075   8.183  17.855  0.00  0.00    +0.000 NA
BRANCH  21  24
ATOM     24  C   UNL     1       0.612  11.181  19.649  0.00  0.00    +0.000 A 
ATOM     25  N   UNL     1       1.371  12.228  19.189  0.00  0.00    +0.000 NA
ATOM     26  C   UNL     1       0.749  13.228  18.533  0.00  0.00    +0.000 A 
ATOM     27  N   UNL     1      -0.557  13.325  18.240  0.00  0.00    +0.000 NA
ATOM     28  C   UNL     1      -1.262  12.506  19.018  0.00  0.00    +0.000 A 
ATOM     29  N   UNL     1      -2.574  12.760  19.331  0.00  0.00    +0.000 N 
ATOM     30  C   UNL     1      -2.659  12.611  20.694  0.00  0.00    +0.000 A 
ATOM     31  C   UNL     1      -1.548  11.856  21.060  0.00  0.00    +0.000 A 
ATOM     32  C   UNL     1      -0.771  11.495  19.867  0.00  0.00    +0.000 A 
ATOM     33  H   UNL     1      -3.153  13.396  18.791  0.00  0.00    +0.000 HD
ENDBRANCH  21  24
ENDBRANCH   3  19
BRANCH   3  34
ATOM     34  C   UNL     1       1.519   5.426  20.626  0.00  0.00    +0.000 C 
BRANCH  34  35
ATOM     35  C   UNL     1       1.334   3.922  20.525  0.00  0.00    +0.000 C 
ATOM     36  N   UNL     1       1.181   2.673  20.442  0.00  0.00    +0.000 NA
ENDBRANCH  34  35
ENDBRANCH   3  34
TORSDOF 8
ENDMDL
MODEL 2
REMARK VINA RESULT:      -8.1      1.177      1.324
REMARK  Name = 
REMARK  9 active torsions:
REMARK  status: ('A' for Active; 'I' for Inactive)
REMARK    1  A    between atoms: C_1  and  C_2
REMARK    2  A    between atoms: C_2  and  C_3
REMARK    3  A    between atoms: C_3  and  O_4
REMARK    4  A    between atoms: O_4  and  C_5
REMARK    5  A    between atoms: C_10  and  N_11
REMARK    6  A    between atoms: C_13  and  C_14
REMARK    7  A    between atoms: C_13  and  N_17
REMARK    8  A    between atoms: C_14  and  C_15
REMARK    9  A    between atoms: C_19  and  C_20
REMARK                            x       y       z     vdW  Elec       q    Type
REMARK                         _______ _______ _______ _____ _____    ______ ____
ROOT
ATOM      1  N   UNL     1       4.095   5.657  18.833  0.00  0.00    +0.000 NA
ATOM      2  C   UNL     1       2.744   5.424  18.259  0.00  0.00    +0.000 C 
ATOM      3  C   UNL     1       2.076   5.774  19.618  0.00  0.00    +0.000 C 
ATOM      4  C   UNL     1       3.521   5.458  20.187  0.00  0.00    +0.000 C 
ENDROOT
BRANCH   1  10
ATOM      5  C   UNL     1       6.617   4.956  14.418  0.00  0.00    +0.000 C 
ATOM      6  O   UNL     1       7.665   5.542  14.168  0.00  0.00    +0.000 OA
ATOM      7  N   UNL     1       6.032   4.917  15.683  0.00  0.00    +0.000 N 
ATOM      8  C   UNL     1       6.575   5.776  16.730  0.00  0.00    +0.000 C 
ATOM      9  C   UNL     1       6.461   5.127  18.110  0.00  0.00    +0.000 C 
ATOM     10  C   UNL     1       5.049   4.591  18.456  0.00  0.00    +0.000 C 
ATOM     11  C   UNL     1       4.537   3.765  17.252  0.00  0.00    +0.000 C 
ATOM     12  C   UNL     1       4.664   4.477  15.908  0.00  0.00    +0.000 C 
BRANCH   5  13
ATOM     13  O   UNL     1       5.877   4.337  13.454  0.00  0.00    +0.000 OA
BRANCH  13  14
ATOM     14  C   UNL     1       6.483   3.120  12.996  0.00  0.00    +0.000 C 
BRANCH  14  16
ATOM     15  C   UNL     1       4.550   3.135  11.398  0.00  0.00    +0.000 C 
ATOM     16  C   UNL     1       5.869   2.491  11.757  0.00  0.00    +0.000 C 
ATOM     17  C   UNL     1       6.030   1.012  11.472  0.00  0.00    +0.000 C 
ATOM     18  C   UNL     1       6.736   2.017  10.604  0.00  0.00    +0.000 C 
ENDBRANCH  14  16
ENDBRANCH  13  14
ENDBRANCH   5  13
ENDBRANCH   1  10
BRANCH   3  19
ATOM     19  N   UNL     1       1.862   7.283  19.746  0.00  0.00    +0.000 N 
ATOM     20  C   UNL     1       1.516   8.028  20.928  0.00  0.00    +0.000 A 
ATOM     21  C   UNL     1       1.240   9.342  20.574  0.00  0.00    +0.000 A 
ATOM     22  C   UNL     1       1.487   9.297  19.163  0.00  0.00    +0.000 A 
ATOM     23  N   UNL     1       1.850   8.092  18.667  0.00  0.00    +0.000 NA
BRANCH  21  24
ATOM     24  C   UNL     1       0.723  10.536  21.332  0.00  0.00    +0.000 A 
ATOM     25  N   UNL     1       1.472  11.653  21.055  0.00  0.00    +0.000 NA
ATOM     26  C   UNL     1       0.825  12.798  20.760  0.00  0.00    +0.000 A 
ATOM     27  N   UNL     1      -0.501  12.989  20.674  0.00  0.00    +0.000 NA
ATOM     28  C   UNL     1      -1.145  12.011  21.306  0.00  0.00    +0.000 A 
ATOM     29  N   UNL     1      -2.395  12.198  21.842  0.00  0.00    +0.000 N 
ATOM     30  C   UNL     1      -2.320  11.707  23.123  0.00  0.00    +0.000 A 
ATOM     31  C   UNL     1      -1.211  10.864  23.138  0.00  0.00    +0.000 A 
ATOM     32  C   UNL     1      -0.605  10.808  21.802  0.00  0.00    +0.000 A 
ATOM     33  H   UNL     1      -3.003  12.961  21.559  0.00  0.00    +0.000 HD
ENDBRANCH  21  24
ENDBRANCH   3  19
BRANCH   3  34
ATOM     34  C   UNL     1       0.988   4.689  20.214  0.00  0.00    +0.000 C 
BRANCH  34  35
ATOM     35  C   UNL     1       1.026   3.250  19.731  0.00  0.00    +0.000 C 
ATOM     36  N   UNL     1       1.058   2.054  19.329  0.00  0.00    +0.000 NA
ENDBRANCH  34  35
ENDBRANCH   3  34
TORSDOF 8
ENDMDL
MODEL 3
REMARK VINA RESULT:      -8.0      1.097      1.640
REMARK  Name = 
REMARK  9 active torsions:
REMARK  status: ('A' for Active; 'I' for Inactive)
REMARK    1  A    between atoms: C_1  and  C_2
REMARK    2  A    between atoms: C_2  and  C_3
REMARK    3  A    between atoms: C_3  and  O_4
REMARK    4  A    between atoms: O_4  and  C_5
REMARK    5  A    between atoms: C_10  and  N_11
REMARK    6  A    between atoms: C_13  and  C_14
REMARK    7  A    between atoms: C_13  and  N_17
REMARK    8  A    between atoms: C_14  and  C_15
REMARK    9  A    between atoms: C_19  and  C_20
REMARK                            x       y       z     vdW  Elec       q    Type
REMARK                         _______ _______ _______ _____ _____    ______ ____
ROOT
ATOM      1  N   UNL     1       4.199   5.613  18.061  0.00  0.00    +0.000 NA
ATOM      2  C   UNL     1       2.781   5.175  18.145  0.00  0.00    +0.000 C 
ATOM      3  C   UNL     1       2.587   5.967  19.468  0.00  0.00    +0.000 C 
ATOM      4  C   UNL     1       4.169   5.889  19.518  0.00  0.00    +0.000 C 
ENDROOT
BRANCH   1  10
ATOM      5  C   UNL     1       7.189   5.015  13.932  0.00  0.00    +0.000 C 
ATOM      6  O   UNL     1       8.305   5.521  13.859  0.00  0.00    +0.000 OA
ATOM      7  N   UNL     1       6.450   4.936  15.111  0.00  0.00    +0.000 N 
ATOM      8  C   UNL     1       6.925   5.663  16.284  0.00  0.00    +0.000 C 
ATOM      9  C   UNL     1       6.587   4.926  17.581  0.00  0.00    +0.000 C 
ATOM     10  C   UNL     1       5.104   4.496  17.710  0.00  0.00    +0.000 C 
ATOM     11  C   UNL     1       4.682   3.810  16.390  0.00  0.00    +0.000 C 
ATOM     12  C   UNL     1       5.033   4.606  15.135  0.00  0.00    +0.000 C 
BRANCH   5  13
ATOM     13  O   UNL     1       6.529   4.538  12.838  0.00  0.00    +0.000 OA
BRANCH  13  14
ATOM     14  C   UNL     1       7.028   3.263  12.410  0.00  0.00    +0.000 C 
BRANCH  14  16
ATOM     15  C   UNL     1       4.688   3.017  11.543  0.00  0.00    +0.000 C 
ATOM     16  C   UNL     1       6.067   2.403  11.608  0.00  0.00    +0.000 C 
ATOM     17  C   UNL     1       6.164   0.891  11.637  0.00  0.00    +0.000 C 
ATOM     18  C   UNL     1       6.533   1.636  10.383  0.00  0.00    +0.000 C 
ENDBRANCH  14  16
ENDBRANCH  13  14
ENDBRANCH   5  13
ENDBRANCH   1  10
BRANCH   3  19
ATOM     19  N   UNL     1       2.216   7.422  19.182  0.00  0.00    +0.000 N 
ATOM     20  C   UNL     1       1.524   8.343  20.045  0.00  0.00    +0.000 A 
ATOM     21  C   UNL     1       1.230   9.500  19.335  0.00  0.00    +0.000 A 
ATOM     22  C   UNL     1       1.822   9.194  18.067  0.00  0.00    +0.000 A 
ATOM     23  N   UNL     1       2.402   7.977  17.966  0.00  0.00    +0.000 NA
BRANCH  21  24
ATOM     24  C   UNL     1       0.439  10.741  19.653  0.00  0.00    +0.000 A 
ATOM     25  N   UNL     1      -0.423  10.518  20.698  0.00  0.00    +0.000 NA
ATOM     26  C   UNL     1      -0.467  11.426  21.694  0.00  0.00    +0.000 A 
ATOM     27  N   UNL     1       0.264  12.544  21.813  0.00  0.00    +0.000 NA
ATOM     28  C   UNL     1       0.774  12.886  20.631  0.00  0.00    +0.000 A 
ATOM     29  N   UNL     1       1.083  14.188  20.327  0.00  0.00    +0.000 N 
ATOM     30  C   UNL     1       0.515  14.419  19.098  0.00  0.00    +0.000 A 
ATOM     31  C   UNL     1       0.299  13.161  18.541  0.00  0.00    +0.000 A 
ATOM     32  C   UNL     1       0.790  12.118  19.450  0.00  0.00    +0.000 A 
ATOM     33  H   UNL     1       1.210  14.901  21.039  0.00  0.00    +0.000 HD
ENDBRANCH  21  24
ENDBRANCH   3  19
BRANCH   3  34
ATOM     34  C   UNL     1       1.943   5.142  20.741  0.00  0.00    +0.000 C 
BRANCH  34  35
ATOM     35  C   UNL     1       1.625   3.664  20.591  0.00  0.00    +0.000 C 
ATOM     36  N   UNL     1       1.361   2.437  20.465  0.00  0.00    +0.000 NA
ENDBRANCH  34  35
ENDBRANCH   3  34
TORSDOF 8
ENDMDL
MODEL 4
REMARK VINA RESULT:      -7.9      1.115      1.421
REMARK  Name = 
REMARK  9 active torsions:
REMARK  status: ('A' for Active; 'I' for Inactive)
REMARK    1  A    between atoms: C_1  and  C_2
REMARK    2  A    between atoms: C_2  and  C_3
REMARK    3  A    between atoms: C_3  and  O_4
REMARK    4  A    between atoms: O_4  and  C_5
REMARK    5  A    between atoms: C_10  and  N_11
REMARK    6  A    between atoms: C_13  and  C_14
REMARK    7  A    between atoms: C_13  and  N_17
REMARK    8  A    between atoms: C_14  and  C_15
REMARK    9  A    between atoms: C_19  and  C_20
REMARK                            x       y       z     vdW  Elec       q    Type
REMARK                         _______ _______ _______ _____ _____    ______ ____
ROOT
ATOM      1  N   UNL     1       4.507   5.377  17.891  0.00  0.00    +0.000 NA
ATOM      2  C   UNL     1       3.124   4.878  18.109  0.00  0.00    +0.000 C 
ATOM      3  C   UNL     1       3.024   5.661  19.449  0.00  0.00    +0.000 C 
ATOM      4  C   UNL     1       4.605   5.653  19.346  0.00  0.00    +0.000 C 
ENDROOT
BRANCH   1  10
ATOM      5  C   UNL     1       7.465   5.126  13.704  0.00  0.00    +0.000 C 
ATOM      6  O   UNL     1       8.574   5.649  13.660  0.00  0.00    +0.000 OA
ATOM      7  N   UNL     1       6.738   4.950  14.880  0.00  0.00    +0.000 N 
ATOM      8  C   UNL     1       7.215   5.593  16.100  0.00  0.00    +0.000 C 
ATOM      9  C   UNL     1       6.898   4.758  17.341  0.00  0.00    +0.000 C 
ATOM     10  C   UNL     1       5.422   4.301  17.451  0.00  0.00    +0.000 C 
ATOM     11  C   UNL     1       4.995   3.711  16.086  0.00  0.00    +0.000 C 
ATOM     12  C   UNL     1       5.325   4.601  14.891  0.00  0.00    +0.000 C 
BRANCH   5  13
ATOM     13  O   UNL     1       6.800   4.724  12.584  0.00  0.00    +0.000 OA
BRANCH  13  14
ATOM     14  C   UNL     1       6.823   3.299  12.415  0.00  0.00    +0.000 C 
BRANCH  14  16
ATOM     15  C   UNL     1       5.970   1.297  11.170  0.00  0.00    +0.000 C 
ATOM     16  C   UNL     1       5.660   2.697  11.646  0.00  0.00    +0.000 C 
ATOM     17  C   UNL     1       4.777   3.559  10.768  0.00  0.00    +0.000 C 
ATOM     18  C   UNL     1       4.222   2.983  12.042  0.00  0.00    +0.000 C 
ENDBRANCH  14  16
ENDBRANCH  13  14
ENDBRANCH   5  13
ENDBRANCH   1  10
BRANCH   3  19
ATOM     19  N   UNL     1       2.564   7.099  19.205  0.00  0.00    +0.000 N 
ATOM     20  C   UNL     1       1.650   7.880  19.997  0.00  0.00    +0.000 A 
ATOM     21  C   UNL     1       1.367   9.064  19.330  0.00  0.00    +0.000 A 
ATOM     22  C   UNL     1       2.189   8.920  18.166  0.00  0.00    +0.000 A 
ATOM     23  N   UNL     1       2.895   7.770  18.082  0.00  0.00    +0.000 NA
BRANCH  21  24
ATOM     24  C   UNL     1       0.415  10.202  19.592  0.00  0.00    +0.000 A 
ATOM     25  N   UNL     1       0.913  11.046  20.553  0.00  0.00    +0.000 NA
ATOM     26  C   UNL     1       0.881  12.373  20.315  0.00  0.00    +0.000 A 
ATOM     27  N   UNL     1       0.432  12.995  19.214  0.00  0.00    +0.000 NA
ATOM     28  C   UNL     1      -0.359  12.181  18.519  0.00  0.00    +0.000 A 
ATOM     29  N   UNL     1      -1.349  12.662  17.699  0.00  0.00    +0.000 N 
ATOM     30  C   UNL     1      -2.475  11.948  18.030  0.00  0.00    +0.000 A 
ATOM     31  C   UNL     1      -2.017  10.804  18.678  0.00  0.00    +0.000 A 
ATOM     32  C   UNL     1      -0.549  10.799  18.712  0.00  0.00    +0.000 A 
ATOM     33  H   UNL     1      -1.361  13.619  17.359  0.00  0.00    +0.000 HD
ENDBRANCH  21  24
ENDBRANCH   3  19
BRANCH   3  34
ATOM     34  C   UNL     1       2.542   4.809  20.774  0.00  0.00    +0.000 C 
BRANCH  34  35
ATOM     35  C   UNL     1       2.029   3.389  20.605  0.00  0.00    +0.000 C 
ATOM     36  N   UNL     1       1.603   2.210  20.465  0.00  0.00    +0.000 NA
ENDBRANCH  34  35
ENDBRANCH   3  34
TORSDOF 8
ENDMDL
MODEL 5
REMARK VINA RESULT:      -7.9      1.359      1.786
REMARK  Name = 
REMARK  9 active torsions:
REMARK  status: ('A' for Active; 'I' for Inactive)
REMARK    1  A    between atoms: C_1  and  C_2
REMARK    2  A    between atoms: C_2  and  C_3
REMARK    3  A    between atoms: C_3  and  O_4
REMARK    4  A    between atoms: O_4  and  C_5
REMARK    5  A    between atoms: C_10  and  N_11
REMARK    6  A    between atoms: C_13  and  C_14
REMARK    7  A    between atoms: C_13  and  N_17
REMARK    8  A    between atoms: C_14  and  C_15
REMARK    9  A    between atoms: C_19  and  C_20
REMARK                            x       y       z     vdW  Elec       q    Type
REMARK                         _______ _______ _______ _____ _____    ______ ____
ROOT
ATOM      1  N   UNL     1       4.615   5.988  19.486  0.00  0.00    +0.000 NA
ATOM      2  C   UNL     1       3.977   6.355  18.194  0.00  0.00    +0.000 C 
ATOM      3  C   UNL     1       2.587   5.900  18.721  0.00  0.00    +0.000 C 
ATOM      4  C   UNL     1       3.464   5.094  19.766  0.00  0.00    +0.000 C 
ENDROOT
BRANCH   1  10
ATOM      5  C   UNL     1       7.016   4.749  15.121  0.00  0.00    +0.000 C 
ATOM      6  O   UNL     1       7.760   5.535  14.543  0.00  0.00    +0.000 OA
ATOM      7  N   UNL     1       6.545   4.939  16.419  0.00  0.00    +0.000 N 
ATOM      8  C   UNL     1       6.776   6.228  17.065  0.00  0.00    +0.000 C 
ATOM      9  C   UNL     1       6.973   6.077  18.574  0.00  0.00    +0.000 C 
ATOM     10  C   UNL     1       5.879   5.245  19.287  0.00  0.00    +0.000 C 
ATOM     11  C   UNL     1       5.657   3.944  18.480  0.00  0.00    +0.000 C 
ATOM     12  C   UNL     1       5.450   4.166  16.985  0.00  0.00    +0.000 C 
BRANCH   5  13
ATOM     13  O   UNL     1       6.517   3.634  14.516  0.00  0.00    +0.000 OA
BRANCH  13  14
ATOM     14  C   UNL     1       5.496   3.942  13.557  0.00  0.00    +0.000 C 
BRANCH  14  16
ATOM     15  C   UNL     1       7.028   4.089  11.577  0.00  0.00    +0.000 C 
ATOM     16  C   UNL     1       5.758   3.488  12.131  0.00  0.00    +0.000 C 
ATOM     17  C   UNL     1       4.614   3.249  11.166  0.00  0.00    +0.000 C 
ATOM     18  C   UNL     1       5.412   2.081  11.677  0.00  0.00    +0.000 C 
ENDBRANCH  14  16
ENDBRANCH  13  14
ENDBRANCH   5  13
ENDBRANCH   1  10
BRANCH   3  19
ATOM     19  N   UNL     1       1.900   7.031  19.488  0.00  0.00    +0.000 N 
ATOM     20  C   UNL     1       1.633   8.371  19.033  0.00  0.00    +0.000 A 
ATOM     21  C   UNL     1       1.159   9.128  20.097  0.00  0.00    +0.000 A 
ATOM     22  C   UNL     1       1.138   8.143  21.137  0.00  0.00    +0.000 A 
ATOM     23  N   UNL     1       1.572   6.910  20.791  0.00  0.00    +0.000 NA
BRANCH  21  24
ATOM     24  C   UNL     1       0.827  10.586  20.268  0.00  0.00    +0.000 A 
ATOM     25  N   UNL     1       1.452  11.346  19.310  0.00  0.00    +0.000 NA
ATOM     26  C   UNL     1       0.723  12.271  18.653  0.00  0.00    +0.000 A 
ATOM     27  N   UNL     1      -0.584  12.537  18.800  0.00  0.00    +0.000 NA
ATOM     28  C   UNL     1      -1.020  12.057  19.963  0.00  0.00    +0.000 A 
ATOM     29  N   UNL     1      -2.094  12.611  20.615  0.00  0.00    +0.000 N 
ATOM     30  C   UNL     1      -1.679  12.790  21.913  0.00  0.00    +0.000 A 
ATOM     31  C   UNL     1      -0.584  11.945  22.077  0.00  0.00    +0.000 A 
ATOM     32  C   UNL     1      -0.342  11.190  20.842  0.00  0.00    +0.000 A 
ATOM     33  H   UNL     1      -2.772  13.204  20.147  0.00  0.00    +0.000 HD
ENDBRANCH  21  24
ENDBRANCH   3  19
BRANCH   3  34
ATOM     34  C   UNL     1       1.738   4.853  17.773  0.00  0.00    +0.000 C 
BRANCH  34  35
ATOM     35  C   UNL     1       2.022   3.364  17.864  0.00  0.00    +0.000 C 
ATOM     36  N   UNL     1       2.257   2.127  17.940  0.00  0.00    +0.000 NA
ENDBRANCH  34  35
ENDBRANCH   3  34
TORSDOF 8
ENDMDL
MODEL 6
REMARK VINA RESULT:      -7.9      4.421      7.825
REMARK  Name = 
REMARK  9 active torsions:
REMARK  status: ('A' for Active; 'I' for Inactive)
REMARK    1  A    between atoms: C_1  and  C_2
REMARK    2  A    between atoms: C_2  and  C_3
REMARK    3  A    between atoms: C_3  and  O_4
REMARK    4  A    between atoms: O_4  and  C_5
REMARK    5  A    between atoms: C_10  and  N_11
REMARK    6  A    between atoms: C_13  and  C_14
REMARK    7  A    between atoms: C_13  and  N_17
REMARK    8  A    between atoms: C_14  and  C_15
REMARK    9  A    between atoms: C_19  and  C_20
REMARK                            x       y       z     vdW  Elec       q    Type
REMARK                         _______ _______ _______ _____ _____    ______ ____
ROOT
ATOM      1  N   UNL     1      -0.973  11.698  19.623  0.00  0.00    +0.000 NA
ATOM      2  C   UNL     1      -1.229  12.107  18.217  0.00  0.00    +0.000 C 
ATOM      3  C   UNL     1      -2.284  10.977  18.052  0.00  0.00    +0.000 C 
ATOM      4  C   UNL     1      -1.534  10.362  19.305  0.00  0.00    +0.000 C 
ENDROOT
BRANCH   1  10
ATOM      5  C   UNL     1       2.400   7.905  18.862  0.00  0.00    +0.000 C 
ATOM      6  O   UNL     1       2.951   7.733  17.779  0.00  0.00    +0.000 OA
ATOM      7  N   UNL     1       1.679   9.051  19.191  0.00  0.00    +0.000 N 
ATOM      8  C   UNL     1       1.387  10.020  18.140  0.00  0.00    +0.000 C 
ATOM      9  C   UNL     1       1.361  11.450  18.679  0.00  0.00    +0.000 C 
ATOM     10  C   UNL     1       0.473  11.651  19.933  0.00  0.00    +0.000 C 
ATOM     11  C   UNL     1       0.805  10.530  20.946  0.00  0.00    +0.000 C 
ATOM     12  C   UNL     1       0.797   9.126  20.346  0.00  0.00    +0.000 C 
BRANCH   5  13
ATOM     13  O   UNL     1       2.381   6.948  19.834  0.00  0.00    +0.000 OA
BRANCH  13  14
ATOM     14  C   UNL     1       2.973   5.716  19.400  0.00  0.00    +0.000 C 
BRANCH  14  16
ATOM     15  C   UNL     1       1.074   4.425  20.408  0.00  0.00    +0.000 C 
ATOM     16  C   UNL     1       2.028   4.537  19.242  0.00  0.00    +0.000 C 
ATOM     17  C   UNL     1       2.487   3.253  18.583  0.00  0.00    +0.000 C 
ATOM     18  C   UNL     1       1.493   4.135  17.879  0.00  0.00    +0.000 C 
ENDBRANCH  14  16
ENDBRANCH  13  14
ENDBRANCH   5  13
ENDBRANCH   1  10
BRANCH   3  19
ATOM     19  N   UNL     1      -3.659  11.442  18.534  0.00  0.00    +0.000 N 
ATOM     20  C   UNL     1      -3.959  12.292  19.657  0.00  0.00    +0.000 A 
ATOM     21  C   UNL     1      -5.334  12.319  19.853  0.00  0.00    +0.000 A 
ATOM     22  C   UNL     1      -5.775  11.486  18.773  0.00  0.00    +0.000 A 
ATOM     23  N   UNL     1      -4.799  10.966  17.995  0.00  0.00    +0.000 NA
BRANCH  21  24
ATOM     24  C   UNL     1      -6.221  12.920  20.911  0.00  0.00    +0.000 A 
ATOM     25  N   UNL     1      -7.401  12.225  21.013  0.00  0.00    +0.000 NA
ATOM     26  C   UNL     1      -7.834  11.879  22.243  0.00  0.00    +0.000 A 
ATOM     27  N   UNL     1      -7.229  12.114  23.417  0.00  0.00    +0.000 NA
ATOM     28  C   UNL     1      -6.330  13.086  23.283  0.00  0.00    +0.000 A 
ATOM     29  N   UNL     1      -5.968  13.885  24.339  0.00  0.00    +0.000 N 
ATOM     30  C   UNL     1      -6.050  15.173  23.866  0.00  0.00    +0.000 A 
ATOM     31  C   UNL     1      -6.010  15.067  22.478  0.00  0.00    +0.000 A 
ATOM     32  C   UNL     1      -5.859  13.660  22.086  0.00  0.00    +0.000 A 
ATOM     33  H   UNL     1      -6.132  13.622  25.306  0.00  0.00    +0.000 HD
ENDBRANCH  21  24
ENDBRANCH   3  19
BRANCH   3  34
ATOM     34  C   UNL     1      -2.112   9.983  16.749  0.00  0.00    +0.000 C 
BRANCH  34  35
ATOM     35  C   UNL     1      -2.804  10.335  15.444  0.00  0.00    +0.000 C 
ATOM     36  N   UNL     1      -3.378  10.627  14.359  0.00  0.00    +0.000 NA
ENDBRANCH  34  35
ENDBRANCH   3  34
TORSDOF 8
ENDMDL
MODEL 7
REMARK VINA RESULT:      -7.9      0.688      1.136
REMARK  Name = 
REMARK  9 active torsions:
REMARK  status: ('A' for Active; 'I' for Inactive)
REMARK    1  A    between atoms: C_1  and  C_2
REMARK    2  A    between atoms: C_2  and  C_3
REMARK    3  A    between atoms: C_3  and  O_4
REMARK    4  A    between atoms: O_4  and  C_5
REMARK    5  A    between atoms: C_10  and  N_11
REMARK    6  A    between atoms: C_13  and  C_14
REMARK    7  A    between atoms: C_13  and  N_17
REMARK    8  A    between atoms: C_14  and  C_15
REMARK    9  A    between atoms: C_19  and  C_20
REMARK                            x       y       z     vdW  Elec       q    Type
REMARK                         _______ _______ _______ _____ _____    ______ ____
ROOT
ATOM      1  N   UNL     1       4.236   5.896  18.553  0.00  0.00    +0.000 NA
ATOM      2  C   UNL     1       2.879   5.420  18.177  0.00  0.00    +0.000 C 
ATOM      3  C   UNL     1       2.259   6.126  19.416  0.00  0.00    +0.000 C 
ATOM      4  C   UNL     1       3.753   6.083  19.943  0.00  0.00    +0.000 C 
ENDROOT
BRANCH   1  10
ATOM      5  C   UNL     1       6.841   4.293  14.431  0.00  0.00    +0.000 C 
ATOM      6  O   UNL     1       7.860   4.858  14.046  0.00  0.00    +0.000 OA
ATOM      7  N   UNL     1       6.246   4.528  15.669  0.00  0.00    +0.000 N 
ATOM      8  C   UNL     1       6.730   5.641  16.478  0.00  0.00    +0.000 C 
ATOM      9  C   UNL     1       6.635   5.337  17.974  0.00  0.00    +0.000 C 
ATOM     10  C   UNL     1       5.250   4.824  18.442  0.00  0.00    +0.000 C 
ATOM     11  C   UNL     1       4.796   3.706  17.473  0.00  0.00    +0.000 C 
ATOM     12  C   UNL     1       4.900   4.081  15.997  0.00  0.00    +0.000 C 
BRANCH   5  13
ATOM     13  O   UNL     1       6.146   3.421  13.646  0.00  0.00    +0.000 OA
BRANCH  13  14
ATOM     14  C   UNL     1       5.587   4.055  12.487  0.00  0.00    +0.000 C 
BRANCH  14  16
ATOM     15  C   UNL     1       5.604   1.855  11.282  0.00  0.00    +0.000 C 
ATOM     16  C   UNL     1       4.854   3.146  11.515  0.00  0.00    +0.000 C 
ATOM     17  C   UNL     1       4.064   3.719  10.356  0.00  0.00    +0.000 C 
ATOM     18  C   UNL     1       3.338   3.068  11.501  0.00  0.00    +0.000 C 
ENDBRANCH  14  16
ENDBRANCH  13  14
ENDBRANCH   5  13
ENDBRANCH   1  10
BRANCH   3  19
ATOM     19  N   UNL     1       1.934   7.587  19.103  0.00  0.00    +0.000 N 
ATOM     20  C   UNL     1       1.562   8.626  20.027  0.00  0.00    +0.000 A 
ATOM     21  C   UNL     1       1.178   9.754  19.314  0.00  0.00    +0.000 A 
ATOM     22  C   UNL     1       1.392   9.307  17.970  0.00  0.00    +0.000 A 
ATOM     23  N   UNL     1       1.834   8.036  17.835  0.00  0.00    +0.000 NA
BRANCH  21  24
ATOM     24  C   UNL     1       0.591  11.083  19.710  0.00  0.00    +0.000 A 
ATOM     25  N   UNL     1       1.401  12.116  19.306  0.00  0.00    +0.000 NA
ATOM     26  C   UNL     1       0.832  13.164  18.677  0.00  0.00    +0.000 A 
ATOM     27  N   UNL     1      -0.462  13.324  18.361  0.00  0.00    +0.000 NA
ATOM     28  C   UNL     1      -1.216  12.505  19.093  0.00  0.00    +0.000 A 
ATOM     29  N   UNL     1      -2.523  12.800  19.388  0.00  0.00    +0.000 N 
ATOM     30  C   UNL     1      -2.644  12.603  20.743  0.00  0.00    +0.000 A 
ATOM     31  C   UNL     1      -1.571  11.791  21.102  0.00  0.00    +0.000 A 
ATOM     32  C   UNL     1      -0.783  11.445  19.912  0.00  0.00    +0.000 A 
ATOM     33  H   UNL     1      -3.065  13.478  18.861  0.00  0.00    +0.000 HD
ENDBRANCH  21  24
ENDBRANCH   3  19
BRANCH   3  34
ATOM     34  C   UNL     1       1.293   5.210  20.387  0.00  0.00    +0.000 C 
BRANCH  34  35
ATOM     35  C   UNL     1       1.902   4.075  21.191  0.00  0.00    +0.000 C 
ATOM     36  N   UNL     1       2.408   3.131  21.858  0.00  0.00    +0.000 NA
ENDBRANCH  34  35
ENDBRANCH   3  34
TORSDOF 8
ENDMDL
MODEL 8
REMARK VINA RESULT:      -7.9      5.144     11.175
REMARK  Name = 
REMARK  9 active torsions:
REMARK  status: ('A' for Active; 'I' for Inactive)
REMARK    1  A    between atoms: C_1  and  C_2
REMARK    2  A    between atoms: C_2  and  C_3
REMARK    3  A    between atoms: C_3  and  O_4
REMARK    4  A    between atoms: O_4  and  C_5
REMARK    5  A    between atoms: C_10  and  N_11
REMARK    6  A    between atoms: C_13  and  C_14
REMARK    7  A    between atoms: C_13  and  N_17
REMARK    8  A    between atoms: C_14  and  C_15
REMARK    9  A    between atoms: C_19  and  C_20
REMARK                            x       y       z     vdW  Elec       q    Type
REMARK                         _______ _______ _______ _____ _____    ______ ____
ROOT
ATOM      1  N   UNL     1       0.541  11.302  20.718  0.00  0.00    +0.000 NA
ATOM      2  C   UNL     1      -0.551  10.377  20.317  0.00  0.00    +0.000 C 
ATOM      3  C   UNL     1       0.189  10.034  18.994  0.00  0.00    +0.000 C 
ATOM      4  C   UNL     1       0.947  11.393  19.294  0.00  0.00    +0.000 C 
ENDROOT
BRANCH   1  10
ATOM      5  C   UNL     1      -4.303  12.683  21.703  0.00  0.00    +0.000 C 
ATOM      6  O   UNL     1      -4.861  12.390  22.756  0.00  0.00    +0.000 OA
ATOM      7  N   UNL     1      -2.932  12.555  21.491  0.00  0.00    +0.000 N 
ATOM      8  C   UNL     1      -2.133  11.851  22.489  0.00  0.00    +0.000 C 
ATOM      9  C   UNL     1      -0.722  12.431  22.597  0.00  0.00    +0.000 C 
ATOM     10  C   UNL     1       0.018  12.582  21.245  0.00  0.00    +0.000 C 
ATOM     11  C   UNL     1      -0.941  13.264  20.241  0.00  0.00    +0.000 C 
ATOM     12  C   UNL     1      -2.326  12.626  20.170  0.00  0.00    +0.000 C 
BRANCH   5  13
ATOM     13  O   UNL     1      -4.990  13.104  20.603  0.00  0.00    +0.000 OA
BRANCH  13  14
ATOM     14  C   UNL     1      -6.219  12.388  20.419  0.00  0.00    +0.000 C 
BRANCH  14  16
ATOM     15  C   UNL     1      -6.671  10.290  19.121  0.00  0.00    +0.000 C 
ATOM     16  C   UNL     1      -6.442  11.781  19.044  0.00  0.00    +0.000 C 
ATOM     17  C   UNL     1      -5.716  12.320  17.828  0.00  0.00    +0.000 C 
ATOM     18  C   UNL     1      -7.198  12.535  17.964  0.00  0.00    +0.000 C 
ENDBRANCH  14  16
ENDBRANCH  13  14
ENDBRANCH   5  13
ENDBRANCH   1  10
BRANCH   3  19
ATOM     19  N   UNL     1       1.193   8.901  19.211  0.00  0.00    +0.000 N 
ATOM     20  C   UNL     1       2.028   8.262  18.228  0.00  0.00    +0.000 A 
ATOM     21  C   UNL     1       2.655   7.166  18.806  0.00  0.00    +0.000 A 
ATOM     22  C   UNL     1       2.164   7.253  20.149  0.00  0.00    +0.000 A 
ATOM     23  N   UNL     1       1.304   8.267  20.396  0.00  0.00    +0.000 NA
BRANCH  21  24
ATOM     24  C   UNL     1       3.533   6.067  18.267  0.00  0.00    +0.000 A 
ATOM     25  N   UNL     1       4.708   6.578  17.772  0.00  0.00    +0.000 NA
ATOM     26  C   UNL     1       5.863   5.981  18.129  0.00  0.00    +0.000 A 
ATOM     27  N   UNL     1       6.022   4.933  18.951  0.00  0.00    +0.000 NA
ATOM     28  C   UNL     1       4.872   4.275  19.080  0.00  0.00    +0.000 A 
ATOM     29  N   UNL     1       4.837   2.936  19.383  0.00  0.00    +0.000 N 
ATOM     30  C   UNL     1       3.973   2.379  18.471  0.00  0.00    +0.000 A 
ATOM     31  C   UNL     1       3.210   3.436  17.982  0.00  0.00    +0.000 A 
ATOM     32  C   UNL     1       3.596   4.685  18.649  0.00  0.00    +0.000 A 
ATOM     33  H   UNL     1       5.626   2.446  19.793  0.00  0.00    +0.000 HD
ENDBRANCH  21  24
ENDBRANCH   3  19
BRANCH   3  34
ATOM     34  C   UNL     1      -0.679  10.169  17.600  0.00  0.00    +0.000 C 
BRANCH  34  35
ATOM     35  C   UNL     1      -2.163   9.843  17.608  0.00  0.00    +0.000 C 
ATOM     36  N   UNL     1      -3.395   9.573  17.615  0.00  0.00    +0.000 NA
ENDBRANCH  34  35
ENDBRANCH   3  34
TORSDOF 8
ENDMDL
MODEL 9
REMARK VINA RESULT:      -7.8      1.318      2.158
REMARK  Name = 
REMARK  9 active torsions:
REMARK  status: ('A' for Active; 'I' for Inactive)
REMARK    1  A    between atoms: C_1  and  C_2
REMARK    2  A    between atoms: C_2  and  C_3
REMARK    3  A    between atoms: C_3  and  O_4
REMARK    4  A    between atoms: O_4  and  C_5
REMARK    5  A    between atoms: C_10  and  N_11
REMARK    6  A    between atoms: C_13  and  C_14
REMARK    7  A    between atoms: C_13  and  N_17
REMARK    8  A    between atoms: C_14  and  C_15
REMARK    9  A    between atoms: C_19  and  C_20
REMARK                            x       y       z     vdW  Elec       q    Type
REMARK                         _______ _______ _______ _____ _____    ______ ____
ROOT
ATOM      1  N   UNL     1       4.606   6.018  18.868  0.00  0.00    +0.000 NA
ATOM      2  C   UNL     1       3.582   5.752  17.824  0.00  0.00    +0.000 C 
ATOM      3  C   UNL     1       2.463   5.688  18.901  0.00  0.00    +0.000 C 
ATOM      4  C   UNL     1       3.685   5.438  19.877  0.00  0.00    +0.000 C 
ENDROOT
BRANCH   1  10
ATOM      5  C   UNL     1       6.996   4.733  14.512  0.00  0.00    +0.000 C 
ATOM      6  O   UNL     1       7.798   5.483  13.964  0.00  0.00    +0.000 OA
ATOM      7  N   UNL     1       6.517   4.922  15.807  0.00  0.00    +0.000 N 
ATOM      8  C   UNL     1       6.818   6.177  16.487  0.00  0.00    +0.000 C 
ATOM      9  C   UNL     1       6.980   5.979  17.995  0.00  0.00    +0.000 C 
ATOM     10  C   UNL     1       5.824   5.201  18.671  0.00  0.00    +0.000 C 
ATOM     11  C   UNL     1       5.534   3.936  17.829  0.00  0.00    +0.000 C 
ATOM     12  C   UNL     1       5.366   4.206  16.336  0.00  0.00    +0.000 C 
BRANCH   5  13
ATOM     13  O   UNL     1       6.438   3.665  13.872  0.00  0.00    +0.000 OA
BRANCH  13  14
ATOM     14  C   UNL     1       6.604   3.733  12.448  0.00  0.00    +0.000 C 
BRANCH  14  16
ATOM     15  C   UNL     1       4.445   3.061  11.363  0.00  0.00    +0.000 C 
ATOM     16  C   UNL     1       5.878   2.672  11.639  0.00  0.00    +0.000 C 
ATOM     17  C   UNL     1       6.183   1.200  11.833  0.00  0.00    +0.000 C 
ATOM     18  C   UNL     1       6.594   1.883  10.556  0.00  0.00    +0.000 C 
ENDBRANCH  14  16
ENDBRANCH  13  14
ENDBRANCH   5  13
ENDBRANCH   1  10
BRANCH   3  19
ATOM     19  N   UNL     1       1.921   7.085  19.206  0.00  0.00    +0.000 N 
ATOM     20  C   UNL     1       1.629   8.141  18.272  0.00  0.00    +0.000 A 
ATOM     21  C   UNL     1       1.330   9.301  18.975  0.00  0.00    +0.000 A 
ATOM     22  C   UNL     1       1.431   8.830  20.324  0.00  0.00    +0.000 A 
ATOM     23  N   UNL     1       1.779   7.531  20.470  0.00  0.00    +0.000 NA
BRANCH  21  24
ATOM     24  C   UNL     1       1.065  10.726  18.565  0.00  0.00    +0.000 A 
ATOM     25  N   UNL     1      -0.276  10.933  18.356  0.00  0.00    +0.000 NA
ATOM     26  C   UNL     1      -0.847  12.023  18.908  0.00  0.00    +0.000 A 
ATOM     27  N   UNL     1      -0.261  12.949  19.681  0.00  0.00    +0.000 NA
ATOM     28  C   UNL     1       1.061  12.902  19.529  0.00  0.00    +0.000 A 
ATOM     29  N   UNL     1       1.851  14.005  19.737  0.00  0.00    +0.000 N 
ATOM     30  C   UNL     1       2.666  14.082  18.634  0.00  0.00    +0.000 A 
ATOM     31  C   UNL     1       2.645  12.813  18.062  0.00  0.00    +0.000 A 
ATOM     32  C   UNL     1       1.813  11.912  18.868  0.00  0.00    +0.000 A 
ATOM     33  H   UNL     1       1.538  14.810  20.271  0.00  0.00    +0.000 HD
ENDBRANCH  21  24
ENDBRANCH   3  19
BRANCH   3  34
ATOM     34  C   UNL     1       1.482   4.363  18.876  0.00  0.00    +0.000 C 
BRANCH  34  35
ATOM     35  C   UNL     1       1.909   3.131  18.097  0.00  0.00    +0.000 C 
ATOM     36  N   UNL     1       2.263   2.108  17.451  0.00  0.00    +0.000 NA
ENDBRANCH  34  35
ENDBRANCH   3  34
TORSDOF 8
ENDMDL
