MODEL 1
REMARK VINA RESULT:      -8.2      0.000      0.000
REMARK  Name = 
REMARK  6 active torsions:
REMARK  status: ('A' for Active; 'I' for Inactive)
REMARK    1  A    between atoms: C_1  and  C_2
REMARK    2  A    between atoms: C_2  and  C_3
REMARK    3  A    between atoms: C_2  and  C_4
REMARK    4  A    between atoms: N_6  and  C_7
REMARK    5  A    between atoms: N_14  and  C_15
REMARK    6  A    between atoms: C_15  and  C_16
REMARK                            x       y       z     vdW  Elec       q    Type
REMARK                         _______ _______ _______ _____ _____    ______ ____
ROOT
ATOM      1  C   UNL     1       1.477   8.850  19.509  0.00  0.00    +0.000 A 
ATOM      2  C   UNL     1       2.025   9.028  18.245  0.00  0.00    +0.000 A 
ATOM      3  C   UNL     1       2.813   8.032  17.682  0.00  0.00    +0.000 A 
ATOM      4  C   UNL     1       2.998   6.843  18.375  0.00  0.00    +0.000 A 
ATOM      5  N   UNL     1       3.714   5.831  17.741  0.00  0.00    +0.000 N 
ATOM      6  C   UNL     1       3.416   4.432  17.887  0.00  0.00    +0.000 C 
ATOM      7  C   UNL     1       4.396   3.789  16.905  0.00  0.00    +0.000 C 
ATOM      8  N   UNL     1       5.473   4.750  16.860  0.00  0.00    +0.000 N 
ATOM      9  C   UNL     1       5.006   6.011  17.229  0.00  0.00    +0.000 C 
ATOM     10  O   UNL     1       5.639   7.055  17.140  0.00  0.00    +0.000 OA
ATOM     11  N   UNL     1       2.463   6.623  19.596  0.00  0.00    +0.000 NA
ATOM     12  C   UNL     1       1.778   7.654  20.159  0.00  0.00    +0.000 A 
ENDROOT
BRANCH   1  15
ATOM     13  C   UNL     1       0.757  10.197  21.457  0.00  0.00    +0.000 C 
ATOM     14  O   UNL     1       1.645   9.825  22.218  0.00  0.00    +0.000 OA
ATOM     15  N   UNL     1       0.646   9.813  20.124  0.00  0.00    +0.000 N 
ATOM     16  H   UNL     1       0.065  10.382  19.524  0.00  0.00    +0.000 HD
BRANCH  13  18
ATOM     17  C   UNL     1      -1.248  11.543  20.764  0.00  0.00    +0.000 C 
ATOM     18  C   UNL     1      -0.305  11.191  21.911  0.00  0.00    +0.000 C 
ATOM     19  C   UNL     1      -1.100  10.597  23.079  0.00  0.00    +0.000 C 
ENDBRANCH  13  18
ENDBRANCH   1  15
BRANCH   8  20
ATOM     20  C   UNL     1       6.774   4.495  16.285  0.00  0.00    +0.000 C 
BRANCH  20  21
ATOM     21  C   UNL     1       6.759   4.465  14.774  0.00  0.00    +0.000 A 
ATOM     22  C   UNL     1       7.640   5.268  14.038  0.00  0.00    +0.000 A 
ATOM     23  C   UNL     1       7.696   5.176  12.645  0.00  0.00    +0.000 A 
ATOM     24  C   UNL     1       6.868   4.280  11.969  0.00  0.00    +0.000 A 
ATOM     25  C   UNL     1       5.974   3.487  12.687  0.00  0.00    +0.000 A 
ATOM     26  C   UNL     1       5.918   3.579  14.080  0.00  0.00    +0.000 A 
ENDBRANCH  20  21
ENDBRANCH   8  20
TORSDOF 4
ENDMDL
MODEL 2
REMARK VINA RESULT:      -7.9      1.258      1.574
REMARK  Name = 
REMARK  6 active torsions:
REMARK  status: ('A' for Active; 'I' for Inactive)
REMARK    1  A    between atoms: C_1  and  C_2
REMARK    2  A    between atoms: C_2  and  C_3
REMARK    3  A    between atoms: C_2  and  C_4
REMARK    4  A    between atoms: N_6  and  C_7
REMARK    5  A    between atoms: N_14  and  C_15
REMARK    6  A    between atoms: C_15  and  C_16
REMARK                            x       y       z     vdW  Elec       q    Type
REMARK                         _______ _______ _______ _____ _____    ______ ____
ROOT
ATOM      1  C   UNL     1       1.375   9.311  19.168  0.00  0.00    +0.000 A 
ATOM      2  C   UNL     1       1.959   9.355  17.909  0.00  0.00    +0.000 A 
ATOM      3  C   UNL     1       2.725   8.287  17.461  0.00  0.00    +0.000 A 
ATOM      4  C   UNL     1       2.854   7.162  18.263  0.00  0.00    +0.000 A 
ATOM      5  N   UNL     1       3.551   6.074  17.744  0.00  0.00    +0.000 N 
ATOM      6  C   UNL     1       3.202   4.704  18.009  0.00  0.00    +0.000 C 
ATOM      7  C   UNL     1       4.183   3.943  17.116  0.00  0.00    +0.000 C 
ATOM      8  N   UNL     1       5.293   4.861  17.013  0.00  0.00    +0.000 N 
ATOM      9  C   UNL     1       4.859   6.166  17.253  0.00  0.00    +0.000 C 
ATOM     10  O   UNL     1       5.529   7.176  17.086  0.00  0.00    +0.000 OA
ATOM     11  N   UNL     1       2.283   7.072  19.485  0.00  0.00    +0.000 NA
ATOM     12  C   UNL     1       1.620   8.172  19.933  0.00  0.00    +0.000 A 
ENDROOT
BRANCH   1  15
ATOM     13  C   UNL     1      -0.704  10.657  19.178  0.00  0.00    +0.000 C 
ATOM     14  O   UNL     1      -1.298   9.999  18.330  0.00  0.00    +0.000 OA
ATOM     15  N   UNL     1       0.562  10.353  19.671  0.00  0.00    +0.000 N 
ATOM     16  H   UNL     1       0.835  10.777  20.546  0.00  0.00    +0.000 HD
BRANCH  13  18
ATOM     17  C   UNL     1      -1.151  11.858  21.340  0.00  0.00    +0.000 C 
ATOM     18  C   UNL     1      -1.349  11.876  19.827  0.00  0.00    +0.000 C 
ATOM     19  C   UNL     1      -0.747  13.154  19.235  0.00  0.00    +0.000 C 
ENDBRANCH  13  18
ENDBRANCH   1  15
BRANCH   8  20
ATOM     20  C   UNL     1       6.598   4.514  16.499  0.00  0.00    +0.000 C 
BRANCH  20  21
ATOM     21  C   UNL     1       6.651   4.482  14.989  0.00  0.00    +0.000 A 
ATOM     22  C   UNL     1       7.612   5.228  14.295  0.00  0.00    +0.000 A 
ATOM     23  C   UNL     1       7.727   5.130  12.906  0.00  0.00    +0.000 A 
ATOM     24  C   UNL     1       6.878   4.285  12.192  0.00  0.00    +0.000 A 
ATOM     25  C   UNL     1       5.905   3.550  12.867  0.00  0.00    +0.000 A 
ATOM     26  C   UNL     1       5.789   3.648  14.256  0.00  0.00    +0.000 A 
ENDBRANCH  20  21
ENDBRANCH   8  20
TORSDOF 4
ENDMDL
MODEL 3
REMARK VINA RESULT:      -7.9      4.125      6.088
REMARK  Name = 
REMARK  6 active torsions:
REMARK  status: ('A' for Active; 'I' for Inactive)
REMARK    1  A    between atoms: C_1  and  C_2
REMARK    2  A    between atoms: C_2  and  C_3
REMARK    3  A    between atoms: C_2  and  C_4
REMARK    4  A    between atoms: N_6  and  C_7
REMARK    5  A    between atoms: N_14  and  C_15
REMARK    6  A    between atoms: C_15  and  C_16
REMARK                            x       y       z     vdW  Elec       q    Type
REMARK                         _______ _______ _______ _____ _____    ______ ____
ROOT
ATOM      1  C   UNL     1      -1.753  12.315  20.465  0.00  0.00    +0.000 A 
ATOM      2  C   UNL     1      -0.596  12.090  21.199  0.00  0.00    +0.000 A 
ATOM      3  C   UNL     1       0.305  11.113  20.794  0.00  0.00    +0.000 A 
ATOM      4  C   UNL     1       0.058  10.408  19.624  0.00  0.00    +0.000 A 
ATOM      5  N   UNL     1       1.027   9.503  19.198  0.00  0.00    +0.000 N 
ATOM      6  C   UNL     1       1.341   9.263  17.815  0.00  0.00    +0.000 C 
ATOM      7  C   UNL     1       2.528   8.305  17.915  0.00  0.00    +0.000 C 
ATOM      8  N   UNL     1       2.304   7.656  19.186  0.00  0.00    +0.000 N 
ATOM      9  C   UNL     1       1.512   8.465  20.003  0.00  0.00    +0.000 C 
ATOM     10  O   UNL     1       1.280   8.262  21.187  0.00  0.00    +0.000 OA
ATOM     11  N   UNL     1      -1.046  10.613  18.872  0.00  0.00    +0.000 NA
ATOM     12  C   UNL     1      -1.953  11.508  19.346  0.00  0.00    +0.000 A 
ENDROOT
BRANCH   1  15
ATOM     13  C   UNL     1      -3.664  13.157  21.796  0.00  0.00    +0.000 C 
ATOM     14  O   UNL     1      -3.749  12.188  22.544  0.00  0.00    +0.000 OA
ATOM     15  N   UNL     1      -2.694  13.311  20.810  0.00  0.00    +0.000 N 
ATOM     16  H   UNL     1      -2.540  14.244  20.453  0.00  0.00    +0.000 HD
BRANCH  13  18
ATOM     17  C   UNL     1      -5.351  14.596  20.614  0.00  0.00    +0.000 C 
ATOM     18  C   UNL     1      -4.616  14.339  21.927  0.00  0.00    +0.000 C 
ATOM     19  C   UNL     1      -5.626  14.066  23.047  0.00  0.00    +0.000 C 
ENDBRANCH  13  18
ENDBRANCH   1  15
BRANCH   8  20
ATOM     20  C   UNL     1       2.994   6.468  19.631  0.00  0.00    +0.000 C 
BRANCH  20  21
ATOM     21  C   UNL     1       2.169   5.211  19.476  0.00  0.00    +0.000 A 
ATOM     22  C   UNL     1       2.019   4.608  18.220  0.00  0.00    +0.000 A 
ATOM     23  C   UNL     1       1.338   3.396  18.086  0.00  0.00    +0.000 A 
ATOM     24  C   UNL     1       0.794   2.772  19.208  0.00  0.00    +0.000 A 
ATOM     25  C   UNL     1       0.919   3.368  20.461  0.00  0.00    +0.000 A 
ATOM     26  C   UNL     1       1.601   4.580  20.596  0.00  0.00    +0.000 A 
ENDBRANCH  20  21
ENDBRANCH   8  20
TORSDOF 4
ENDMDL
MODEL 4
REMARK VINA RESULT:      -7.9      2.150      3.787
REMARK  Name = 
REMARK  6 active torsions:
REMARK  status: ('A' for Active; 'I' for Inactive)
REMARK    1  A    between atoms: C_1  and  C_2
REMARK    2  A    between atoms: C_2  and  C_3
REMARK    3  A    between atoms: C_2  and  C_4
REMARK    4  A    between atoms: N_6  and  C_7
REMARK    5  A    between atoms: N_14  and  C_15
REMARK    6  A    between atoms: C_15  and  C_16
REMARK                            x       y       z     vdW  Elec       q    Type
REMARK                         _______ _______ _______ _____ _____    ______ ____
ROOT
ATOM      1  C   UNL     1      -0.361  10.378  21.643  0.00  0.00    +0.000 A 
ATOM      2  C   UNL     1       0.601   9.580  22.249  0.00  0.00    +0.000 A 
ATOM      3  C   UNL     1       1.386   8.732  21.479  0.00  0.00    +0.000 A 
ATOM      4  C   UNL     1       1.232   8.733  20.099  0.00  0.00    +0.000 A 
ATOM      5  N   UNL     1       2.099   7.940  19.352  0.00  0.00    +0.000 N 
ATOM      6  C   UNL     1       2.602   8.312  18.056  0.00  0.00    +0.000 C 
ATOM      7  C   UNL     1       3.581   7.178  17.753  0.00  0.00    +0.000 C 
ATOM      8  N   UNL     1       3.040   6.080  18.519  0.00  0.00    +0.000 N 
ATOM      9  C   UNL     1       2.263   6.566  19.571  0.00  0.00    +0.000 C 
ATOM     10  O   UNL     1       1.801   5.891  20.481  0.00  0.00    +0.000 OA
ATOM     11  N   UNL     1       0.322   9.510  19.471  0.00  0.00    +0.000 NA
ATOM     12  C   UNL     1      -0.494  10.257  20.260  0.00  0.00    +0.000 A 
ENDROOT
BRANCH   1  15
ATOM     13  C   UNL     1      -0.835  12.610  22.604  0.00  0.00    +0.000 C 
ATOM     14  O   UNL     1       0.146  13.175  22.130  0.00  0.00    +0.000 OA
ATOM     15  N   UNL     1      -1.172  11.281  22.367  0.00  0.00    +0.000 N 
ATOM     16  H   UNL     1      -2.122  11.000  22.564  0.00  0.00    +0.000 HD
BRANCH  13  18
ATOM     17  C   UNL     1      -2.084  14.764  22.938  0.00  0.00    +0.000 C 
ATOM     18  C   UNL     1      -1.831  13.360  23.480  0.00  0.00    +0.000 C 
ATOM     19  C   UNL     1      -3.147  12.579  23.548  0.00  0.00    +0.000 C 
ENDBRANCH  13  18
ENDBRANCH   1  15
BRANCH   8  20
ATOM     20  C   UNL     1       3.440   4.700  18.367  0.00  0.00    +0.000 C 
BRANCH  20  21
ATOM     21  C   UNL     1       4.774   4.543  17.675  0.00  0.00    +0.000 A 
ATOM     22  C   UNL     1       4.836   4.228  16.312  0.00  0.00    +0.000 A 
ATOM     23  C   UNL     1       6.064   4.175  15.646  0.00  0.00    +0.000 A 
ATOM     24  C   UNL     1       7.247   4.433  16.338  0.00  0.00    +0.000 A 
ATOM     25  C   UNL     1       7.202   4.731  17.698  0.00  0.00    +0.000 A 
ATOM     26  C   UNL     1       5.975   4.784  18.365  0.00  0.00    +0.000 A 
ENDBRANCH  20  21
ENDBRANCH   8  20
TORSDOF 4
ENDMDL
MODEL 5
REMARK VINA RESULT:      -7.8      1.752      2.329
REMARK  Name = 
REMARK  6 active torsions:
REMARK  status: ('A' for Active; 'I' for Inactive)
REMARK    1  A    between atoms: C_1  and  C_2
REMARK    2  A    between atoms: C_2  and  C_3
REMARK    3  A    between atoms: C_2  and  C_4
REMARK    4  A    between atoms: N_6  and  C_7
REMARK    5  A    between atoms: N_14  and  C_15
REMARK    6  A    between atoms: C_15  and  C_16
REMARK                            x       y       z     vdW  Elec       q    Type
REMARK                         _______ _______ _______ _____ _____    ______ ____
ROOT
ATOM      1  C   UNL     1       0.861   9.630  19.095  0.00  0.00    +0.000 A 
ATOM      2  C   UNL     1       1.378   9.261  17.860  0.00  0.00    +0.000 A 
ATOM      3  C   UNL     1       2.205   8.150  17.756  0.00  0.00    +0.000 A 
ATOM      4  C   UNL     1       2.461   7.388  18.888  0.00  0.00    +0.000 A 
ATOM      5  N   UNL     1       3.216   6.229  18.729  0.00  0.00    +0.000 N 
ATOM      6  C   UNL     1       2.990   5.022  19.478  0.00  0.00    +0.000 C 
ATOM      7  C   UNL     1       3.985   4.054  18.837  0.00  0.00    +0.000 C 
ATOM      8  N   UNL     1       5.012   4.939  18.340  0.00  0.00    +0.000 N 
ATOM      9  C   UNL     1       4.488   6.217  18.143  0.00  0.00    +0.000 C 
ATOM     10  O   UNL     1       5.067   7.141  17.587  0.00  0.00    +0.000 OA
ATOM     11  N   UNL     1       1.959   7.701  20.103  0.00  0.00    +0.000 NA
ATOM     12  C   UNL     1       1.232   8.847  20.188  0.00  0.00    +0.000 A 
ENDROOT
BRANCH   1  15
ATOM     13  C   UNL     1      -1.318  10.767  18.798  0.00  0.00    +0.000 C 
ATOM     14  O   UNL     1      -1.901   9.816  18.286  0.00  0.00    +0.000 OA
ATOM     15  N   UNL     1      -0.006  10.732  19.262  0.00  0.00    +0.000 N 
ATOM     16  H   UNL     1       0.277  11.457  19.907  0.00  0.00    +0.000 HD
BRANCH  13  18
ATOM     17  C   UNL     1      -3.534  11.951  18.838  0.00  0.00    +0.000 C 
ATOM     18  C   UNL     1      -2.026  12.097  19.025  0.00  0.00    +0.000 C 
ATOM     19  C   UNL     1      -1.722  12.607  20.438  0.00  0.00    +0.000 C 
ENDBRANCH  13  18
ENDBRANCH   1  15
BRANCH   8  20
ATOM     20  C   UNL     1       6.314   4.509  17.885  0.00  0.00    +0.000 C 
BRANCH  20  21
ATOM     21  C   UNL     1       6.411   4.401  16.381  0.00  0.00    +0.000 A 
ATOM     22  C   UNL     1       5.495   3.621  15.663  0.00  0.00    +0.000 A 
ATOM     23  C   UNL     1       5.521   3.593  14.266  0.00  0.00    +0.000 A 
ATOM     24  C   UNL     1       6.466   4.345  13.569  0.00  0.00    +0.000 A 
ATOM     25  C   UNL     1       7.395   5.112  14.270  0.00  0.00    +0.000 A 
ATOM     26  C   UNL     1       7.369   5.140  15.667  0.00  0.00    +0.000 A 
ENDBRANCH  20  21
ENDBRANCH   8  20
TORSDOF 4
ENDMDL
MODEL 6
REMARK VINA RESULT:      -7.7      3.906      5.808
REMARK  Name = 
REMARK  6 active torsions:
REMARK  status: ('A' for Active; 'I' for Inactive)
REMARK    1  A    between atoms: C_1  and  C_2
REMARK    2  A    between atoms: C_2  and  C_3
REMARK    3  A    between atoms: C_2  and  C_4
REMARK    4  A    between atoms: N_6  and  C_7
REMARK    5  A    between atoms: N_14  and  C_15
REMARK    6  A    between atoms: C_15  and  C_16
REMARK                            x       y       z     vdW  Elec       q    Type
REMARK                         _______ _______ _______ _____ _____    ______ ____
ROOT
ATOM      1  C   UNL     1      -1.398  11.970  20.696  0.00  0.00    +0.000 A 
ATOM      2  C   UNL     1      -0.209  11.718  21.369  0.00  0.00    +0.000 A 
ATOM      3  C   UNL     1       0.671  10.757  20.889  0.00  0.00    +0.000 A 
ATOM      4  C   UNL     1       0.373  10.096  19.704  0.00  0.00    +0.000 A 
ATOM      5  N   UNL     1       1.321   9.209  19.204  0.00  0.00    +0.000 N 
ATOM      6  C   UNL     1       1.573   9.021  17.800  0.00  0.00    +0.000 C 
ATOM      7  C   UNL     1       2.762   8.060  17.812  0.00  0.00    +0.000 C 
ATOM      8  N   UNL     1       2.593   7.364  19.066  0.00  0.00    +0.000 N 
ATOM      9  C   UNL     1       1.840   8.141  19.947  0.00  0.00    +0.000 C 
ATOM     10  O   UNL     1       1.659   7.894  21.132  0.00  0.00    +0.000 OA
ATOM     11  N   UNL     1      -0.763  10.329  19.010  0.00  0.00    +0.000 NA
ATOM     12  C   UNL     1      -1.647  11.206  19.557  0.00  0.00    +0.000 A 
ENDROOT
BRANCH   1  15
ATOM     13  C   UNL     1      -3.164  12.806  22.216  0.00  0.00    +0.000 C 
ATOM     14  O   UNL     1      -3.131  11.861  22.998  0.00  0.00    +0.000 OA
ATOM     15  N   UNL     1      -2.321  12.953  21.118  0.00  0.00    +0.000 N 
ATOM     16  H   UNL     1      -2.238  13.876  20.717  0.00  0.00    +0.000 HD
BRANCH  13  18
ATOM     17  C   UNL     1      -3.753  14.776  23.660  0.00  0.00    +0.000 C 
ATOM     18  C   UNL     1      -4.129  13.967  22.422  0.00  0.00    +0.000 C 
ATOM     19  C   UNL     1      -4.120  14.870  21.184  0.00  0.00    +0.000 C 
ENDBRANCH  13  18
ENDBRANCH   1  15
BRANCH   8  20
ATOM     20  C   UNL     1       3.301   6.160  19.436  0.00  0.00    +0.000 C 
BRANCH  20  21
ATOM     21  C   UNL     1       2.441   4.919  19.353  0.00  0.00    +0.000 A 
ATOM     22  C   UNL     1       1.667   4.515  20.448  0.00  0.00    +0.000 A 
ATOM     23  C   UNL     1       0.799   3.425  20.346  0.00  0.00    +0.000 A 
ATOM     24  C   UNL     1       0.697   2.722  19.146  0.00  0.00    +0.000 A 
ATOM     25  C   UNL     1       1.475   3.101  18.053  0.00  0.00    +0.000 A 
ATOM     26  C   UNL     1       2.343   4.191  18.154  0.00  0.00    +0.000 A 
ENDBRANCH  20  21
ENDBRANCH   8  20
TORSDOF 4
ENDMDL
MODEL 7
REMARK VINA RESULT:      -7.7      1.191      1.302
REMARK  Name = 
REMARK  6 active torsions:
REMARK  status: ('A' for Active; 'I' for Inactive)
REMARK    1  A    between atoms: C_1  and  C_2
REMARK    2  A    between atoms: C_2  and  C_3
REMARK    3  A    between atoms: C_2  and  C_4
REMARK    4  A    between atoms: N_6  and  C_7
REMARK    5  A    between atoms: N_14  and  C_15
REMARK    6  A    between atoms: C_15  and  C_16
REMARK                            x       y       z     vdW  Elec       q    Type
REMARK                         _______ _______ _______ _____ _____    ______ ____
ROOT
ATOM      1  C   UNL     1       1.430   9.088  19.150  0.00  0.00    +0.000 A 
ATOM      2  C   UNL     1       1.936   9.095  17.857  0.00  0.00    +0.000 A 
ATOM      3  C   UNL     1       2.736   8.048  17.417  0.00  0.00    +0.000 A 
ATOM      4  C   UNL     1       2.976   6.977  18.267  0.00  0.00    +0.000 A 
ATOM      5  N   UNL     1       3.704   5.903  17.762  0.00  0.00    +0.000 N 
ATOM      6  C   UNL     1       3.452   4.532  18.118  0.00  0.00    +0.000 C 
ATOM      7  C   UNL     1       4.422   3.779  17.207  0.00  0.00    +0.000 C 
ATOM      8  N   UNL     1       5.468   4.750  16.988  0.00  0.00    +0.000 N 
ATOM      9  C   UNL     1       4.974   6.039  17.188  0.00  0.00    +0.000 C 
ATOM     10  O   UNL     1       5.573   7.074  16.928  0.00  0.00    +0.000 OA
ATOM     11  N   UNL     1       2.485   6.923  19.524  0.00  0.00    +0.000 NA
ATOM     12  C   UNL     1       1.785   8.007  19.955  0.00  0.00    +0.000 A 
ENDROOT
BRANCH   1  15
ATOM     13  C   UNL     1       0.905  11.464  19.609  0.00  0.00    +0.000 C 
ATOM     14  O   UNL     1       1.893  11.933  19.052  0.00  0.00    +0.000 OA
ATOM     15  N   UNL     1       0.589  10.109  19.647  0.00  0.00    +0.000 N 
ATOM     16  H   UNL     1      -0.364   9.861  19.874  0.00  0.00    +0.000 HD
BRANCH  13  18
ATOM     17  C   UNL     1      -0.125  13.755  19.653  0.00  0.00    +0.000 C 
ATOM     18  C   UNL     1      -0.123  12.365  20.282  0.00  0.00    +0.000 C 
ATOM     19  C   UNL     1      -1.516  11.735  20.163  0.00  0.00    +0.000 C 
ENDBRANCH  13  18
ENDBRANCH   1  15
BRANCH   8  20
ATOM     20  C   UNL     1       6.759   4.447  16.414  0.00  0.00    +0.000 C 
BRANCH  20  21
ATOM     21  C   UNL     1       6.748   4.440  14.902  0.00  0.00    +0.000 A 
ATOM     22  C   UNL     1       7.651   5.231  14.181  0.00  0.00    +0.000 A 
ATOM     23  C   UNL     1       7.709   5.157  12.786  0.00  0.00    +0.000 A 
ATOM     24  C   UNL     1       6.860   4.292  12.096  0.00  0.00    +0.000 A 
ATOM     25  C   UNL     1       5.945   3.513  12.799  0.00  0.00    +0.000 A 
ATOM     26  C   UNL     1       5.886   3.585  14.194  0.00  0.00    +0.000 A 
ENDBRANCH  20  21
ENDBRANCH   8  20
TORSDOF 4
ENDMDL
MODEL 8
REMARK VINA RESULT:      -7.6      2.868      3.931
REMARK  Name = 
REMARK  6 active torsions:
REMARK  status: ('A' for Active; 'I' for Inactive)
REMARK    1  A    between atoms: C_1  and  C_2
REMARK    2  A    between atoms: C_2  and  C_3
REMARK    3  A    between atoms: C_2  and  C_4
REMARK    4  A    between atoms: N_6  and  C_7
REMARK    5  A    between atoms: N_14  and  C_15
REMARK    6  A    between atoms: C_15  and  C_16
REMARK                            x       y       z     vdW  Elec       q    Type
REMARK                         _______ _______ _______ _____ _____    ______ ____
ROOT
ATOM      1  C   UNL     1      -0.061  10.533  21.513  0.00  0.00    +0.000 A 
ATOM      2  C   UNL     1      -0.166  10.307  20.147  0.00  0.00    +0.000 A 
ATOM      3  C   UNL     1       0.502   9.236  19.566  0.00  0.00    +0.000 A 
ATOM      4  C   UNL     1       1.228   8.372  20.375  0.00  0.00    +0.000 A 
ATOM      5  N   UNL     1       1.807   7.258  19.774  0.00  0.00    +0.000 N 
ATOM      6  C   UNL     1       1.921   5.975  20.415  0.00  0.00    +0.000 C 
ATOM      7  C   UNL     1       2.498   5.106  19.297  0.00  0.00    +0.000 C 
ATOM      8  N   UNL     1       3.206   6.067  18.484  0.00  0.00    +0.000 N 
ATOM      9  C   UNL     1       2.675   7.342  18.678  0.00  0.00    +0.000 C 
ATOM     10  O   UNL     1       2.957   8.334  18.019  0.00  0.00    +0.000 OA
ATOM     11  N   UNL     1       1.336   8.546  21.711  0.00  0.00    +0.000 NA
ATOM     12  C   UNL     1       0.749   9.656  22.233  0.00  0.00    +0.000 A 
ENDROOT
BRANCH   1  15
ATOM     13  C   UNL     1      -0.248  12.888  22.256  0.00  0.00    +0.000 C 
ATOM     14  O   UNL     1       0.767  13.290  21.696  0.00  0.00    +0.000 OA
ATOM     15  N   UNL     1      -0.737  11.588  22.167  0.00  0.00    +0.000 N 
ATOM     16  H   UNL     1      -1.703  11.437  22.422  0.00  0.00    +0.000 HD
BRANCH  13  18
ATOM     17  C   UNL     1      -0.649  15.272  22.939  0.00  0.00    +0.000 C 
ATOM     18  C   UNL     1      -1.118  13.827  23.083  0.00  0.00    +0.000 C 
ATOM     19  C   UNL     1      -2.578  13.704  22.635  0.00  0.00    +0.000 C 
ENDBRANCH  13  18
ENDBRANCH   1  15
BRANCH   8  20
ATOM     20  C   UNL     1       4.153   5.723  17.448  0.00  0.00    +0.000 C 
BRANCH  20  21
ATOM     21  C   UNL     1       5.582   6.047  17.821  0.00  0.00    +0.000 A 
ATOM     22  C   UNL     1       6.276   7.066  17.157  0.00  0.00    +0.000 A 
ATOM     23  C   UNL     1       7.563   7.434  17.560  0.00  0.00    +0.000 A 
ATOM     24  C   UNL     1       8.173   6.783  18.631  0.00  0.00    +0.000 A 
ATOM     25  C   UNL     1       7.501   5.755  19.290  0.00  0.00    +0.000 A 
ATOM     26  C   UNL     1       6.214   5.387  18.888  0.00  0.00    +0.000 A 
ENDBRANCH  20  21
ENDBRANCH   8  20
TORSDOF 4
ENDMDL
MODEL 9
REMARK VINA RESULT:      -7.6      4.492      7.263
REMARK  Name = 
REMARK  6 active torsions:
REMARK  status: ('A' for Active; 'I' for Inactive)
REMARK    1  A    between atoms: C_1  and  C_2
REMARK    2  A    between atoms: C_2  and  C_3
REMARK    3  A    between atoms: C_2  and  C_4
REMARK    4  A    between atoms: N_6  and  C_7
REMARK    5  A    between atoms: N_14  and  C_15
REMARK    6  A    between atoms: C_15  and  C_16
REMARK                            x       y       z     vdW  Elec       q    Type
REMARK                         _______ _______ _______ _____ _____    ______ ____
ROOT
ATOM      1  C   UNL     1       8.220   8.933  18.068  0.00  0.00    +0.000 A 
ATOM      2  C   UNL     1       8.650   7.720  18.589  0.00  0.00    +0.000 A 
ATOM      3  C   UNL     1       7.910   6.566  18.365  0.00  0.00    +0.000 A 
ATOM      4  C   UNL     1       6.772   6.634  17.573  0.00  0.00    +0.000 A 
ATOM      5  N   UNL     1       6.108   5.443  17.292  0.00  0.00    +0.000 N 
ATOM      6  C   UNL     1       5.463   5.167  16.036  0.00  0.00    +0.000 C 
ATOM      7  C   UNL     1       5.018   3.715  16.215  0.00  0.00    +0.000 C 
ATOM      8  N   UNL     1       4.871   3.604  17.647  0.00  0.00    +0.000 N 
ATOM      9  C   UNL     1       5.653   4.566  18.285  0.00  0.00    +0.000 C 
ATOM     10  O   UNL     1       5.860   4.625  19.490  0.00  0.00    +0.000 OA
ATOM     11  N   UNL     1       6.334   7.791  17.030  0.00  0.00    +0.000 NA
ATOM     12  C   UNL     1       7.027   8.918  17.347  0.00  0.00    +0.000 A 
ENDROOT
BRANCH   1  15
ATOM     13  C   UNL     1       9.242  10.694  19.477  0.00  0.00    +0.000 C 
ATOM     14  O   UNL     1       9.008  10.160  20.556  0.00  0.00    +0.000 OA
ATOM     15  N   UNL     1       8.941  10.136  18.237  0.00  0.00    +0.000 N 
ATOM     16  H   UNL     1       9.419  10.513  17.431  0.00  0.00    +0.000 HD
BRANCH  13  18
ATOM     17  C   UNL     1      11.312  11.975  20.098  0.00  0.00    +0.000 C 
ATOM     18  C   UNL     1       9.956  12.038  19.400  0.00  0.00    +0.000 C 
ATOM     19  C   UNL     1      10.141  12.440  17.933  0.00  0.00    +0.000 C 
ENDBRANCH  13  18
ENDBRANCH   1  15
BRANCH   8  20
ATOM     20  C   UNL     1       4.208   2.509  18.319  0.00  0.00    +0.000 C 
BRANCH  20  21
ATOM     21  C   UNL     1       3.090   2.963  19.229  0.00  0.00    +0.000 A 
ATOM     22  C   UNL     1       3.107   2.641  20.592  0.00  0.00    +0.000 A 
ATOM     23  C   UNL     1       2.127   3.137  21.456  0.00  0.00    +0.000 A 
ATOM     24  C   UNL     1       1.114   3.961  20.965  0.00  0.00    +0.000 A 
ATOM     25  C   UNL     1       1.075   4.276  19.608  0.00  0.00    +0.000 A 
ATOM     26  C   UNL     1       2.055   3.780  18.744  0.00  0.00    +0.000 A 
ENDBRANCH  20  21
ENDBRANCH   8  20
TORSDOF 4
ENDMDL
