MODEL 1
REMARK VINA RESULT:      -7.0      0.000      0.000
REMARK  Name = 
REMARK  7 active torsions:
REMARK  status: ('A' for Active; 'I' for Inactive)
REMARK    1  A    between atoms: N_1  and  CA_2
REMARK    2  A    between atoms: CA_2  and  C_3
REMARK    3  A    between atoms: CA_2  and  C_6
REMARK    4  A    between atoms: C_3  and  OXT_5
REMARK    5  A    between atoms: C_7  and  C_8
REMARK    6  A    between atoms: C_8  and  O_10
REMARK    7  A    between atoms: C_11  and  C_12
REMARK                            x       y       z     vdW  Elec       q    Type
REMARK                         _______ _______ _______ _____ _____    ______ ____
ROOT
ATOM      1  C   UNL     1       5.779   6.015  17.413  0.00  0.00    +0.000 C 
ATOM      2  C   UNL     1       6.492   5.115  18.406  0.00  0.00    +0.000 C 
ATOM      3  C   UNL     1       5.028   5.467  18.615  0.00  0.00    +0.000 C 
ENDROOT
BRANCH   3   4
ATOM      4  C   UNL     1       3.950   4.406  18.521  0.00  0.00    +0.000 A 
ATOM      5  C   UNL     1       4.153   3.078  18.937  0.00  0.00    +0.000 A 
ATOM      6  C   UNL     1       3.115   2.140  18.929  0.00  0.00    +0.000 A 
ATOM      7  C   UNL     1       1.842   2.513  18.513  0.00  0.00    +0.000 A 
ATOM      8  C   UNL     1       1.611   3.819  18.090  0.00  0.00    +0.000 A 
ATOM      9  C   UNL     1       2.656   4.750  18.090  0.00  0.00    +0.000 A 
ENDBRANCH   3   4
BRANCH   2  10
ATOM     10  C   UNL     1       7.482   5.695  19.357  0.00  0.00    +0.000 C 
ATOM     11  O   UNL     1       7.705   5.213  20.454  0.00  0.00    +0.000 OA
BRANCH  10  12
ATOM     12  O   UNL     1       8.160   6.756  18.861  0.00  0.00    +0.000 OA
ATOM     13  H   UNL     1       8.830   6.522  18.196  0.00  0.00    +0.000 HD
ENDBRANCH  10  12
ENDBRANCH   2  10
BRANCH   1  14
ATOM     14  CA  UNL     1       5.506   5.563  16.004  0.00  0.00    +0.000 C 
BRANCH  14  15
ATOM     15  N   UNL     1       5.267   6.773  15.194  0.00  0.00    +0.000 NA
ATOM     16  H1  UNL     1       5.961   7.490  15.394  0.00  0.00    +0.000 HD
ATOM     17  H2  UNL     1       4.377   7.186  15.489  0.00  0.00    +0.000 HD
ENDBRANCH  14  15
BRANCH  14  18
ATOM     18  C   UNL     1       6.658   4.752  15.377  0.00  0.00    +0.000 C 
ATOM     19  O   UNL     1       7.671   5.221  14.882  0.00  0.00    +0.000 OA
BRANCH  18  20
ATOM     20  OXT UNL     1       6.417   3.413  15.399  0.00  0.00    +0.000 OA
ATOM     21  HXT UNL     1       7.002   2.907  14.801  0.00  0.00    +0.000 HD
ENDBRANCH  18  20
ENDBRANCH  14  18
ENDBRANCH   1  14
TORSDOF 7
ENDMDL
MODEL 2
REMARK VINA RESULT:      -6.9      0.109      1.169
REMARK  Name = 
REMARK  7 active torsions:
REMARK  status: ('A' for Active; 'I' for Inactive)
REMARK    1  A    between atoms: N_1  and  CA_2
REMARK    2  A    between atoms: CA_2  and  C_3
REMARK    3  A    between atoms: CA_2  and  C_6
REMARK    4  A    between atoms: C_3  and  OXT_5
REMARK    5  A    between atoms: C_7  and  C_8
REMARK    6  A    between atoms: C_8  and  O_10
REMARK    7  A    between atoms: C_11  and  C_12
REMARK                            x       y       z     vdW  Elec       q    Type
REMARK                         _______ _______ _______ _____ _____    ______ ____
ROOT
ATOM      1  C   UNL     1       5.808   6.035  17.445  0.00  0.00    +0.000 C 
ATOM      2  C   UNL     1       6.508   5.130  18.441  0.00  0.00    +0.000 C 
ATOM      3  C   UNL     1       5.054   5.517  18.659  0.00  0.00    +0.000 C 
ENDROOT
BRANCH   3   4
ATOM      4  C   UNL     1       3.951   4.481  18.585  0.00  0.00    +0.000 A 
ATOM      5  C   UNL     1       2.655   4.783  18.130  0.00  0.00    +0.000 A 
ATOM      6  C   UNL     1       1.681   3.791  17.980  0.00  0.00    +0.000 A 
ATOM      7  C   UNL     1       1.983   2.466  18.273  0.00  0.00    +0.000 A 
ATOM      8  C   UNL     1       3.256   2.137  18.731  0.00  0.00    +0.000 A 
ATOM      9  C   UNL     1       4.224   3.136  18.889  0.00  0.00    +0.000 A 
ENDBRANCH   3   4
BRANCH   2  10
ATOM     10  C   UNL     1       7.519   5.696  19.377  0.00  0.00    +0.000 C 
ATOM     11  O   UNL     1       7.766   5.200  20.462  0.00  0.00    +0.000 OA
BRANCH  10  12
ATOM     12  O   UNL     1       8.186   6.763  18.881  0.00  0.00    +0.000 OA
ATOM     13  H   UNL     1       7.741   7.197  18.132  0.00  0.00    +0.000 HD
ENDBRANCH  10  12
ENDBRANCH   2  10
BRANCH   1  14
ATOM     14  CA  UNL     1       5.512   5.575  16.043  0.00  0.00    +0.000 C 
BRANCH  14  15
ATOM     15  N   UNL     1       5.268   6.780  15.227  0.00  0.00    +0.000 NA
ATOM     16  H1  UNL     1       4.271   6.946  15.110  0.00  0.00    +0.000 HD
ATOM     17  H2  UNL     1       5.613   6.602  14.280  0.00  0.00    +0.000 HD
ENDBRANCH  14  15
BRANCH  14  18
ATOM     18  C   UNL     1       6.650   4.752  15.406  0.00  0.00    +0.000 C 
ATOM     19  O   UNL     1       7.651   5.212  14.879  0.00  0.00    +0.000 OA
BRANCH  18  20
ATOM     20  OXT UNL     1       6.411   3.414  15.459  0.00  0.00    +0.000 OA
ATOM     21  HXT UNL     1       5.473   3.197  15.621  0.00  0.00    +0.000 HD
ENDBRANCH  18  20
ENDBRANCH  14  18
ENDBRANCH   1  14
TORSDOF 7
ENDMDL
MODEL 3
REMARK VINA RESULT:      -6.8      1.717      3.691
REMARK  Name = 
REMARK  7 active torsions:
REMARK  status: ('A' for Active; 'I' for Inactive)
REMARK    1  A    between atoms: N_1  and  CA_2
REMARK    2  A    between atoms: CA_2  and  C_3
REMARK    3  A    between atoms: CA_2  and  C_6
REMARK    4  A    between atoms: C_3  and  OXT_5
REMARK    5  A    between atoms: C_7  and  C_8
REMARK    6  A    between atoms: C_8  and  O_10
REMARK    7  A    between atoms: C_11  and  C_12
REMARK                            x       y       z     vdW  Elec       q    Type
REMARK                         _______ _______ _______ _____ _____    ______ ____
ROOT
ATOM      1  C   UNL     1       6.734   4.884  16.967  0.00  0.00    +0.000 C 
ATOM      2  C   UNL     1       6.039   5.135  15.641  0.00  0.00    +0.000 C 
ATOM      3  C   UNL     1       5.566   4.008  16.545  0.00  0.00    +0.000 C 
ENDROOT
BRANCH   3   4
ATOM      4  C   UNL     1       4.200   4.055  17.200  0.00  0.00    +0.000 A 
ATOM      5  C   UNL     1       3.548   5.262  17.510  0.00  0.00    +0.000 A 
ATOM      6  C   UNL     1       2.249   5.282  18.027  0.00  0.00    +0.000 A 
ATOM      7  C   UNL     1       1.563   4.091  18.237  0.00  0.00    +0.000 A 
ATOM      8  C   UNL     1       2.184   2.880  17.945  0.00  0.00    +0.000 A 
ATOM      9  C   UNL     1       3.489   2.866  17.438  0.00  0.00    +0.000 A 
ENDBRANCH   3   4
BRANCH   2  10
ATOM     10  C   UNL     1       6.712   4.758  14.367  0.00  0.00    +0.000 C 
ATOM     11  O   UNL     1       6.243   3.947  13.587  0.00  0.00    +0.000 OA
BRANCH  10  12
ATOM     12  O   UNL     1       7.848   5.451  14.122  0.00  0.00    +0.000 OA
ATOM     13  H   UNL     1       8.210   5.907  14.901  0.00  0.00    +0.000 HD
ENDBRANCH  10  12
ENDBRANCH   2  10
BRANCH   1  14
ATOM     14  CA  UNL     1       6.646   5.874  18.096  0.00  0.00    +0.000 C 
BRANCH  14  15
ATOM     15  N   UNL     1       6.916   5.139  19.347  0.00  0.00    +0.000 NA
ATOM     16  H1  UNL     1       6.536   4.196  19.305  0.00  0.00    +0.000 HD
ATOM     17  H2  UNL     1       6.396   5.593  20.104  0.00  0.00    +0.000 HD
ENDBRANCH  14  15
BRANCH  14  18
ATOM     18  C   UNL     1       7.638   7.048  17.972  0.00  0.00    +0.000 C 
ATOM     19  O   UNL     1       7.702   7.830  17.036  0.00  0.00    +0.000 OA
BRANCH  18  20
ATOM     20  OXT UNL     1       8.491   7.116  19.030  0.00  0.00    +0.000 OA
ATOM     21  HXT UNL     1       8.112   7.580  19.801  0.00  0.00    +0.000 HD
ENDBRANCH  18  20
ENDBRANCH  14  18
ENDBRANCH   1  14
TORSDOF 7
ENDMDL
MODEL 4
REMARK VINA RESULT:      -6.8      0.279      1.129
REMARK  Name = 
REMARK  7 active torsions:
REMARK  status: ('A' for Active; 'I' for Inactive)
REMARK    1  A    between atoms: N_1  and  CA_2
REMARK    2  A    between atoms: CA_2  and  C_3
REMARK    3  A    between atoms: CA_2  and  C_6
REMARK    4  A    between atoms: C_3  and  OXT_5
REMARK    5  A    between atoms: C_7  and  C_8
REMARK    6  A    between atoms: C_8  and  O_10
REMARK    7  A    between atoms: C_11  and  C_12
REMARK                            x       y       z     vdW  Elec       q    Type
REMARK                         _______ _______ _______ _____ _____    ______ ____
ROOT
ATOM      1  C   UNL     1       5.748   6.164  17.315  0.00  0.00    +0.000 C 
ATOM      2  C   UNL     1       6.598   5.306  18.233  0.00  0.00    +0.000 C 
ATOM      3  C   UNL     1       5.139   5.564  18.572  0.00  0.00    +0.000 C 
ENDROOT
BRANCH   3   4
ATOM      4  C   UNL     1       4.124   4.438  18.559  0.00  0.00    +0.000 A 
ATOM      5  C   UNL     1       4.344   3.211  19.210  0.00  0.00    +0.000 A 
ATOM      6  C   UNL     1       3.355   2.223  19.265  0.00  0.00    +0.000 A 
ATOM      7  C   UNL     1       2.115   2.444  18.676  0.00  0.00    +0.000 A 
ATOM      8  C   UNL     1       1.870   3.647  18.020  0.00  0.00    +0.000 A 
ATOM      9  C   UNL     1       2.867   4.627  17.959  0.00  0.00    +0.000 A 
ENDBRANCH   3   4
BRANCH   2  10
ATOM     10  C   UNL     1       7.629   5.941  19.101  0.00  0.00    +0.000 C 
ATOM     11  O   UNL     1       8.240   6.944  18.776  0.00  0.00    +0.000 OA
BRANCH  10  12
ATOM     12  O   UNL     1       7.767   5.348  20.310  0.00  0.00    +0.000 OA
ATOM     13  H   UNL     1       7.781   5.971  21.058  0.00  0.00    +0.000 HD
ENDBRANCH  10  12
ENDBRANCH   2  10
BRANCH   1  14
ATOM     14  CA  UNL     1       5.382   5.704  15.930  0.00  0.00    +0.000 C 
BRANCH  14  15
ATOM     15  N   UNL     1       5.204   6.911  15.100  0.00  0.00    +0.000 NA
ATOM     16  H1  UNL     1       5.993   7.546  15.204  0.00  0.00    +0.000 HD
ATOM     17  H2  UNL     1       4.402   7.435  15.463  0.00  0.00    +0.000 HD
ENDBRANCH  14  15
BRANCH  14  18
ATOM     18  C   UNL     1       6.441   4.791  15.279  0.00  0.00    +0.000 C 
ATOM     19  O   UNL     1       6.336   3.586  15.116  0.00  0.00    +0.000 OA
BRANCH  18  20
ATOM     20  OXT UNL     1       7.559   5.475  14.916  0.00  0.00    +0.000 OA
ATOM     21  HXT UNL     1       8.384   4.979  15.083  0.00  0.00    +0.000 HD
ENDBRANCH  18  20
ENDBRANCH  14  18
ENDBRANCH   1  14
TORSDOF 7
ENDMDL
MODEL 5
REMARK VINA RESULT:      -6.7      0.500      1.636
REMARK  Name = 
REMARK  7 active torsions:
REMARK  status: ('A' for Active; 'I' for Inactive)
REMARK    1  A    between atoms: N_1  and  CA_2
REMARK    2  A    between atoms: CA_2  and  C_3
REMARK    3  A    between atoms: CA_2  and  C_6
REMARK    4  A    between atoms: C_3  and  OXT_5
REMARK    5  A    between atoms: C_7  and  C_8
REMARK    6  A    between atoms: C_8  and  O_10
REMARK    7  A    between atoms: C_11  and  C_12
REMARK                            x       y       z     vdW  Elec       q    Type
REMARK                         _______ _______ _______ _____ _____    ______ ____
ROOT
ATOM      1  C   UNL     1       5.759   6.161  17.346  0.00  0.00    +0.000 C 
ATOM      2  C   UNL     1       6.666   5.320  18.226  0.00  0.00    +0.000 C 
ATOM      3  C   UNL     1       5.204   5.504  18.599  0.00  0.00    +0.000 C 
ENDROOT
BRANCH   3   4
ATOM      4  C   UNL     1       4.240   4.335  18.578  0.00  0.00    +0.000 A 
ATOM      5  C   UNL     1       3.138   4.274  17.707  0.00  0.00    +0.000 A 
ATOM      6  C   UNL     1       2.318   3.144  17.639  0.00  0.00    +0.000 A 
ATOM      7  C   UNL     1       2.588   2.037  18.437  0.00  0.00    +0.000 A 
ATOM      8  C   UNL     1       3.668   2.069  19.314  0.00  0.00    +0.000 A 
ATOM      9  C   UNL     1       4.479   3.208  19.385  0.00  0.00    +0.000 A 
ENDBRANCH   3   4
BRANCH   2  10
ATOM     10  C   UNL     1       7.684   5.981  19.089  0.00  0.00    +0.000 C 
ATOM     11  O   UNL     1       8.287   6.984  18.750  0.00  0.00    +0.000 OA
BRANCH  10  12
ATOM     12  O   UNL     1       7.822   5.410  20.308  0.00  0.00    +0.000 OA
ATOM     13  H   UNL     1       8.180   6.007  20.988  0.00  0.00    +0.000 HD
ENDBRANCH  10  12
ENDBRANCH   2  10
BRANCH   1  14
ATOM     14  CA  UNL     1       5.387   5.717  15.957  0.00  0.00    +0.000 C 
BRANCH  14  15
ATOM     15  N   UNL     1       5.222   6.933  15.137  0.00  0.00    +0.000 NA
ATOM     16  H1  UNL     1       5.560   6.783  14.189  0.00  0.00    +0.000 HD
ATOM     17  H2  UNL     1       5.834   7.661  15.517  0.00  0.00    +0.000 HD
ENDBRANCH  14  15
BRANCH  14  18
ATOM     18  C   UNL     1       6.433   4.797  15.296  0.00  0.00    +0.000 C 
ATOM     19  O   UNL     1       6.320   3.591  15.138  0.00  0.00    +0.000 OA
BRANCH  18  20
ATOM     20  OXT UNL     1       7.550   5.474  14.919  0.00  0.00    +0.000 OA
ATOM     21  HXT UNL     1       7.990   5.086  14.137  0.00  0.00    +0.000 HD
ENDBRANCH  18  20
ENDBRANCH  14  18
ENDBRANCH   1  14
TORSDOF 7
ENDMDL
MODEL 6
REMARK VINA RESULT:      -6.7      1.719      3.576
REMARK  Name = 
REMARK  7 active torsions:
REMARK  status: ('A' for Active; 'I' for Inactive)
REMARK    1  A    between atoms: N_1  and  CA_2
REMARK    2  A    between atoms: CA_2  and  C_3
REMARK    3  A    between atoms: CA_2  and  C_6
REMARK    4  A    between atoms: C_3  and  OXT_5
REMARK    5  A    between atoms: C_7  and  C_8
REMARK    6  A    between atoms: C_8  and  O_10
REMARK    7  A    between atoms: C_11  and  C_12
REMARK                            x       y       z     vdW  Elec       q    Type
REMARK                         _______ _______ _______ _____ _____    ______ ____
ROOT
ATOM      1  C   UNL     1       6.690   4.880  16.944  0.00  0.00    +0.000 C 
ATOM      2  C   UNL     1       6.030   5.149  15.604  0.00  0.00    +0.000 C 
ATOM      3  C   UNL     1       5.516   4.028  16.493  0.00  0.00    +0.000 C 
ENDROOT
BRANCH   3   4
ATOM      4  C   UNL     1       4.137   4.098  17.117  0.00  0.00    +0.000 A 
ATOM      5  C   UNL     1       3.399   2.951  17.460  0.00  0.00    +0.000 A 
ATOM      6  C   UNL     1       2.170   3.039  18.121  0.00  0.00    +0.000 A 
ATOM      7  C   UNL     1       1.653   4.282  18.468  0.00  0.00    +0.000 A 
ATOM      8  C   UNL     1       2.357   5.436  18.137  0.00  0.00    +0.000 A 
ATOM      9  C   UNL     1       3.581   5.342  17.465  0.00  0.00    +0.000 A 
ENDBRANCH   3   4
BRANCH   2  10
ATOM     10  C   UNL     1       6.724   4.765  14.344  0.00  0.00    +0.000 C 
ATOM     11  O   UNL     1       6.256   3.971  13.547  0.00  0.00    +0.000 OA
BRANCH  10  12
ATOM     12  O   UNL     1       7.881   5.433  14.130  0.00  0.00    +0.000 OA
ATOM     13  H   UNL     1       7.775   6.260  13.629  0.00  0.00    +0.000 HD
ENDBRANCH  10  12
ENDBRANCH   2  10
BRANCH   1  14
ATOM     14  CA  UNL     1       6.595   5.868  18.075  0.00  0.00    +0.000 C 
BRANCH  14  15
ATOM     15  N   UNL     1       6.818   5.122  19.329  0.00  0.00    +0.000 NA
ATOM     16  H1  UNL     1       5.934   4.872  19.767  0.00  0.00    +0.000 HD
ATOM     17  H2  UNL     1       7.269   5.751  20.001  0.00  0.00    +0.000 HD
ENDBRANCH  14  15
BRANCH  14  18
ATOM     18  C   UNL     1       7.615   7.021  17.982  0.00  0.00    +0.000 C 
ATOM     19  O   UNL     1       7.705   7.818  17.061  0.00  0.00    +0.000 OA
BRANCH  18  20
ATOM     20  OXT UNL     1       8.459   7.050  19.048  0.00  0.00    +0.000 OA
ATOM     21  HXT UNL     1       8.040   7.392  19.862  0.00  0.00    +0.000 HD
ENDBRANCH  18  20
ENDBRANCH  14  18
ENDBRANCH   1  14
TORSDOF 7
ENDMDL
MODEL 7
REMARK VINA RESULT:      -6.5      1.612      3.530
REMARK  Name = 
REMARK  7 active torsions:
REMARK  status: ('A' for Active; 'I' for Inactive)
REMARK    1  A    between atoms: N_1  and  CA_2
REMARK    2  A    between atoms: CA_2  and  C_3
REMARK    3  A    between atoms: CA_2  and  C_6
REMARK    4  A    between atoms: C_3  and  OXT_5
REMARK    5  A    between atoms: C_7  and  C_8
REMARK    6  A    between atoms: C_8  and  O_10
REMARK    7  A    between atoms: C_11  and  C_12
REMARK                            x       y       z     vdW  Elec       q    Type
REMARK                         _______ _______ _______ _____ _____    ______ ____
ROOT
ATOM      1  C   UNL     1       6.298   4.391  17.323  0.00  0.00    +0.000 C 
ATOM      2  C   UNL     1       5.660   4.892  16.041  0.00  0.00    +0.000 C 
ATOM      3  C   UNL     1       5.173   3.600  16.676  0.00  0.00    +0.000 C 
ENDROOT
BRANCH   3   4
ATOM      4  C   UNL     1       3.778   3.493  17.258  0.00  0.00    +0.000 A 
ATOM      5  C   UNL     1       3.261   2.293  17.777  0.00  0.00    +0.000 A 
ATOM      6  C   UNL     1       2.008   2.240  18.395  0.00  0.00    +0.000 A 
ATOM      7  C   UNL     1       1.242   3.394  18.518  0.00  0.00    +0.000 A 
ATOM      8  C   UNL     1       1.724   4.597  18.009  0.00  0.00    +0.000 A 
ATOM      9  C   UNL     1       2.975   4.641  17.382  0.00  0.00    +0.000 A 
ENDBRANCH   3   4
BRANCH   2  10
ATOM     10  C   UNL     1       6.400   4.790  14.752  0.00  0.00    +0.000 C 
ATOM     11  O   UNL     1       5.917   4.292  13.751  0.00  0.00    +0.000 OA
BRANCH  10  12
ATOM     12  O   UNL     1       7.624   5.365  14.777  0.00  0.00    +0.000 OA
ATOM     13  H   UNL     1       8.145   5.225  13.967  0.00  0.00    +0.000 HD
ENDBRANCH  10  12
ENDBRANCH   2  10
BRANCH   1  14
ATOM     14  CA  UNL     1       6.133   5.133  18.621  0.00  0.00    +0.000 C 
BRANCH  14  15
ATOM     15  N   UNL     1       5.758   4.142  19.649  0.00  0.00    +0.000 NA
ATOM     16  H1  UNL     1       6.581   3.784  20.129  0.00  0.00    +0.000 HD
ATOM     17  H2  UNL     1       5.359   3.325  19.176  0.00  0.00    +0.000 HD
ENDBRANCH  14  15
BRANCH  14  18
ATOM     18  C   UNL     1       7.403   5.880  19.077  0.00  0.00    +0.000 C 
ATOM     19  O   UNL     1       8.005   6.721  18.427  0.00  0.00    +0.000 OA
BRANCH  18  20
ATOM     20  OXT UNL     1       7.826   5.477  20.305  0.00  0.00    +0.000 OA
ATOM     21  HXT UNL     1       7.309   4.729  20.664  0.00  0.00    +0.000 HD
ENDBRANCH  18  20
ENDBRANCH  14  18
ENDBRANCH   1  14
TORSDOF 7
ENDMDL
MODEL 8
REMARK VINA RESULT:      -6.5      3.591      5.350
REMARK  Name = 
REMARK  7 active torsions:
REMARK  status: ('A' for Active; 'I' for Inactive)
REMARK    1  A    between atoms: N_1  and  CA_2
REMARK    2  A    between atoms: CA_2  and  C_3
REMARK    3  A    between atoms: CA_2  and  C_6
REMARK    4  A    between atoms: C_3  and  OXT_5
REMARK    5  A    between atoms: C_7  and  C_8
REMARK    6  A    between atoms: C_8  and  O_10
REMARK    7  A    between atoms: C_11  and  C_12
REMARK                            x       y       z     vdW  Elec       q    Type
REMARK                         _______ _______ _______ _____ _____    ______ ____
ROOT
ATOM      1  C   UNL     1       3.770   4.451  19.658  0.00  0.00    +0.000 C 
ATOM      2  C   UNL     1       3.051   5.572  18.929  0.00  0.00    +0.000 C 
ATOM      3  C   UNL     1       4.570   5.514  18.924  0.00  0.00    +0.000 C 
ENDROOT
BRANCH   3   4
ATOM      4  C   UNL     1       5.337   5.254  17.643  0.00  0.00    +0.000 A 
ATOM      5  C   UNL     1       4.863   5.653  16.380  0.00  0.00    +0.000 A 
ATOM      6  C   UNL     1       5.630   5.487  15.223  0.00  0.00    +0.000 A 
ATOM      7  C   UNL     1       6.900   4.926  15.302  0.00  0.00    +0.000 A 
ATOM      8  C   UNL     1       7.394   4.516  16.537  0.00  0.00    +0.000 A 
ATOM      9  C   UNL     1       6.617   4.675  17.690  0.00  0.00    +0.000 A 
ENDBRANCH   3   4
BRANCH   2  10
ATOM     10  C   UNL     1       2.407   6.669  19.704  0.00  0.00    +0.000 C 
ATOM     11  O   UNL     1       2.206   7.777  19.238  0.00  0.00    +0.000 OA
BRANCH  10  12
ATOM     12  O   UNL     1       2.001   6.300  20.941  0.00  0.00    +0.000 OA
ATOM     13  H   UNL     1       1.988   5.338  21.083  0.00  0.00    +0.000 HD
ENDBRANCH  10  12
ENDBRANCH   2  10
BRANCH   1  14
ATOM     14  CA  UNL     1       3.678   3.026  19.185  0.00  0.00    +0.000 C 
BRANCH  14  15
ATOM     15  N   UNL     1       4.805   2.289  19.789  0.00  0.00    +0.000 NA
ATOM     16  H1  UNL     1       5.452   2.926  20.249  0.00  0.00    +0.000 HD
ATOM     17  H2  UNL     1       5.353   1.866  19.034  0.00  0.00    +0.000 HD
ENDBRANCH  14  15
BRANCH  14  18
ATOM     18  C   UNL     1       2.355   2.329  19.562  0.00  0.00    +0.000 C 
ATOM     19  O   UNL     1       1.700   2.545  20.569  0.00  0.00    +0.000 OA
BRANCH  18  20
ATOM     20  OXT UNL     1       1.988   1.391  18.648  0.00  0.00    +0.000 OA
ATOM     21  HXT UNL     1       2.714   1.134  18.047  0.00  0.00    +0.000 HD
ENDBRANCH  18  20
ENDBRANCH  14  18
ENDBRANCH   1  14
TORSDOF 7
ENDMDL
MODEL 9
REMARK VINA RESULT:      -6.5      3.485      5.126
REMARK  Name = 
REMARK  7 active torsions:
REMARK  status: ('A' for Active; 'I' for Inactive)
REMARK    1  A    between atoms: N_1  and  CA_2
REMARK    2  A    between atoms: CA_2  and  C_3
REMARK    3  A    between atoms: CA_2  and  C_6
REMARK    4  A    between atoms: C_3  and  OXT_5
REMARK    5  A    between atoms: C_7  and  C_8
REMARK    6  A    between atoms: C_8  and  O_10
REMARK    7  A    between atoms: C_11  and  C_12
REMARK                            x       y       z     vdW  Elec       q    Type
REMARK                         _______ _______ _______ _____ _____    ______ ____
ROOT
ATOM      1  C   UNL     1       3.939   4.322  19.604  0.00  0.00    +0.000 C 
ATOM      2  C   UNL     1       3.151   5.433  18.935  0.00  0.00    +0.000 C 
ATOM      3  C   UNL     1       4.670   5.474  18.934  0.00  0.00    +0.000 C 
ENDROOT
BRANCH   3   4
ATOM      4  C   UNL     1       5.454   5.335  17.644  0.00  0.00    +0.000 A 
ATOM      5  C   UNL     1       6.702   4.691  17.580  0.00  0.00    +0.000 A 
ATOM      6  C   UNL     1       7.363   4.491  16.363  0.00  0.00    +0.000 A 
ATOM      7  C   UNL     1       6.783   4.925  15.176  0.00  0.00    +0.000 A 
ATOM      8  C   UNL     1       5.551   5.572  15.208  0.00  0.00    +0.000 A 
ATOM      9  C   UNL     1       4.900   5.778  16.430  0.00  0.00    +0.000 A 
ENDBRANCH   3   4
BRANCH   2  10
ATOM     10  C   UNL     1       2.436   6.441  19.766  0.00  0.00    +0.000 C 
ATOM     11  O   UNL     1       2.182   7.565  19.368  0.00  0.00    +0.000 OA
BRANCH  10  12
ATOM     12  O   UNL     1       2.031   5.972  20.968  0.00  0.00    +0.000 OA
ATOM     13  H   UNL     1       1.084   5.750  21.009  0.00  0.00    +0.000 HD
ENDBRANCH  10  12
ENDBRANCH   2  10
BRANCH   1  14
ATOM     14  CA  UNL     1       3.941   2.922  19.052  0.00  0.00    +0.000 C 
BRANCH  14  15
ATOM     15  N   UNL     1       4.881   2.130  19.868  0.00  0.00    +0.000 NA
ATOM     16  H1  UNL     1       4.549   1.174  19.983  0.00  0.00    +0.000 HD
ATOM     17  H2  UNL     1       4.888   2.516  20.816  0.00  0.00    +0.000 HD
ENDBRANCH  14  15
BRANCH  14  18
ATOM     18  C   UNL     1       2.556   2.244  19.071  0.00  0.00    +0.000 C 
ATOM     19  O   UNL     1       1.794   2.210  20.025  0.00  0.00    +0.000 OA
BRANCH  18  20
ATOM     20  OXT UNL     1       2.263   1.638  17.890  0.00  0.00    +0.000 OA
ATOM     21  HXT UNL     1       1.364   1.843  17.564  0.00  0.00    +0.000 HD
ENDBRANCH  18  20
ENDBRANCH  14  18
ENDBRANCH   1  14
TORSDOF 7
ENDMDL
