MODEL 1
REMARK VINA RESULT:      -6.6      0.000      0.000
REMARK  Name = 
REMARK  6 active torsions:
REMARK  status: ('A' for Active; 'I' for Inactive)
REMARK    1  A    between atoms: C_1  and  C_2
REMARK    2  A    between atoms: C_2  and  C_3
REMARK    3  A    between atoms: C_2  and  N_4
REMARK    4  A    between atoms: C_5  and  C_6
REMARK    5  A    between atoms: C_6  and  N_7
REMARK    6  A    between atoms: C_16  and  C_18
REMARK                            x       y       z     vdW  Elec       q    Type
REMARK                         _______ _______ _______ _____ _____    ______ ____
ROOT
ATOM      1  N   UNL     1       5.404   3.928  17.868  0.00  0.00    +0.000 NA
ATOM      2  C   UNL     1       5.235   3.954  16.382  0.00  0.00    +0.000 C 
ATOM      3  C   UNL     1       3.752   4.281  16.150  0.00  0.00    +0.000 C 
ATOM      4  C   UNL     1       3.057   4.080  17.505  0.00  0.00    +0.000 C 
ATOM      5  C   UNL     1       2.521   5.405  18.044  0.00  0.00    +0.000 C 
ATOM      6  N   UNL     1       2.395   5.582  19.486  0.00  0.00    +0.000 N 
ATOM      7  C   UNL     1       2.059   6.839  20.059  0.00  0.00    +0.000 C 
ATOM      8  O   UNL     1       2.055   6.985  21.284  0.00  0.00    +0.000 OA
ATOM      9  C   UNL     1       3.208   4.756  20.377  0.00  0.00    +0.000 C 
ATOM     10  C   UNL     1       3.639   3.413  19.827  0.00  0.00    +0.000 C 
ATOM     11  C   UNL     1       4.117   3.432  18.381  0.00  0.00    +0.000 C 
ENDROOT
BRANCH   7  12
ATOM     12  C   UNL     1       1.865   8.013  19.202  0.00  0.00    +0.000 A 
ATOM     13  C   UNL     1       2.340   8.392  17.913  0.00  0.00    +0.000 A 
ATOM     14  C   UNL     1       1.905   9.679  17.683  0.00  0.00    +0.000 A 
ATOM     15  O   UNL     1       1.132  10.102  18.711  0.00  0.00    +0.000 OA
ATOM     16  C   UNL     1       1.093   9.087  19.609  0.00  0.00    +0.000 A 
ENDBRANCH   7  12
BRANCH   1  18
ATOM     17  C   UNL     1       7.726   4.901  18.419  0.00  0.00    +0.000 C 
ATOM     18  C   UNL     1       6.198   5.003  18.475  0.00  0.00    +0.000 C 
ATOM     19  C   UNL     1       5.740   6.417  18.093  0.00  0.00    +0.000 C 
ENDBRANCH   1  18
BRANCH   2  20
ATOM     20  C   UNL     1       6.224   4.791  15.517  0.00  0.00    +0.000 C 
BRANCH  20  21
ATOM     21  N   UNL     1       6.757   4.167  14.295  0.00  0.00    +0.000 NA
ATOM     22  C   UNL     1       5.661   3.696  13.438  0.00  0.00    +0.000 C 
ATOM     23  C   UNL     1       6.364   3.416  12.127  0.00  0.00    +0.000 C 
ATOM     24  C   UNL     1       7.406   4.519  12.035  0.00  0.00    +0.000 C 
ATOM     25  C   UNL     1       7.560   5.060  13.457  0.00  0.00    +0.000 C 
ENDBRANCH  20  21
ENDBRANCH   2  20
TORSDOF 4
ENDMDL
MODEL 2
REMARK VINA RESULT:      -6.6      6.010      9.984
REMARK  Name = 
REMARK  6 active torsions:
REMARK  status: ('A' for Active; 'I' for Inactive)
REMARK    1  A    between atoms: C_1  and  C_2
REMARK    2  A    between atoms: C_2  and  C_3
REMARK    3  A    between atoms: C_2  and  N_4
REMARK    4  A    between atoms: C_5  and  C_6
REMARK    5  A    between atoms: C_6  and  N_7
REMARK    6  A    between atoms: C_16  and  C_18
REMARK                            x       y       z     vdW  Elec       q    Type
REMARK                         _______ _______ _______ _____ _____    ______ ____
ROOT
ATOM      1  N   UNL     1       0.034  12.250  20.806  0.00  0.00    +0.000 NA
ATOM      2  C   UNL     1       0.125  10.880  21.402  0.00  0.00    +0.000 C 
ATOM      3  C   UNL     1      -0.891  10.873  22.554  0.00  0.00    +0.000 C 
ATOM      4  C   UNL     1      -1.266  12.344  22.797  0.00  0.00    +0.000 C 
ATOM      5  C   UNL     1      -2.734  12.595  22.462  0.00  0.00    +0.000 C 
ATOM      6  N   UNL     1      -3.143  13.927  22.031  0.00  0.00    +0.000 N 
ATOM      7  C   UNL     1      -4.455  14.188  21.550  0.00  0.00    +0.000 C 
ATOM      8  O   UNL     1      -4.745  15.299  21.101  0.00  0.00    +0.000 OA
ATOM      9  C   UNL     1      -2.143  14.826  21.457  0.00  0.00    +0.000 C 
ATOM     10  C   UNL     1      -0.712  14.591  21.892  0.00  0.00    +0.000 C 
ATOM     11  C   UNL     1      -0.286  13.130  21.942  0.00  0.00    +0.000 C 
ENDROOT
BRANCH   7  12
ATOM     12  C   UNL     1      -5.431  13.099  21.439  0.00  0.00    +0.000 A 
ATOM     13  C   UNL     1      -5.783  12.181  20.407  0.00  0.00    +0.000 A 
ATOM     14  C   UNL     1      -6.869  11.462  20.857  0.00  0.00    +0.000 A 
ATOM     15  O   UNL     1      -7.174  11.822  22.126  0.00  0.00    +0.000 OA
ATOM     16  C   UNL     1      -6.291  12.789  22.477  0.00  0.00    +0.000 A 
ENDBRANCH   7  12
BRANCH   1  18
ATOM     17  C   UNL     1      -2.050  12.149  19.293  0.00  0.00    +0.000 C 
ATOM     18  C   UNL     1      -0.541  12.363  19.461  0.00  0.00    +0.000 C 
ATOM     19  C   UNL     1      -0.085  13.605  18.683  0.00  0.00    +0.000 C 
ENDBRANCH   1  18
BRANCH   2  20
ATOM     20  C   UNL     1       0.049   9.636  20.468  0.00  0.00    +0.000 C 
BRANCH  20  21
ATOM     21  N   UNL     1       1.287   9.212  19.795  0.00  0.00    +0.000 NA
ATOM     22  C   UNL     1       1.550   7.789  20.053  0.00  0.00    +0.000 C 
ATOM     23  C   UNL     1       2.623   7.462  19.036  0.00  0.00    +0.000 C 
ATOM     24  C   UNL     1       2.226   8.282  17.819  0.00  0.00    +0.000 C 
ATOM     25  C   UNL     1       1.266   9.353  18.338  0.00  0.00    +0.000 C 
ENDBRANCH  20  21
ENDBRANCH   2  20
TORSDOF 4
ENDMDL
MODEL 3
REMARK VINA RESULT:      -6.2      8.123     10.938
REMARK  Name = 
REMARK  6 active torsions:
REMARK  status: ('A' for Active; 'I' for Inactive)
REMARK    1  A    between atoms: C_1  and  C_2
REMARK    2  A    between atoms: C_2  and  C_3
REMARK    3  A    between atoms: C_2  and  N_4
REMARK    4  A    between atoms: C_5  and  C_6
REMARK    5  A    between atoms: C_6  and  N_7
REMARK    6  A    between atoms: C_16  and  C_18
REMARK                            x       y       z     vdW  Elec       q    Type
REMARK                         _______ _______ _______ _____ _____    ______ ____
ROOT
ATOM      1  N   UNL     1       1.179  14.206  20.120  0.00  0.00    +0.000 NA
ATOM      2  C   UNL     1       1.191  12.793  19.625  0.00  0.00    +0.000 C 
ATOM      3  C   UNL     1       2.087  12.811  18.377  0.00  0.00    +0.000 C 
ATOM      4  C   UNL     1       2.264  14.291  18.004  0.00  0.00    +0.000 C 
ATOM      5  C   UNL     1       3.719  14.725  18.170  0.00  0.00    +0.000 C 
ATOM      6  N   UNL     1       4.009  16.123  18.470  0.00  0.00    +0.000 N 
ATOM      7  C   UNL     1       5.322  16.560  18.797  0.00  0.00    +0.000 C 
ATOM      8  O   UNL     1       5.523  17.726  19.143  0.00  0.00    +0.000 OA
ATOM      9  C   UNL     1       2.972  16.947  19.086  0.00  0.00    +0.000 C 
ATOM     10  C   UNL     1       1.543  16.526  18.816  0.00  0.00    +0.000 C 
ATOM     11  C   UNL     1       1.285  15.028  18.904  0.00  0.00    +0.000 C 
ENDROOT
BRANCH   7  12
ATOM     12  C   UNL     1       6.424  15.595  18.876  0.00  0.00    +0.000 A 
ATOM     13  C   UNL     1       7.243  14.939  17.912  0.00  0.00    +0.000 A 
ATOM     14  C   UNL     1       8.037  14.044  18.596  0.00  0.00    +0.000 A 
ATOM     15  O   UNL     1       7.819  14.148  19.927  0.00  0.00    +0.000 OA
ATOM     16  C   UNL     1       6.865  15.098  20.090  0.00  0.00    +0.000 A 
ENDBRANCH   7  12
BRANCH   1  18
ATOM     17  C   UNL     1       3.395  14.452  21.413  0.00  0.00    +0.000 C 
ATOM     18  C   UNL     1       1.862  14.481  21.388  0.00  0.00    +0.000 C 
ATOM     19  C   UNL     1       1.337  15.717  22.132  0.00  0.00    +0.000 C 
ENDBRANCH   1  18
BRANCH   2  20
ATOM     20  C   UNL     1       1.499  11.638  20.623  0.00  0.00    +0.000 C 
BRANCH  20  21
ATOM     21  N   UNL     1       0.356  10.900  21.185  0.00  0.00    +0.000 NA
ATOM     22  C   UNL     1       0.821   9.712  21.914  0.00  0.00    +0.000 C 
ATOM     23  C   UNL     1      -0.414   9.294  22.685  0.00  0.00    +0.000 C 
ATOM     24  C   UNL     1      -1.058  10.615  23.075  0.00  0.00    +0.000 C 
ATOM     25  C   UNL     1      -0.449  11.662  22.141  0.00  0.00    +0.000 C 
ENDBRANCH  20  21
ENDBRANCH   2  20
TORSDOF 4
ENDMDL
MODEL 4
REMARK VINA RESULT:      -6.2      8.495     12.203
REMARK  Name = 
REMARK  6 active torsions:
REMARK  status: ('A' for Active; 'I' for Inactive)
REMARK    1  A    between atoms: C_1  and  C_2
REMARK    2  A    between atoms: C_2  and  C_3
REMARK    3  A    between atoms: C_2  and  N_4
REMARK    4  A    between atoms: C_5  and  C_6
REMARK    5  A    between atoms: C_6  and  N_7
REMARK    6  A    between atoms: C_16  and  C_18
REMARK                            x       y       z     vdW  Elec       q    Type
REMARK                         _______ _______ _______ _____ _____    ______ ____
ROOT
ATOM      1  N   UNL     1      -1.726  14.358  22.854  0.00  0.00    +0.000 NA
ATOM      2  C   UNL     1      -1.033  13.062  22.574  0.00  0.00    +0.000 C 
ATOM      3  C   UNL     1      -2.040  11.972  22.974  0.00  0.00    +0.000 C 
ATOM      4  C   UNL     1      -3.128  12.682  23.795  0.00  0.00    +0.000 C 
ATOM      5  C   UNL     1      -4.471  12.643  23.069  0.00  0.00    +0.000 C 
ATOM      6  N   UNL     1      -5.437  13.707  23.313  0.00  0.00    +0.000 N 
ATOM      7  C   UNL     1      -6.633  13.820  22.553  0.00  0.00    +0.000 C 
ATOM      8  O   UNL     1      -7.385  14.785  22.713  0.00  0.00    +0.000 OA
ATOM      9  C   UNL     1      -4.963  14.997  23.812  0.00  0.00    +0.000 C 
ATOM     10  C   UNL     1      -3.673  14.968  24.602  0.00  0.00    +0.000 C 
ATOM     11  C   UNL     1      -2.580  14.082  24.021  0.00  0.00    +0.000 C 
ENDROOT
BRANCH   7  12
ATOM     12  C   UNL     1      -6.909  12.877  21.465  0.00  0.00    +0.000 A 
ATOM     13  C   UNL     1      -6.539  12.809  20.090  0.00  0.00    +0.000 A 
ATOM     14  C   UNL     1      -7.209  11.736  19.543  0.00  0.00    +0.000 A 
ATOM     15  O   UNL     1      -7.916  11.089  20.498  0.00  0.00    +0.000 OA
ATOM     16  C   UNL     1      -7.713  11.766  21.656  0.00  0.00    +0.000 A 
ENDBRANCH   7  12
BRANCH   1  18
ATOM     17  C   UNL     1      -3.319  14.738  20.863  0.00  0.00    +0.000 C 
ATOM     18  C   UNL     1      -2.112  15.178  21.700  0.00  0.00    +0.000 C 
ATOM     19  C   UNL     1      -2.183  16.684  21.993  0.00  0.00    +0.000 C 
ENDBRANCH   1  18
BRANCH   2  20
ATOM     20  C   UNL     1      -0.361  12.841  21.187  0.00  0.00    +0.000 C 
BRANCH  20  21
ATOM     21  N   UNL     1      -0.998  11.887  20.265  0.00  0.00    +0.000 NA
ATOM     22  C   UNL     1      -1.212  12.509  18.951  0.00  0.00    +0.000 C 
ATOM     23  C   UNL     1      -1.537  11.319  18.072  0.00  0.00    +0.000 C 
ATOM     24  C   UNL     1      -0.637  10.218  18.611  0.00  0.00    +0.000 C 
ATOM     25  C   UNL     1      -0.217  10.676  20.008  0.00  0.00    +0.000 C 
ENDBRANCH  20  21
ENDBRANCH   2  20
TORSDOF 4
ENDMDL
MODEL 5
REMARK VINA RESULT:      -6.2      7.946      9.569
REMARK  Name = 
REMARK  6 active torsions:
REMARK  status: ('A' for Active; 'I' for Inactive)
REMARK    1  A    between atoms: C_1  and  C_2
REMARK    2  A    between atoms: C_2  and  C_3
REMARK    3  A    between atoms: C_2  and  N_4
REMARK    4  A    between atoms: C_5  and  C_6
REMARK    5  A    between atoms: C_6  and  N_7
REMARK    6  A    between atoms: C_16  and  C_18
REMARK                            x       y       z     vdW  Elec       q    Type
REMARK                         _______ _______ _______ _____ _____    ______ ____
ROOT
ATOM      1  N   UNL     1      10.534  11.427  18.494  0.00  0.00    +0.000 NA
ATOM      2  C   UNL     1       9.641  10.356  19.038  0.00  0.00    +0.000 C 
ATOM      3  C   UNL     1       9.394  10.743  20.504  0.00  0.00    +0.000 C 
ATOM      4  C   UNL     1      10.437  11.820  20.839  0.00  0.00    +0.000 C 
ATOM      5  C   UNL     1       9.763  13.160  21.125  0.00  0.00    +0.000 C 
ATOM      6  N   UNL     1      10.499  14.392  20.863  0.00  0.00    +0.000 N 
ATOM      7  C   UNL     1       9.878  15.668  20.953  0.00  0.00    +0.000 C 
ATOM      8  O   UNL     1      10.496  16.686  20.630  0.00  0.00    +0.000 OA
ATOM      9  C   UNL     1      11.604  14.369  19.907  0.00  0.00    +0.000 C 
ATOM     10  C   UNL     1      12.297  13.036  19.726  0.00  0.00    +0.000 C 
ATOM     11  C   UNL     1      11.367  11.833  19.637  0.00  0.00    +0.000 C 
ENDROOT
BRANCH   7  12
ATOM     12  C   UNL     1       8.452  15.774  21.278  0.00  0.00    +0.000 A 
ATOM     13  C   UNL     1       7.703  15.734  22.490  0.00  0.00    +0.000 A 
ATOM     14  C   UNL     1       6.370  15.771  22.145  0.00  0.00    +0.000 A 
ATOM     15  O   UNL     1       6.238  15.903  20.804  0.00  0.00    +0.000 OA
ATOM     16  C   UNL     1       7.494  15.928  20.292  0.00  0.00    +0.000 A 
ENDBRANCH   7  12
BRANCH   1  18
ATOM     17  C   UNL     1       8.811  13.258  17.926  0.00  0.00    +0.000 C 
ATOM     18  C   UNL     1       9.962  12.340  17.499  0.00  0.00    +0.000 C 
ATOM     19  C   UNL     1      11.005  13.128  16.693  0.00  0.00    +0.000 C 
ENDBRANCH   1  18
BRANCH   2  20
ATOM     20  C   UNL     1       8.356   9.962  18.250  0.00  0.00    +0.000 C 
BRANCH  20  21
ATOM     21  N   UNL     1       8.227   8.563  17.812  0.00  0.00    +0.000 NA
ATOM     22  C   UNL     1       8.413   7.650  18.948  0.00  0.00    +0.000 C 
ATOM     23  C   UNL     1       7.915   6.331  18.396  0.00  0.00    +0.000 C 
ATOM     24  C   UNL     1       6.743   6.730  17.513  0.00  0.00    +0.000 C 
ATOM     25  C   UNL     1       6.923   8.223  17.239  0.00  0.00    +0.000 C 
ENDBRANCH  20  21
ENDBRANCH   2  20
TORSDOF 4
ENDMDL
MODEL 6
REMARK VINA RESULT:      -6.1      9.509     12.434
REMARK  Name = 
REMARK  6 active torsions:
REMARK  status: ('A' for Active; 'I' for Inactive)
REMARK    1  A    between atoms: C_1  and  C_2
REMARK    2  A    between atoms: C_2  and  C_3
REMARK    3  A    between atoms: C_2  and  N_4
REMARK    4  A    between atoms: C_5  and  C_6
REMARK    5  A    between atoms: C_6  and  N_7
REMARK    6  A    between atoms: C_16  and  C_18
REMARK                            x       y       z     vdW  Elec       q    Type
REMARK                         _______ _______ _______ _____ _____    ______ ____
ROOT
ATOM      1  N   UNL     1       9.244  17.023  19.771  0.00  0.00    +0.000 NA
ATOM      2  C   UNL     1       7.810  16.880  20.174  0.00  0.00    +0.000 C 
ATOM      3  C   UNL     1       7.226  15.827  19.220  0.00  0.00    +0.000 C 
ATOM      4  C   UNL     1       8.250  15.669  18.086  0.00  0.00    +0.000 C 
ATOM      5  C   UNL     1       8.865  14.271  18.096  0.00  0.00    +0.000 C 
ATOM      6  N   UNL     1      10.212  14.087  17.568  0.00  0.00    +0.000 N 
ATOM      7  C   UNL     1      10.903  12.852  17.696  0.00  0.00    +0.000 C 
ATOM      8  O   UNL     1      12.076  12.753  17.329  0.00  0.00    +0.000 OA
ATOM      9  C   UNL     1      11.115  15.235  17.513  0.00  0.00    +0.000 C 
ATOM     10  C   UNL     1      10.456  16.594  17.412  0.00  0.00    +0.000 C 
ATOM     11  C   UNL     1       9.248  16.792  18.317  0.00  0.00    +0.000 C 
ENDROOT
BRANCH   7  12
ATOM     12  C   UNL     1      10.282  11.728  18.405  0.00  0.00    +0.000 A 
ATOM     13  C   UNL     1       9.354  10.711  18.037  0.00  0.00    +0.000 A 
ATOM     14  C   UNL     1       9.055  10.002  19.180  0.00  0.00    +0.000 A 
ATOM     15  O   UNL     1       9.786  10.463  20.221  0.00  0.00    +0.000 OA
ATOM     16  C   UNL     1      10.539  11.485  19.743  0.00  0.00    +0.000 A 
ENDBRANCH   7  12
BRANCH   1  18
ATOM     17  C   UNL     1      10.457  15.015  20.838  0.00  0.00    +0.000 C 
ATOM     18  C   UNL     1      10.259  16.530  20.707  0.00  0.00    +0.000 C 
ATOM     19  C   UNL     1      11.616  17.240  20.598  0.00  0.00    +0.000 C 
ENDBRANCH   1  18
BRANCH   2  20
ATOM     20  C   UNL     1       7.458  16.657  21.675  0.00  0.00    +0.000 C 
BRANCH  20  21
ATOM     21  N   UNL     1       7.089  15.295  22.093  0.00  0.00    +0.000 NA
ATOM     22  C   UNL     1       7.742  14.953  23.364  0.00  0.00    +0.000 C 
ATOM     23  C   UNL     1       6.996  13.707  23.794  0.00  0.00    +0.000 C 
ATOM     24  C   UNL     1       5.565  13.976  23.355  0.00  0.00    +0.000 C 
ATOM     25  C   UNL     1       5.656  15.096  22.318  0.00  0.00    +0.000 C 
ENDBRANCH  20  21
ENDBRANCH   2  20
TORSDOF 4
ENDMDL
MODEL 7
REMARK VINA RESULT:      -6.1      7.024     11.081
REMARK  Name = 
REMARK  6 active torsions:
REMARK  status: ('A' for Active; 'I' for Inactive)
REMARK    1  A    between atoms: C_1  and  C_2
REMARK    2  A    between atoms: C_2  and  C_3
REMARK    3  A    between atoms: C_2  and  N_4
REMARK    4  A    between atoms: C_5  and  C_6
REMARK    5  A    between atoms: C_6  and  N_7
REMARK    6  A    between atoms: C_16  and  C_18
REMARK                            x       y       z     vdW  Elec       q    Type
REMARK                         _______ _______ _______ _____ _____    ______ ____
ROOT
ATOM      1  N   UNL     1      -0.794  13.184  21.419  0.00  0.00    +0.000 NA
ATOM      2  C   UNL     1      -0.627  11.709  21.231  0.00  0.00    +0.000 C 
ATOM      3  C   UNL     1      -1.412  11.064  22.384  0.00  0.00    +0.000 C 
ATOM      4  C   UNL     1      -1.700  12.194  23.384  0.00  0.00    +0.000 C 
ATOM      5  C   UNL     1      -3.199  12.472  23.476  0.00  0.00    +0.000 C 
ATOM      6  N   UNL     1      -3.650  13.810  23.840  0.00  0.00    +0.000 N 
ATOM      7  C   UNL     1      -5.021  14.179  23.786  0.00  0.00    +0.000 C 
ATOM      8  O   UNL     1      -5.364  15.343  24.003  0.00  0.00    +0.000 OA
ATOM      9  C   UNL     1      -2.753  14.944  23.625  0.00  0.00    +0.000 C 
ATOM     10  C   UNL     1      -1.272  14.630  23.632  0.00  0.00    +0.000 C 
ATOM     11  C   UNL     1      -0.878  13.368  22.877  0.00  0.00    +0.000 C 
ENDROOT
BRANCH   7  12
ATOM     12  C   UNL     1      -6.027  13.218  23.319  0.00  0.00    +0.000 A 
ATOM     13  C   UNL     1      -6.487  12.805  22.035  0.00  0.00    +0.000 A 
ATOM     14  C   UNL     1      -7.544  11.946  22.240  0.00  0.00    +0.000 A 
ATOM     15  O   UNL     1      -7.729  11.740  23.565  0.00  0.00    +0.000 OA
ATOM     16  C   UNL     1      -6.798  12.489  24.207  0.00  0.00    +0.000 A 
ENDBRANCH   7  12
BRANCH   1  18
ATOM     17  C   UNL     1      -3.126  13.704  20.451  0.00  0.00    +0.000 C 
ATOM     18  C   UNL     1      -1.606  13.901  20.429  0.00  0.00    +0.000 C 
ATOM     19  C   UNL     1      -1.260  15.390  20.290  0.00  0.00    +0.000 C 
ENDBRANCH   1  18
BRANCH   2  20
ATOM     20  C   UNL     1      -0.903  11.081  19.833  0.00  0.00    +0.000 C 
BRANCH  20  21
ATOM     21  N   UNL     1      -0.189   9.842  19.489  0.00  0.00    +0.000 NA
ATOM     22  C   UNL     1       0.746  10.079  18.380  0.00  0.00    +0.000 C 
ATOM     23  C   UNL     1       1.607   8.833  18.402  0.00  0.00    +0.000 C 
ATOM     24  C   UNL     1       1.747   8.519  19.883  0.00  0.00    +0.000 C 
ATOM     25  C   UNL     1       0.618   9.283  20.575  0.00  0.00    +0.000 C 
ENDBRANCH  20  21
ENDBRANCH   2  20
TORSDOF 4
ENDMDL
MODEL 8
REMARK VINA RESULT:      -6.1      8.160     11.661
REMARK  Name = 
REMARK  6 active torsions:
REMARK  status: ('A' for Active; 'I' for Inactive)
REMARK    1  A    between atoms: C_1  and  C_2
REMARK    2  A    between atoms: C_2  and  C_3
REMARK    3  A    between atoms: C_2  and  N_4
REMARK    4  A    between atoms: C_5  and  C_6
REMARK    5  A    between atoms: C_6  and  N_7
REMARK    6  A    between atoms: C_16  and  C_18
REMARK                            x       y       z     vdW  Elec       q    Type
REMARK                         _______ _______ _______ _____ _____    ______ ____
ROOT
ATOM      1  N   UNL     1       6.003  16.277  19.622  0.00  0.00    +0.000 NA
ATOM      2  C   UNL     1       4.867  15.519  19.010  0.00  0.00    +0.000 C 
ATOM      3  C   UNL     1       5.507  14.635  17.929  0.00  0.00    +0.000 C 
ATOM      4  C   UNL     1       6.928  15.180  17.723  0.00  0.00    +0.000 C 
ATOM      5  C   UNL     1       7.973  14.155  18.159  0.00  0.00    +0.000 C 
ATOM      6  N   UNL     1       9.272  14.625  18.626  0.00  0.00    +0.000 N 
ATOM      7  C   UNL     1      10.227  13.740  19.196  0.00  0.00    +0.000 C 
ATOM      8  O   UNL     1      11.277  14.178  19.673  0.00  0.00    +0.000 OA
ATOM      9  C   UNL     1       9.392  15.989  19.139  0.00  0.00    +0.000 C 
ATOM     10  C   UNL     1       8.387  16.988  18.607  0.00  0.00    +0.000 C 
ATOM     11  C   UNL     1       6.955  16.476  18.517  0.00  0.00    +0.000 C 
ENDROOT
BRANCH   7  12
ATOM     12  C   UNL     1       9.908  12.318  19.364  0.00  0.00    +0.000 A 
ATOM     13  C   UNL     1       9.784  11.215  18.471  0.00  0.00    +0.000 A 
ATOM     14  C   UNL     1       9.344  10.140  19.213  0.00  0.00    +0.000 A 
ATOM     15  O   UNL     1       9.253  10.480  20.520  0.00  0.00    +0.000 OA
ATOM     16  C   UNL     1       9.616  11.784  20.607  0.00  0.00    +0.000 A 
ENDBRANCH   7  12
BRANCH   1  18
ATOM     17  C   UNL     1       7.068  14.607  21.271  0.00  0.00    +0.000 C 
ATOM     18  C   UNL     1       6.369  15.944  21.003  0.00  0.00    +0.000 C 
ATOM     19  C   UNL     1       7.074  17.079  21.758  0.00  0.00    +0.000 C 
ENDBRANCH   1  18
BRANCH   2  20
ATOM     20  C   UNL     1       3.859  14.776  19.937  0.00  0.00    +0.000 C 
BRANCH  20  21
ATOM     21  N   UNL     1       2.451  15.203  19.894  0.00  0.00    +0.000 NA
ATOM     22  C   UNL     1       2.253  16.215  18.847  0.00  0.00    +0.000 C 
ATOM     23  C   UNL     1       0.745  16.269  18.722  0.00  0.00    +0.000 C 
ATOM     24  C   UNL     1       0.316  14.824  18.920  0.00  0.00    +0.000 C 
ATOM     25  C   UNL     1       1.500  14.131  19.594  0.00  0.00    +0.000 C 
ENDBRANCH  20  21
ENDBRANCH   2  20
TORSDOF 4
ENDMDL
MODEL 9
REMARK VINA RESULT:      -6.0      8.546     11.987
REMARK  Name = 
REMARK  6 active torsions:
REMARK  status: ('A' for Active; 'I' for Inactive)
REMARK    1  A    between atoms: C_1  and  C_2
REMARK    2  A    between atoms: C_2  and  C_3
REMARK    3  A    between atoms: C_2  and  N_4
REMARK    4  A    between atoms: C_5  and  C_6
REMARK    5  A    between atoms: C_6  and  N_7
REMARK    6  A    between atoms: C_16  and  C_18
REMARK                            x       y       z     vdW  Elec       q    Type
REMARK                         _______ _______ _______ _____ _____    ______ ____
ROOT
ATOM      1  N   UNL     1      -1.073  14.123  22.228  0.00  0.00    +0.000 NA
ATOM      2  C   UNL     1      -0.742  12.772  21.676  0.00  0.00    +0.000 C 
ATOM      3  C   UNL     1      -1.730  11.807  22.351  0.00  0.00    +0.000 C 
ATOM      4  C   UNL     1      -2.349  12.586  23.521  0.00  0.00    +0.000 C 
ATOM      5  C   UNL     1      -3.842  12.813  23.296  0.00  0.00    +0.000 C 
ATOM      6  N   UNL     1      -4.479  13.979  23.898  0.00  0.00    +0.000 N 
ATOM      7  C   UNL     1      -5.821  14.338  23.597  0.00  0.00    +0.000 C 
ATOM      8  O   UNL     1      -6.302  15.382  24.042  0.00  0.00    +0.000 OA
ATOM      9  C   UNL     1      -3.655  15.131  24.257  0.00  0.00    +0.000 C 
ATOM     10  C   UNL     1      -2.201  14.839  24.559  0.00  0.00    +0.000 C 
ATOM     11  C   UNL     1      -1.528  13.863  23.603  0.00  0.00    +0.000 C 
ENDROOT
BRANCH   7  12
ATOM     12  C   UNL     1      -6.596  13.553  22.630  0.00  0.00    +0.000 A 
ATOM     13  C   UNL     1      -7.338  12.338  22.702  0.00  0.00    +0.000 A 
ATOM     14  C   UNL     1      -7.751  12.039  21.422  0.00  0.00    +0.000 A 
ATOM     15  O   UNL     1      -7.377  13.020  20.569  0.00  0.00    +0.000 OA
ATOM     16  C   UNL     1      -6.704  13.938  21.305  0.00  0.00    +0.000 A 
ENDBRANCH   7  12
BRANCH   1  18
ATOM     17  C   UNL     1      -3.133  14.898  20.887  0.00  0.00    +0.000 C 
ATOM     18  C   UNL     1      -1.673  15.097  21.310  0.00  0.00    +0.000 C 
ATOM     19  C   UNL     1      -1.419  16.562  21.692  0.00  0.00    +0.000 C 
ENDBRANCH   1  18
BRANCH   2  20
ATOM     20  C   UNL     1      -0.612  12.589  20.135  0.00  0.00    +0.000 C 
BRANCH  20  21
ATOM     21  N   UNL     1      -1.292  11.434  19.526  0.00  0.00    +0.000 NA
ATOM     22  C   UNL     1      -2.441  11.878  18.727  0.00  0.00    +0.000 C 
ATOM     23  C   UNL     1      -2.786  10.639  17.928  0.00  0.00    +0.000 C 
ATOM     24  C   UNL     1      -1.432  10.022  17.619  0.00  0.00    +0.000 C 
ATOM     25  C   UNL     1      -0.457  10.647  18.617  0.00  0.00    +0.000 C 
ENDBRANCH  20  21
ENDBRANCH   2  20
TORSDOF 4
ENDMDL
