MODEL 1
REMARK VINA RESULT:      -6.6      0.000      0.000
REMARK  Name = 
REMARK  10 active torsions:
REMARK  status: ('A' for Active; 'I' for Inactive)
REMARK    1  A    between atoms: C_1  and  O_2
REMARK    2  A    between atoms: O_2  and  C_3
REMARK    3  A    between atoms: C_3  and  C_5
REMARK    4  A    between atoms: N_7  and  C_8
REMARK    5  A    between atoms: C_16  and  C_17
REMARK    6  A    between atoms: C_17  and  O_19
REMARK    7  A    between atoms: O_19  and  C_20
REMARK    8  A    between atoms: C_21  and  C_22
REMARK    9  A    between atoms: C_26  and  O_27
REMARK   10  A    between atoms: O_27  and  C_28
REMARK                            x       y       z     vdW  Elec       q    Type
REMARK                         _______ _______ _______ _____ _____    ______ ____
ROOT
ATOM      1  C   UNL     1       3.600   3.954  16.970  0.00  0.00    +0.000 C 
ATOM      2  C   UNL     1       4.166   3.997  15.748  0.00  0.00    +0.000 C 
ATOM      3  N   UNL     1       5.448   4.462  15.476  0.00  0.00    +0.000 N 
ATOM      4  C   UNL     1       6.116   5.108  16.511  0.00  0.00    +0.000 C 
ATOM      5  C   UNL     1       5.662   5.190  17.781  0.00  0.00    +0.000 C 
ATOM      6  C   UNL     1       4.381   4.457  18.198  0.00  0.00    +0.000 C 
ENDROOT
BRANCH   3   7
ATOM      7  C   UNL     1       6.074   4.208  14.209  0.00  0.00    +0.000 A 
ATOM      8  C   UNL     1       7.098   5.050  13.727  0.00  0.00    +0.000 A 
ATOM      9  C   UNL     1       7.700   4.840  12.484  0.00  0.00    +0.000 A 
ATOM     10  C   UNL     1       7.281   3.782  11.681  0.00  0.00    +0.000 A 
ATOM     11  C   UNL     1       6.272   2.942  12.136  0.00  0.00    +0.000 A 
ATOM     12 CL   UNL     1       5.741   1.639  11.141  0.00  0.00    +0.000 Cl
ATOM     13  C   UNL     1       5.675   3.141  13.384  0.00  0.00    +0.000 A 
ENDBRANCH   3   7
BRANCH   6  14
ATOM     14  C   UNL     1       3.531   5.274  19.160  0.00  0.00    +0.000 A 
ATOM     15  C   UNL     1       3.102   4.711  20.375  0.00  0.00    +0.000 A 
ATOM     16  C   UNL     1       2.271   5.428  21.238  0.00  0.00    +0.000 A 
ATOM     17  C   UNL     1       1.862   6.713  20.889  0.00  0.00    +0.000 A 
ATOM     18  C   UNL     1       2.284   7.293  19.689  0.00  0.00    +0.000 A 
ATOM     19  C   UNL     1       3.119   6.574  18.834  0.00  0.00    +0.000 A 
BRANCH  18  20
ATOM     20  O   UNL     1       1.805   8.555  19.455  0.00  0.00    +0.000 OA
ATOM     21  C   UNL     1       1.827   8.990  18.101  0.00  0.00    +0.000 C 
ENDBRANCH  18  20
ENDBRANCH   6  14
BRANCH   1  22
ATOM     22  C   UNL     1       2.226   3.395  17.093  0.00  0.00    +0.000 C 
ATOM     23  O   UNL     1       1.191   4.031  17.003  0.00  0.00    +0.000 OA
BRANCH  22  25
ATOM     24  C   UNL     1       1.959   1.688  18.696  0.00  0.00    +0.000 C 
ATOM     25  O   UNL     1       2.282   2.058  17.355  0.00  0.00    +0.000 OA
ENDBRANCH  22  25
ENDBRANCH   1  22
BRANCH   5  26
ATOM     26  C   UNL     1       6.469   5.951  18.764  0.00  0.00    +0.000 C 
ATOM     27  O   UNL     1       6.808   5.526  19.855  0.00  0.00    +0.000 OA
BRANCH  26  28
ATOM     28  O   UNL     1       6.744   7.190  18.268  0.00  0.00    +0.000 OA
ATOM     29  C   UNL     1       8.119   7.575  18.246  0.00  0.00    +0.000 C 
ENDBRANCH  26  28
ENDBRANCH   5  26
TORSDOF 7
ENDMDL
MODEL 2
REMARK VINA RESULT:      -6.1      4.103      6.763
REMARK  Name = 
REMARK  10 active torsions:
REMARK  status: ('A' for Active; 'I' for Inactive)
REMARK    1  A    between atoms: C_1  and  O_2
REMARK    2  A    between atoms: O_2  and  C_3
REMARK    3  A    between atoms: C_3  and  C_5
REMARK    4  A    between atoms: N_7  and  C_8
REMARK    5  A    between atoms: C_16  and  C_17
REMARK    6  A    between atoms: C_17  and  O_19
REMARK    7  A    between atoms: O_19  and  C_20
REMARK    8  A    between atoms: C_21  and  C_22
REMARK    9  A    between atoms: C_26  and  O_27
REMARK   10  A    between atoms: O_27  and  C_28
REMARK                            x       y       z     vdW  Elec       q    Type
REMARK                         _______ _______ _______ _____ _____    ______ ____
ROOT
ATOM      1  C   UNL     1       1.766   4.575  19.186  0.00  0.00    +0.000 C 
ATOM      2  C   UNL     1       1.576   5.882  19.454  0.00  0.00    +0.000 C 
ATOM      3  N   UNL     1       2.334   6.925  18.931  0.00  0.00    +0.000 N 
ATOM      4  C   UNL     1       3.489   6.577  18.238  0.00  0.00    +0.000 C 
ATOM      5  C   UNL     1       3.844   5.311  17.929  0.00  0.00    +0.000 C 
ATOM      6  C   UNL     1       2.904   4.140  18.244  0.00  0.00    +0.000 C 
ENDROOT
BRANCH   3   7
ATOM      7  C   UNL     1       1.891   8.286  19.035  0.00  0.00    +0.000 A 
ATOM      8  C   UNL     1       2.140   9.208  17.997  0.00  0.00    +0.000 A 
ATOM      9  C   UNL     1       1.745  10.546  18.089  0.00  0.00    +0.000 A 
ATOM     10  C   UNL     1       1.097  10.999  19.236  0.00  0.00    +0.000 A 
ATOM     11  C   UNL     1       0.845  10.108  20.272  0.00  0.00    +0.000 A 
ATOM     12 CL   UNL     1       0.056  10.667  21.698  0.00  0.00    +0.000 Cl
ATOM     13  C   UNL     1       1.227   8.766  20.179  0.00  0.00    +0.000 A 
ENDBRANCH   3   7
BRANCH   6  14
ATOM     14  C   UNL     1       3.652   2.908  18.731  0.00  0.00    +0.000 A 
ATOM     15  C   UNL     1       3.651   1.732  17.961  0.00  0.00    +0.000 A 
ATOM     16  C   UNL     1       4.281   0.576  18.427  0.00  0.00    +0.000 A 
ATOM     17  C   UNL     1       4.916   0.590  19.666  0.00  0.00    +0.000 A 
ATOM     18  C   UNL     1       4.935   1.753  20.443  0.00  0.00    +0.000 A 
ATOM     19  C   UNL     1       4.309   2.905  19.971  0.00  0.00    +0.000 A 
BRANCH  18  20
ATOM     20  O   UNL     1       5.581   1.636  21.646  0.00  0.00    +0.000 OA
ATOM     21  C   UNL     1       5.978   0.321  22.017  0.00  0.00    +0.000 C 
ENDBRANCH  18  20
ENDBRANCH   6  14
BRANCH   1  22
ATOM     22  C   UNL     1       0.843   3.586  19.806  0.00  0.00    +0.000 C 
ATOM     23  O   UNL     1       0.100   2.834  19.201  0.00  0.00    +0.000 OA
BRANCH  22  25
ATOM     24  C   UNL     1       1.588   2.562  21.794  0.00  0.00    +0.000 C 
ATOM     25  O   UNL     1       0.919   3.656  21.166  0.00  0.00    +0.000 OA
ENDBRANCH  22  25
ENDBRANCH   1  22
BRANCH   5  26
ATOM     26  C   UNL     1       5.129   5.097  17.223  0.00  0.00    +0.000 C 
ATOM     27  O   UNL     1       5.230   4.661  16.089  0.00  0.00    +0.000 OA
BRANCH  26  28
ATOM     28  O   UNL     1       6.162   5.439  18.043  0.00  0.00    +0.000 OA
ATOM     29  C   UNL     1       7.399   4.760  17.823  0.00  0.00    +0.000 C 
ENDBRANCH  26  28
ENDBRANCH   5  26
TORSDOF 7
ENDMDL
MODEL 3
REMARK VINA RESULT:      -6.0      3.997      7.396
REMARK  Name = 
REMARK  10 active torsions:
REMARK  status: ('A' for Active; 'I' for Inactive)
REMARK    1  A    between atoms: C_1  and  O_2
REMARK    2  A    between atoms: O_2  and  C_3
REMARK    3  A    between atoms: C_3  and  C_5
REMARK    4  A    between atoms: N_7  and  C_8
REMARK    5  A    between atoms: C_16  and  C_17
REMARK    6  A    between atoms: C_17  and  O_19
REMARK    7  A    between atoms: O_19  and  C_20
REMARK    8  A    between atoms: C_21  and  C_22
REMARK    9  A    between atoms: C_26  and  O_27
REMARK   10  A    between atoms: O_27  and  C_28
REMARK                            x       y       z     vdW  Elec       q    Type
REMARK                         _______ _______ _______ _____ _____    ______ ____
ROOT
ATOM      1  C   UNL     1       3.915   6.806  17.873  0.00  0.00    +0.000 C 
ATOM      2  C   UNL     1       3.168   7.921  17.756  0.00  0.00    +0.000 C 
ATOM      3  N   UNL     1       2.150   8.298  18.626  0.00  0.00    +0.000 N 
ATOM      4  C   UNL     1       1.749   7.359  19.570  0.00  0.00    +0.000 C 
ATOM      5  C   UNL     1       2.366   6.176  19.782  0.00  0.00    +0.000 C 
ATOM      6  C   UNL     1       3.660   5.828  19.035  0.00  0.00    +0.000 C 
ENDROOT
BRANCH   3   7
ATOM      7  C   UNL     1       1.606   9.626  18.596  0.00  0.00    +0.000 A 
ATOM      8  C   UNL     1       2.393  10.721  18.181  0.00  0.00    +0.000 A 
ATOM      9  C   UNL     1       1.894  12.026  18.173  0.00  0.00    +0.000 A 
ATOM     10  C   UNL     1       0.590  12.271  18.594  0.00  0.00    +0.000 A 
ATOM     11  C   UNL     1      -0.203  11.208  19.008  0.00  0.00    +0.000 A 
ATOM     12 CL   UNL     1      -1.814  11.508  19.543  0.00  0.00    +0.000 Cl
ATOM     13  C   UNL     1       0.288   9.899  19.007  0.00  0.00    +0.000 A 
ENDBRANCH   3   7
BRANCH   6  14
ATOM     14  C   UNL     1       3.714   4.367  18.616  0.00  0.00    +0.000 A 
ATOM     15  C   UNL     1       3.006   3.930  17.482  0.00  0.00    +0.000 A 
ATOM     16  C   UNL     1       2.999   2.580  17.124  0.00  0.00    +0.000 A 
ATOM     17  C   UNL     1       3.698   1.659  17.899  0.00  0.00    +0.000 A 
ATOM     18  C   UNL     1       4.415   2.074  19.025  0.00  0.00    +0.000 A 
ATOM     19  C   UNL     1       4.424   3.424  19.375  0.00  0.00    +0.000 A 
BRANCH  18  20
ATOM     20  O   UNL     1       5.051   1.073  19.710  0.00  0.00    +0.000 OA
ATOM     21  C   UNL     1       5.214   1.278  21.109  0.00  0.00    +0.000 C 
ENDBRANCH  18  20
ENDBRANCH   6  14
BRANCH   1  22
ATOM     22  C   UNL     1       4.988   6.566  16.870  0.00  0.00    +0.000 C 
ATOM     23  O   UNL     1       4.835   6.529  15.663  0.00  0.00    +0.000 OA
BRANCH  22  25
ATOM     24  C   UNL     1       6.986   5.318  16.944  0.00  0.00    +0.000 C 
ATOM     25  O   UNL     1       6.181   6.360  17.497  0.00  0.00    +0.000 OA
ENDBRANCH  22  25
ENDBRANCH   1  22
BRANCH   5  26
ATOM     26  C   UNL     1       1.792   5.260  20.796  0.00  0.00    +0.000 C 
ATOM     27  O   UNL     1       2.286   5.046  21.890  0.00  0.00    +0.000 OA
BRANCH  26  28
ATOM     28  O   UNL     1       0.657   4.689  20.306  0.00  0.00    +0.000 OA
ATOM     29  C   UNL     1       0.668   3.267  20.170  0.00  0.00    +0.000 C 
ENDBRANCH  26  28
ENDBRANCH   5  26
TORSDOF 7
ENDMDL
MODEL 4
REMARK VINA RESULT:      -5.9      4.028      7.439
REMARK  Name = 
REMARK  10 active torsions:
REMARK  status: ('A' for Active; 'I' for Inactive)
REMARK    1  A    between atoms: C_1  and  O_2
REMARK    2  A    between atoms: O_2  and  C_3
REMARK    3  A    between atoms: C_3  and  C_5
REMARK    4  A    between atoms: N_7  and  C_8
REMARK    5  A    between atoms: C_16  and  C_17
REMARK    6  A    between atoms: C_17  and  O_19
REMARK    7  A    between atoms: O_19  and  C_20
REMARK    8  A    between atoms: C_21  and  C_22
REMARK    9  A    between atoms: C_26  and  O_27
REMARK   10  A    between atoms: O_27  and  C_28
REMARK                            x       y       z     vdW  Elec       q    Type
REMARK                         _______ _______ _______ _____ _____    ______ ____
ROOT
ATOM      1  C   UNL     1       3.858   6.871  17.873  0.00  0.00    +0.000 C 
ATOM      2  C   UNL     1       3.088   7.974  17.778  0.00  0.00    +0.000 C 
ATOM      3  N   UNL     1       2.073   8.320  18.663  0.00  0.00    +0.000 N 
ATOM      4  C   UNL     1       1.700   7.361  19.599  0.00  0.00    +0.000 C 
ATOM      5  C   UNL     1       2.342   6.188  19.790  0.00  0.00    +0.000 C 
ATOM      6  C   UNL     1       3.634   5.874  19.025  0.00  0.00    +0.000 C 
ENDROOT
BRANCH   3   7
ATOM      7  C   UNL     1       1.503   9.637  18.655  0.00  0.00    +0.000 A 
ATOM      8  C   UNL     1       0.124   9.830  18.883  0.00  0.00    +0.000 A 
ATOM      9  C   UNL     1      -0.458  11.100  18.851  0.00  0.00    +0.000 A 
ATOM     10  C   UNL     1       0.328  12.215  18.575  0.00  0.00    +0.000 A 
ATOM     11  C   UNL     1       1.689  12.048  18.345  0.00  0.00    +0.000 A 
ATOM     12 CL   UNL     1       2.664  13.424  17.991  0.00  0.00    +0.000 Cl
ATOM     13  C   UNL     1       2.278  10.781  18.389  0.00  0.00    +0.000 A 
ENDBRANCH   3   7
BRANCH   6  14
ATOM     14  C   UNL     1       3.712   4.420  18.588  0.00  0.00    +0.000 A 
ATOM     15  C   UNL     1       3.045   3.995  17.425  0.00  0.00    +0.000 A 
ATOM     16  C   UNL     1       3.058   2.651  17.048  0.00  0.00    +0.000 A 
ATOM     17  C   UNL     1       3.738   1.722  17.832  0.00  0.00    +0.000 A 
ATOM     18  C   UNL     1       4.414   2.125  18.987  0.00  0.00    +0.000 A 
ATOM     19  C   UNL     1       4.402   3.470  19.356  0.00  0.00    +0.000 A 
BRANCH  18  20
ATOM     20  O   UNL     1       5.033   1.118  19.678  0.00  0.00    +0.000 OA
ATOM     21  C   UNL     1       5.197   1.329  21.076  0.00  0.00    +0.000 C 
ENDBRANCH  18  20
ENDBRANCH   6  14
BRANCH   1  22
ATOM     22  C   UNL     1       4.925   6.664  16.857  0.00  0.00    +0.000 C 
ATOM     23  O   UNL     1       4.791   6.789  15.652  0.00  0.00    +0.000 OA
BRANCH  22  25
ATOM     24  C   UNL     1       7.134   7.250  17.434  0.00  0.00    +0.000 C 
ATOM     25  O   UNL     1       6.085   6.281  17.462  0.00  0.00    +0.000 OA
ENDBRANCH  22  25
ENDBRANCH   1  22
BRANCH   5  26
ATOM     26  C   UNL     1       1.796   5.249  20.798  0.00  0.00    +0.000 C 
ATOM     27  O   UNL     1       2.301   5.038  21.888  0.00  0.00    +0.000 OA
BRANCH  26  28
ATOM     28  O   UNL     1       0.674   4.654  20.308  0.00  0.00    +0.000 OA
ATOM     29  C   UNL     1       0.707   3.230  20.194  0.00  0.00    +0.000 C 
ENDBRANCH  26  28
ENDBRANCH   5  26
TORSDOF 7
ENDMDL
MODEL 5
REMARK VINA RESULT:      -5.8      4.395      8.104
REMARK  Name = 
REMARK  10 active torsions:
REMARK  status: ('A' for Active; 'I' for Inactive)
REMARK    1  A    between atoms: C_1  and  O_2
REMARK    2  A    between atoms: O_2  and  C_3
REMARK    3  A    between atoms: C_3  and  C_5
REMARK    4  A    between atoms: N_7  and  C_8
REMARK    5  A    between atoms: C_16  and  C_17
REMARK    6  A    between atoms: C_17  and  O_19
REMARK    7  A    between atoms: O_19  and  C_20
REMARK    8  A    between atoms: C_21  and  C_22
REMARK    9  A    between atoms: C_26  and  O_27
REMARK   10  A    between atoms: O_27  and  C_28
REMARK                            x       y       z     vdW  Elec       q    Type
REMARK                         _______ _______ _______ _____ _____    ______ ____
ROOT
ATOM      1  C   UNL     1       1.634   5.996  20.378  0.00  0.00    +0.000 C 
ATOM      2  C   UNL     1       1.179   7.008  21.144  0.00  0.00    +0.000 C 
ATOM      3  N   UNL     1       1.119   8.342  20.754  0.00  0.00    +0.000 N 
ATOM      4  C   UNL     1       1.755   8.679  19.563  0.00  0.00    +0.000 C 
ATOM      5  C   UNL     1       2.299   7.787  18.708  0.00  0.00    +0.000 C 
ATOM      6  C   UNL     1       2.152   6.280  18.957  0.00  0.00    +0.000 C 
ENDROOT
BRANCH   3   7
ATOM      7  C   UNL     1       0.363   9.300  21.510  0.00  0.00    +0.000 A 
ATOM      8  C   UNL     1      -0.153   8.972  22.781  0.00  0.00    +0.000 A 
ATOM      9  C   UNL     1      -0.918   9.878  23.522  0.00  0.00    +0.000 A 
ATOM     10  C   UNL     1      -1.197  11.138  23.000  0.00  0.00    +0.000 A 
ATOM     11  C   UNL     1      -0.700  11.481  21.748  0.00  0.00    +0.000 A 
ATOM     12 CL   UNL     1      -1.054  13.034  21.091  0.00  0.00    +0.000 Cl
ATOM     13  C   UNL     1       0.075  10.583  21.008  0.00  0.00    +0.000 A 
ENDBRANCH   3   7
BRANCH   6  14
ATOM     14  C   UNL     1       3.416   5.508  18.610  0.00  0.00    +0.000 A 
ATOM     15  C   UNL     1       3.404   4.568  17.564  0.00  0.00    +0.000 A 
ATOM     16  C   UNL     1       4.540   3.808  17.277  0.00  0.00    +0.000 A 
ATOM     17  C   UNL     1       5.694   3.983  18.036  0.00  0.00    +0.000 A 
ATOM     18  C   UNL     1       5.729   4.918  19.075  0.00  0.00    +0.000 A 
ATOM     19  C   UNL     1       4.593   5.678  19.353  0.00  0.00    +0.000 A 
BRANCH  18  20
ATOM     20  O   UNL     1       6.916   4.987  19.754  0.00  0.00    +0.000 OA
ATOM     21  C   UNL     1       7.899   5.858  19.205  0.00  0.00    +0.000 C 
ENDBRANCH  18  20
ENDBRANCH   6  14
BRANCH   1  22
ATOM     22  C   UNL     1       1.600   4.617  20.937  0.00  0.00    +0.000 C 
ATOM     23  O   UNL     1       2.351   4.180  21.791  0.00  0.00    +0.000 OA
BRANCH  22  25
ATOM     24  C   UNL     1       1.066   2.717  19.650  0.00  0.00    +0.000 C 
ATOM     25  O   UNL     1       0.619   3.888  20.335  0.00  0.00    +0.000 OA
ENDBRANCH  22  25
ENDBRANCH   1  22
BRANCH   5  26
ATOM     26  C   UNL     1       2.982   8.305  17.499  0.00  0.00    +0.000 C 
ATOM     27  O   UNL     1       3.993   7.823  17.018  0.00  0.00    +0.000 OA
BRANCH  26  28
ATOM     28  O   UNL     1       2.321   9.402  17.036  0.00  0.00    +0.000 OA
ATOM     29  C   UNL     1       2.540  10.622  17.744  0.00  0.00    +0.000 C 
ENDBRANCH  26  28
ENDBRANCH   5  26
TORSDOF 7
ENDMDL
MODEL 6
REMARK VINA RESULT:      -5.8      7.780     12.042
REMARK  Name = 
REMARK  10 active torsions:
REMARK  status: ('A' for Active; 'I' for Inactive)
REMARK    1  A    between atoms: C_1  and  O_2
REMARK    2  A    between atoms: O_2  and  C_3
REMARK    3  A    between atoms: C_3  and  C_5
REMARK    4  A    between atoms: N_7  and  C_8
REMARK    5  A    between atoms: C_16  and  C_17
REMARK    6  A    between atoms: C_17  and  O_19
REMARK    7  A    between atoms: O_19  and  C_20
REMARK    8  A    between atoms: C_21  and  C_22
REMARK    9  A    between atoms: C_26  and  O_27
REMARK   10  A    between atoms: O_27  and  C_28
REMARK                            x       y       z     vdW  Elec       q    Type
REMARK                         _______ _______ _______ _____ _____    ______ ____
ROOT
ATOM      1  C   UNL     1      -2.765  11.431  18.577  0.00  0.00    +0.000 C 
ATOM      2  C   UNL     1      -3.890  11.959  19.098  0.00  0.00    +0.000 C 
ATOM      3  N   UNL     1      -3.933  12.901  20.121  0.00  0.00    +0.000 N 
ATOM      4  C   UNL     1      -2.738  13.168  20.780  0.00  0.00    +0.000 C 
ATOM      5  C   UNL     1      -1.534  12.683  20.409  0.00  0.00    +0.000 C 
ATOM      6  C   UNL     1      -1.390  11.857  19.124  0.00  0.00    +0.000 C 
ENDROOT
BRANCH   3   7
ATOM      7  C   UNL     1      -5.141  13.617  20.416  0.00  0.00    +0.000 A 
ATOM      8  C   UNL     1      -6.227  13.606  19.515  0.00  0.00    +0.000 A 
ATOM      9  C   UNL     1      -7.401  14.321  19.767  0.00  0.00    +0.000 A 
ATOM     10  C   UNL     1      -7.514  15.079  20.929  0.00  0.00    +0.000 A 
ATOM     11  C   UNL     1      -6.456  15.106  21.829  0.00  0.00    +0.000 A 
ATOM     12 CL   UNL     1      -6.586  16.054  23.263  0.00  0.00    +0.000 Cl
ATOM     13  C   UNL     1      -5.284  14.383  21.588  0.00  0.00    +0.000 A 
ENDBRANCH   3   7
BRANCH   6  14
ATOM     14  C   UNL     1      -0.419  10.697  19.283  0.00  0.00    +0.000 A 
ATOM     15  C   UNL     1      -0.399   9.952  20.475  0.00  0.00    +0.000 A 
ATOM     16  C   UNL     1       0.530   8.925  20.656  0.00  0.00    +0.000 A 
ATOM     17  C   UNL     1       1.446   8.639  19.647  0.00  0.00    +0.000 A 
ATOM     18  C   UNL     1       1.437   9.364  18.452  0.00  0.00    +0.000 A 
ATOM     19  C   UNL     1       0.504  10.385  18.274  0.00  0.00    +0.000 A 
BRANCH  18  20
ATOM     20  O   UNL     1       2.394   8.996  17.543  0.00  0.00    +0.000 OA
ATOM     21  C   UNL     1       3.059   7.765  17.800  0.00  0.00    +0.000 C 
ENDBRANCH  18  20
ENDBRANCH   6  14
BRANCH   1  22
ATOM     22  C   UNL     1      -2.894  10.455  17.461  0.00  0.00    +0.000 C 
ATOM     23  O   UNL     1      -3.289   9.307  17.565  0.00  0.00    +0.000 OA
BRANCH  22  25
ATOM     24  C   UNL     1      -2.965  10.388  15.106  0.00  0.00    +0.000 C 
ATOM     25  O   UNL     1      -2.476  11.017  16.291  0.00  0.00    +0.000 OA
ENDBRANCH  22  25
ENDBRANCH   1  22
BRANCH   5  26
ATOM     26  C   UNL     1      -0.355  13.023  21.240  0.00  0.00    +0.000 C 
ATOM     27  O   UNL     1      -0.223  12.708  22.411  0.00  0.00    +0.000 OA
BRANCH  26  28
ATOM     28  O   UNL     1       0.528  13.753  20.504  0.00  0.00    +0.000 OA
ATOM     29  C   UNL     1       1.877  13.285  20.483  0.00  0.00    +0.000 C 
ENDBRANCH  26  28
ENDBRANCH   5  26
TORSDOF 7
ENDMDL
MODEL 7
REMARK VINA RESULT:      -5.7      6.504     10.499
REMARK  Name = 
REMARK  10 active torsions:
REMARK  status: ('A' for Active; 'I' for Inactive)
REMARK    1  A    between atoms: C_1  and  O_2
REMARK    2  A    between atoms: O_2  and  C_3
REMARK    3  A    between atoms: C_3  and  C_5
REMARK    4  A    between atoms: N_7  and  C_8
REMARK    5  A    between atoms: C_16  and  C_17
REMARK    6  A    between atoms: C_17  and  O_19
REMARK    7  A    between atoms: O_19  and  C_20
REMARK    8  A    between atoms: C_21  and  C_22
REMARK    9  A    between atoms: C_26  and  O_27
REMARK   10  A    between atoms: O_27  and  C_28
REMARK                            x       y       z     vdW  Elec       q    Type
REMARK                         _______ _______ _______ _____ _____    ______ ____
ROOT
ATOM      1  C   UNL     1      -0.399  12.413  20.893  0.00  0.00    +0.000 C 
ATOM      2  C   UNL     1       0.300  11.281  20.679  0.00  0.00    +0.000 C 
ATOM      3  N   UNL     1       0.025  10.347  19.686  0.00  0.00    +0.000 N 
ATOM      4  C   UNL     1      -1.172  10.500  18.993  0.00  0.00    +0.000 C 
ATOM      5  C   UNL     1      -2.004  11.555  19.126  0.00  0.00    +0.000 C 
ATOM      6  C   UNL     1      -1.613  12.747  20.008  0.00  0.00    +0.000 C 
ENDROOT
BRANCH   3   7
ATOM      7  C   UNL     1       0.977   9.328  19.345  0.00  0.00    +0.000 A 
ATOM      8  C   UNL     1       1.708   9.398  18.140  0.00  0.00    +0.000 A 
ATOM      9  C   UNL     1       2.618   8.402  17.773  0.00  0.00    +0.000 A 
ATOM     10  C   UNL     1       2.811   7.300  18.601  0.00  0.00    +0.000 A 
ATOM     11  C   UNL     1       2.098   7.211  19.791  0.00  0.00    +0.000 A 
ATOM     12 CL   UNL     1       2.323   5.842  20.813  0.00  0.00    +0.000 Cl
ATOM     13  C   UNL     1       1.196   8.209  20.169  0.00  0.00    +0.000 A 
ENDBRANCH   3   7
BRANCH   6  14
ATOM     14  C   UNL     1      -2.794  13.304  20.789  0.00  0.00    +0.000 A 
ATOM     15  C   UNL     1      -3.237  14.618  20.558  0.00  0.00    +0.000 A 
ATOM     16  C   UNL     1      -4.279  15.161  21.312  0.00  0.00    +0.000 A 
ATOM     17  C   UNL     1      -4.884  14.393  22.304  0.00  0.00    +0.000 A 
ATOM     18  C   UNL     1      -4.463  13.081  22.544  0.00  0.00    +0.000 A 
ATOM     19  C   UNL     1      -3.426  12.542  21.784  0.00  0.00    +0.000 A 
BRANCH  18  20
ATOM     20  O   UNL     1      -5.128  12.434  23.552  0.00  0.00    +0.000 OA
ATOM     21  C   UNL     1      -4.483  12.425  24.820  0.00  0.00    +0.000 C 
ENDBRANCH  18  20
ENDBRANCH   6  14
BRANCH   1  22
ATOM     22  C   UNL     1       0.049  13.324  21.983  0.00  0.00    +0.000 C 
ATOM     23  O   UNL     1      -0.259  13.228  23.158  0.00  0.00    +0.000 OA
BRANCH  22  25
ATOM     24  C   UNL     1       0.270  15.622  21.513  0.00  0.00    +0.000 C 
ATOM     25  O   UNL     1       0.838  14.313  21.476  0.00  0.00    +0.000 OA
ENDBRANCH  22  25
ENDBRANCH   1  22
BRANCH   5  26
ATOM     26  C   UNL     1      -3.266  11.553  18.349  0.00  0.00    +0.000 C 
ATOM     27  O   UNL     1      -4.378  11.456  18.840  0.00  0.00    +0.000 OA
BRANCH  26  28
ATOM     28  O   UNL     1      -2.984  11.650  17.020  0.00  0.00    +0.000 OA
ATOM     29  C   UNL     1      -3.566  10.658  16.172  0.00  0.00    +0.000 C 
ENDBRANCH  26  28
ENDBRANCH   5  26
TORSDOF 7
ENDMDL
MODEL 8
REMARK VINA RESULT:      -5.7      3.880      7.550
REMARK  Name = 
REMARK  10 active torsions:
REMARK  status: ('A' for Active; 'I' for Inactive)
REMARK    1  A    between atoms: C_1  and  O_2
REMARK    2  A    between atoms: O_2  and  C_3
REMARK    3  A    between atoms: C_3  and  C_5
REMARK    4  A    between atoms: N_7  and  C_8
REMARK    5  A    between atoms: C_16  and  C_17
REMARK    6  A    between atoms: C_17  and  O_19
REMARK    7  A    between atoms: O_19  and  C_20
REMARK    8  A    between atoms: C_21  and  C_22
REMARK    9  A    between atoms: C_26  and  O_27
REMARK   10  A    between atoms: O_27  and  C_28
REMARK                            x       y       z     vdW  Elec       q    Type
REMARK                         _______ _______ _______ _____ _____    ______ ____
ROOT
ATOM      1  C   UNL     1       4.076   6.189  18.497  0.00  0.00    +0.000 C 
ATOM      2  C   UNL     1       3.291   7.279  18.382  0.00  0.00    +0.000 C 
ATOM      3  N   UNL     1       2.191   7.561  19.184  0.00  0.00    +0.000 N 
ATOM      4  C   UNL     1       1.758   6.550  20.037  0.00  0.00    +0.000 C 
ATOM      5  C   UNL     1       2.409   5.383  20.232  0.00  0.00    +0.000 C 
ATOM      6  C   UNL     1       3.773   5.134  19.577  0.00  0.00    +0.000 C 
ENDROOT
BRANCH   3   7
ATOM      7  C   UNL     1       1.590   8.865  19.184  0.00  0.00    +0.000 A 
ATOM      8  C   UNL     1       1.760   9.738  18.090  0.00  0.00    +0.000 A 
ATOM      9  C   UNL     1       1.211  11.024  18.081  0.00  0.00    +0.000 A 
ATOM     10  C   UNL     1       0.483  11.473  19.179  0.00  0.00    +0.000 A 
ATOM     11  C   UNL     1       0.306  10.629  20.270  0.00  0.00    +0.000 A 
ATOM     12 CL   UNL     1      -0.583  11.186  21.637  0.00  0.00    +0.000 Cl
ATOM     13  C   UNL     1       0.843   9.339  20.278  0.00  0.00    +0.000 A 
ENDBRANCH   3   7
BRANCH   6  14
ATOM     14  C   UNL     1       3.928   3.704  19.082  0.00  0.00    +0.000 A 
ATOM     15  C   UNL     1       3.324   3.304  17.877  0.00  0.00    +0.000 A 
ATOM     16  C   UNL     1       3.407   1.979  17.444  0.00  0.00    +0.000 A 
ATOM     17  C   UNL     1       4.093   1.045  18.215  0.00  0.00    +0.000 A 
ATOM     18  C   UNL     1       4.708   1.424  19.413  0.00  0.00    +0.000 A 
ATOM     19  C   UNL     1       4.626   2.750  19.837  0.00  0.00    +0.000 A 
BRANCH  18  20
ATOM     20  O   UNL     1       5.341   0.413  20.085  0.00  0.00    +0.000 OA
ATOM     21  C   UNL     1       5.571   0.633  21.472  0.00  0.00    +0.000 C 
ENDBRANCH  18  20
ENDBRANCH   6  14
BRANCH   1  22
ATOM     22  C   UNL     1       5.237   6.054  17.575  0.00  0.00    +0.000 C 
ATOM     23  O   UNL     1       6.399   5.915  17.914  0.00  0.00    +0.000 OA
BRANCH  22  25
ATOM     24  C   UNL     1       5.590   5.380  15.345  0.00  0.00    +0.000 C 
ATOM     25  O   UNL     1       4.822   6.139  16.279  0.00  0.00    +0.000 OA
ENDBRANCH  22  25
ENDBRANCH   1  22
BRANCH   5  26
ATOM     26  C   UNL     1       1.798   4.385  21.142  0.00  0.00    +0.000 C 
ATOM     27  O   UNL     1       2.325   3.964  22.158  0.00  0.00    +0.000 OA
BRANCH  26  28
ATOM     28  O   UNL     1       0.585   4.005  20.653  0.00  0.00    +0.000 OA
ATOM     29  C   UNL     1       0.561   2.811  19.869  0.00  0.00    +0.000 C 
ENDBRANCH  26  28
ENDBRANCH   5  26
TORSDOF 7
ENDMDL
MODEL 9
REMARK VINA RESULT:      -5.6      4.167      7.099
REMARK  Name = 
REMARK  10 active torsions:
REMARK  status: ('A' for Active; 'I' for Inactive)
REMARK    1  A    between atoms: C_1  and  O_2
REMARK    2  A    between atoms: O_2  and  C_3
REMARK    3  A    between atoms: C_3  and  C_5
REMARK    4  A    between atoms: N_7  and  C_8
REMARK    5  A    between atoms: C_16  and  C_17
REMARK    6  A    between atoms: C_17  and  O_19
REMARK    7  A    between atoms: O_19  and  C_20
REMARK    8  A    between atoms: C_21  and  C_22
REMARK    9  A    between atoms: C_26  and  O_27
REMARK   10  A    between atoms: O_27  and  C_28
REMARK                            x       y       z     vdW  Elec       q    Type
REMARK                         _______ _______ _______ _____ _____    ______ ____
ROOT
ATOM      1  C   UNL     1       1.638   4.544  19.719  0.00  0.00    +0.000 C 
ATOM      2  C   UNL     1       1.382   5.761  20.238  0.00  0.00    +0.000 C 
ATOM      3  N   UNL     1       2.108   6.915  19.968  0.00  0.00    +0.000 N 
ATOM      4  C   UNL     1       3.298   6.760  19.264  0.00  0.00    +0.000 C 
ATOM      5  C   UNL     1       3.718   5.598  18.718  0.00  0.00    +0.000 C 
ATOM      6  C   UNL     1       2.822   4.353  18.753  0.00  0.00    +0.000 C 
ENDROOT
BRANCH   3   7
ATOM      7  C   UNL     1       1.602   8.209  20.329  0.00  0.00    +0.000 A 
ATOM      8  C   UNL     1       1.135   8.463  21.635  0.00  0.00    +0.000 A 
ATOM      9  C   UNL     1       0.610   9.706  22.001  0.00  0.00    +0.000 A 
ATOM     10  C   UNL     1       0.528  10.728  21.059  0.00  0.00    +0.000 A 
ATOM     11  C   UNL     1       0.980  10.498  19.765  0.00  0.00    +0.000 A 
ATOM     12 CL   UNL     1       0.868  11.755  18.592  0.00  0.00    +0.000 Cl
ATOM     13  C   UNL     1       1.517   9.261  19.398  0.00  0.00    +0.000 A 
ENDBRANCH   3   7
BRANCH   6  14
ATOM     14  C   UNL     1       3.609   3.077  19.008  0.00  0.00    +0.000 A 
ATOM     15  C   UNL     1       3.602   2.041  18.057  0.00  0.00    +0.000 A 
ATOM     16  C   UNL     1       4.269   0.841  18.308  0.00  0.00    +0.000 A 
ATOM     17  C   UNL     1       4.947   0.668  19.511  0.00  0.00    +0.000 A 
ATOM     18  C   UNL     1       4.973   1.689  20.466  0.00  0.00    +0.000 A 
ATOM     19  C   UNL     1       4.309   2.888  20.209  0.00  0.00    +0.000 A 
BRANCH  18  20
ATOM     20  O   UNL     1       5.662   1.394  21.613  0.00  0.00    +0.000 OA
ATOM     21  C   UNL     1       5.961   0.019  21.826  0.00  0.00    +0.000 C 
ENDBRANCH  18  20
ENDBRANCH   6  14
BRANCH   1  22
ATOM     22  C   UNL     1       0.741   3.415  20.089  0.00  0.00    +0.000 C 
ATOM     23  O   UNL     1       0.103   2.731  19.308  0.00  0.00    +0.000 OA
BRANCH  22  25
ATOM     24  C   UNL     1       1.623   2.309  21.973  0.00  0.00    +0.000 C 
ATOM     25  O   UNL     1       0.705   3.266  21.443  0.00  0.00    +0.000 OA
ENDBRANCH  22  25
ENDBRANCH   1  22
BRANCH   5  26
ATOM     26  C   UNL     1       5.032   5.581  18.034  0.00  0.00    +0.000 C 
ATOM     27  O   UNL     1       5.182   5.458  16.830  0.00  0.00    +0.000 OA
BRANCH  26  28
ATOM     28  O   UNL     1       6.028   5.699  18.956  0.00  0.00    +0.000 OA
ATOM     29  C   UNL     1       7.354   5.840  18.445  0.00  0.00    +0.000 C 
ENDBRANCH  26  28
ENDBRANCH   5  26
TORSDOF 7
ENDMDL
