MODEL 1
REMARK VINA RESULT:      -8.6      0.000      0.000
REMARK  Name = 
REMARK  3 active torsions:
REMARK  status: ('A' for Active; 'I' for Inactive)
REMARK    1  A    between atoms: C_7  and  N_8
REMARK    2  A    between atoms: N_11  and  C_12
REMARK    3  A    between atoms: N_20  and  C_21
REMARK                            x       y       z     vdW  Elec       q    Type
REMARK                         _______ _______ _______ _____ _____    ______ ____
ROOT
ATOM      1  C   UNL     1       0.961   9.423  20.004  0.00  0.00    +0.000 A 
ATOM      2  N   UNL     1       0.726  10.184  18.906  0.00  0.00    +0.000 NA
ATOM      3  C   UNL     1      -0.037  11.285  19.019  0.00  0.00    +0.000 A 
ATOM      4  N   UNL     1      -0.616  11.774  20.122  0.00  0.00    +0.000 NA
ATOM      5  C   UNL     1      -0.333  11.039  21.218  0.00  0.00    +0.000 A 
ATOM      6  C   UNL     1       0.449   9.893  21.228  0.00  0.00    +0.000 A 
ATOM      7  C   UNL     1       0.519   9.532  22.583  0.00  0.00    +0.000 A 
ATOM      8  N   UNL     1      -0.181  10.334  23.381  0.00  0.00    +0.000 NA
ATOM      9  N   UNL     1      -0.739  11.255  22.535  0.00  0.00    +0.000 N 
ENDROOT
BRANCH   1  13
ATOM     10  N   UNL     1       2.470   5.596  19.251  0.00  0.00    +0.000 N 
ATOM     11  C   UNL     1       1.508   5.823  20.343  0.00  0.00    +0.000 C 
ATOM     12  C   UNL     1       1.735   7.238  20.910  0.00  0.00    +0.000 C 
ATOM     13  N   UNL     1       1.641   8.241  19.846  0.00  0.00    +0.000 N 
ATOM     14  C   UNL     1       2.433   7.999  18.629  0.00  0.00    +0.000 C 
ATOM     15  C   UNL     1       2.273   6.542  18.128  0.00  0.00    +0.000 C 
BRANCH  10  22
ATOM     16  F   UNL     1       1.031   3.935  17.369  0.00  0.00    +0.000 F 
ATOM     17  C   UNL     1       2.095   3.462  18.039  0.00  0.00    +0.000 A 
ATOM     18  C   UNL     1       2.451   2.131  17.820  0.00  0.00    +0.000 A 
ATOM     19  C   UNL     1       3.544   1.585  18.489  0.00  0.00    +0.000 A 
ATOM     20  C   UNL     1       4.279   2.378  19.363  0.00  0.00    +0.000 A 
ATOM     21  C   UNL     1       3.919   3.710  19.572  0.00  0.00    +0.000 A 
ATOM     22  C   UNL     1       2.816   4.288  18.920  0.00  0.00    +0.000 A 
ENDBRANCH  10  22
ENDBRANCH   1  13
BRANCH   9  23
ATOM     23  C   UNL     1      -1.616  12.247  23.066  0.00  0.00    +0.000 A 
ATOM     24  C   UNL     1      -1.129  13.552  23.259  0.00  0.00    +0.000 A 
ATOM     25  C   UNL     1      -1.960  14.546  23.775  0.00  0.00    +0.000 A 
ATOM     26  C   UNL     1      -3.279  14.249  24.105  0.00  0.00    +0.000 A 
ATOM     27  C   UNL     1      -3.767  12.956  23.924  0.00  0.00    +0.000 A 
ATOM     28  C   UNL     1      -2.941  11.956  23.406  0.00  0.00    +0.000 A 
ENDBRANCH   9  23
TORSDOF 3
ENDMDL
MODEL 2
REMARK VINA RESULT:      -8.3      0.926      1.100
REMARK  Name = 
REMARK  3 active torsions:
REMARK  status: ('A' for Active; 'I' for Inactive)
REMARK    1  A    between atoms: C_7  and  N_8
REMARK    2  A    between atoms: N_11  and  C_12
REMARK    3  A    between atoms: N_20  and  C_21
REMARK                            x       y       z     vdW  Elec       q    Type
REMARK                         _______ _______ _______ _____ _____    ______ ____
ROOT
ATOM      1  C   UNL     1       0.909   9.630  20.010  0.00  0.00    +0.000 A 
ATOM      2  N   UNL     1       0.699  10.441  18.943  0.00  0.00    +0.000 NA
ATOM      3  C   UNL     1      -0.059  11.540  19.091  0.00  0.00    +0.000 A 
ATOM      4  N   UNL     1      -0.656  11.984  20.203  0.00  0.00    +0.000 NA
ATOM      5  C   UNL     1      -0.397  11.199  21.270  0.00  0.00    +0.000 A 
ATOM      6  C   UNL     1       0.377  10.049  21.244  0.00  0.00    +0.000 A 
ATOM      7  C   UNL     1       0.420   9.627  22.582  0.00  0.00    +0.000 A 
ATOM      8  N   UNL     1      -0.290  10.397  23.402  0.00  0.00    +0.000 NA
ATOM      9  N   UNL     1      -0.827  11.358  22.588  0.00  0.00    +0.000 N 
ENDROOT
BRANCH   1  13
ATOM     10  N   UNL     1       2.390   5.806  19.184  0.00  0.00    +0.000 N 
ATOM     11  C   UNL     1       1.518   6.040  20.348  0.00  0.00    +0.000 C 
ATOM     12  C   UNL     1       1.777   7.465  20.877  0.00  0.00    +0.000 C 
ATOM     13  N   UNL     1       1.586   8.452  19.811  0.00  0.00    +0.000 N 
ATOM     14  C   UNL     1       2.279   8.201  18.537  0.00  0.00    +0.000 C 
ATOM     15  C   UNL     1       2.093   6.737  18.069  0.00  0.00    +0.000 C 
BRANCH  10  22
ATOM     16  F   UNL     1       4.804   5.024  17.794  0.00  0.00    +0.000 F 
ATOM     17  C   UNL     1       3.870   4.117  18.128  0.00  0.00    +0.000 A 
ATOM     18  C   UNL     1       4.094   2.795  17.743  0.00  0.00    +0.000 A 
ATOM     19  C   UNL     1       3.161   1.811  18.060  0.00  0.00    +0.000 A 
ATOM     20  C   UNL     1       2.015   2.156  18.769  0.00  0.00    +0.000 A 
ATOM     21  C   UNL     1       1.802   3.481  19.154  0.00  0.00    +0.000 A 
ATOM     22  C   UNL     1       2.721   4.498  18.842  0.00  0.00    +0.000 A 
ENDBRANCH  10  22
ENDBRANCH   1  13
BRANCH   9  23
ATOM     23  C   UNL     1      -1.709  12.331  23.146  0.00  0.00    +0.000 A 
ATOM     24  C   UNL     1      -1.226  13.632  23.379  0.00  0.00    +0.000 A 
ATOM     25  C   UNL     1      -2.061  14.607  23.922  0.00  0.00    +0.000 A 
ATOM     26  C   UNL     1      -3.380  14.296  24.241  0.00  0.00    +0.000 A 
ATOM     27  C   UNL     1      -3.863  13.007  24.020  0.00  0.00    +0.000 A 
ATOM     28  C   UNL     1      -3.033  12.026  23.475  0.00  0.00    +0.000 A 
ENDBRANCH   9  23
TORSDOF 3
ENDMDL
MODEL 3
REMARK VINA RESULT:      -8.3      3.854      5.494
REMARK  Name = 
REMARK  3 active torsions:
REMARK  status: ('A' for Active; 'I' for Inactive)
REMARK    1  A    between atoms: C_7  and  N_8
REMARK    2  A    between atoms: N_11  and  C_12
REMARK    3  A    between atoms: N_20  and  C_21
REMARK                            x       y       z     vdW  Elec       q    Type
REMARK                         _______ _______ _______ _____ _____    ______ ____
ROOT
ATOM      1  C   UNL     1       3.209   5.700  18.936  0.00  0.00    +0.000 A 
ATOM      2  N   UNL     1       2.918   4.802  19.910  0.00  0.00    +0.000 NA
ATOM      3  C   UNL     1       2.129   5.173  20.933  0.00  0.00    +0.000 A 
ATOM      4  N   UNL     1       1.545   6.361  21.132  0.00  0.00    +0.000 NA
ATOM      5  C   UNL     1       1.799   7.230  20.132  0.00  0.00    +0.000 A 
ATOM      6  C   UNL     1       2.586   6.959  19.022  0.00  0.00    +0.000 A 
ATOM      7  C   UNL     1       2.493   8.120  18.238  0.00  0.00    +0.000 A 
ATOM      8  N   UNL     1       1.754   9.076  18.794  0.00  0.00    +0.000 NA
ATOM      9  N   UNL     1       1.345   8.541  19.986  0.00  0.00    +0.000 N 
ENDROOT
BRANCH   1  13
ATOM     10  N   UNL     1       5.456   4.709  15.550  0.00  0.00    +0.000 N 
ATOM     11  C   UNL     1       4.426   3.791  16.064  0.00  0.00    +0.000 C 
ATOM     12  C   UNL     1       4.354   3.943  17.597  0.00  0.00    +0.000 C 
ATOM     13  N   UNL     1       4.110   5.340  17.965  0.00  0.00    +0.000 N 
ATOM     14  C   UNL     1       4.981   6.354  17.349  0.00  0.00    +0.000 C 
ATOM     15  C   UNL     1       5.125   6.128  15.823  0.00  0.00    +0.000 C 
BRANCH  10  22
ATOM     16  F   UNL     1       8.005   5.770  14.686  0.00  0.00    +0.000 F 
ATOM     17  C   UNL     1       7.277   4.975  13.884  0.00  0.00    +0.000 A 
ATOM     18  C   UNL     1       7.780   4.716  12.609  0.00  0.00    +0.000 A 
ATOM     19  C   UNL     1       7.068   3.899  11.733  0.00  0.00    +0.000 A 
ATOM     20  C   UNL     1       5.863   3.340  12.144  0.00  0.00    +0.000 A 
ATOM     21  C   UNL     1       5.369   3.601  13.424  0.00  0.00    +0.000 A 
ATOM     22  C   UNL     1       6.060   4.428  14.327  0.00  0.00    +0.000 A 
ENDBRANCH  10  22
ENDBRANCH   1  13
BRANCH   9  23
ATOM     23  C   UNL     1       0.569   9.339  20.878  0.00  0.00    +0.000 A 
ATOM     24  C   UNL     1      -0.123  10.453  20.368  0.00  0.00    +0.000 A 
ATOM     25  C   UNL     1      -0.892  11.253  21.211  0.00  0.00    +0.000 A 
ATOM     26  C   UNL     1      -0.976  10.954  22.568  0.00  0.00    +0.000 A 
ATOM     27  C   UNL     1      -0.288   9.858  23.083  0.00  0.00    +0.000 A 
ATOM     28  C   UNL     1       0.483   9.050  22.244  0.00  0.00    +0.000 A 
ENDBRANCH   9  23
TORSDOF 3
ENDMDL
MODEL 4
REMARK VINA RESULT:      -8.2      0.717      1.164
REMARK  Name = 
REMARK  3 active torsions:
REMARK  status: ('A' for Active; 'I' for Inactive)
REMARK    1  A    between atoms: C_7  and  N_8
REMARK    2  A    between atoms: N_11  and  C_12
REMARK    3  A    between atoms: N_20  and  C_21
REMARK                            x       y       z     vdW  Elec       q    Type
REMARK                         _______ _______ _______ _____ _____    ______ ____
ROOT
ATOM      1  C   UNL     1       1.012   9.608  20.008  0.00  0.00    +0.000 A 
ATOM      2  N   UNL     1       0.894  10.459  18.959  0.00  0.00    +0.000 NA
ATOM      3  C   UNL     1       0.189  11.593  19.107  0.00  0.00    +0.000 A 
ATOM      4  N   UNL     1      -0.434  12.036  20.206  0.00  0.00    +0.000 NA
ATOM      5  C   UNL     1      -0.266  11.209  21.258  0.00  0.00    +0.000 A 
ATOM      6  C   UNL     1       0.447  10.019  21.230  0.00  0.00    +0.000 A 
ATOM      7  C   UNL     1       0.406   9.558  22.555  0.00  0.00    +0.000 A 
ATOM      8  N   UNL     1      -0.299  10.341  23.367  0.00  0.00    +0.000 NA
ATOM      9  N   UNL     1      -0.747  11.353  22.560  0.00  0.00    +0.000 N 
ENDROOT
BRANCH   1  13
ATOM     10  N   UNL     1       2.307   5.714  19.199  0.00  0.00    +0.000 N 
ATOM     11  C   UNL     1       1.506   6.006  20.401  0.00  0.00    +0.000 C 
ATOM     12  C   UNL     1       1.844   7.431  20.881  0.00  0.00    +0.000 C 
ATOM     13  N   UNL     1       1.633   8.401  19.803  0.00  0.00    +0.000 N 
ATOM     14  C   UNL     1       2.248   8.096  18.501  0.00  0.00    +0.000 C 
ATOM     15  C   UNL     1       1.985   6.629  18.079  0.00  0.00    +0.000 C 
BRANCH  10  22
ATOM     16  F   UNL     1       0.575   3.483  19.830  0.00  0.00    +0.000 F 
ATOM     17  C   UNL     1       1.755   3.294  19.215  0.00  0.00    +0.000 A 
ATOM     18  C   UNL     1       2.125   1.979  18.930  0.00  0.00    +0.000 A 
ATOM     19  C   UNL     1       3.338   1.721  18.294  0.00  0.00    +0.000 A 
ATOM     20  C   UNL     1       4.165   2.781  17.940  0.00  0.00    +0.000 A 
ATOM     21  C   UNL     1       3.783   4.094  18.224  0.00  0.00    +0.000 A 
ATOM     22  C   UNL     1       2.571   4.386  18.872  0.00  0.00    +0.000 A 
ENDBRANCH  10  22
ENDBRANCH   1  13
BRANCH   9  23
ATOM     23  C   UNL     1      -1.601  12.356  23.109  0.00  0.00    +0.000 A 
ATOM     24  C   UNL     1      -2.933  12.023  23.414  0.00  0.00    +0.000 A 
ATOM     25  C   UNL     1      -3.793  12.978  23.953  0.00  0.00    +0.000 A 
ATOM     26  C   UNL     1      -3.337  14.272  24.188  0.00  0.00    +0.000 A 
ATOM     27  C   UNL     1      -2.021  14.612  23.880  0.00  0.00    +0.000 A 
ATOM     28  C   UNL     1      -1.153  13.660  23.343  0.00  0.00    +0.000 A 
ENDBRANCH   9  23
TORSDOF 3
ENDMDL
MODEL 5
REMARK VINA RESULT:      -8.0      1.297      1.821
REMARK  Name = 
REMARK  3 active torsions:
REMARK  status: ('A' for Active; 'I' for Inactive)
REMARK    1  A    between atoms: C_7  and  N_8
REMARK    2  A    between atoms: N_11  and  C_12
REMARK    3  A    between atoms: N_20  and  C_21
REMARK                            x       y       z     vdW  Elec       q    Type
REMARK                         _______ _______ _______ _____ _____    ______ ____
ROOT
ATOM      1  C   UNL     1       0.552  10.170  19.842  0.00  0.00    +0.000 A 
ATOM      2  N   UNL     1       0.184  10.916  18.770  0.00  0.00    +0.000 NA
ATOM      3  C   UNL     1      -0.690  11.923  18.937  0.00  0.00    +0.000 A 
ATOM      4  N   UNL     1      -1.270  12.329  20.074  0.00  0.00    +0.000 NA
ATOM      5  C   UNL     1      -0.857  11.615  21.141  0.00  0.00    +0.000 A 
ATOM      6  C   UNL     1       0.047  10.563  21.096  0.00  0.00    +0.000 A 
ATOM      7  C   UNL     1       0.218  10.193  22.439  0.00  0.00    +0.000 A 
ATOM      8  N   UNL     1      -0.529  10.900  23.282  0.00  0.00    +0.000 NA
ATOM      9  N   UNL     1      -1.224  11.764  22.479  0.00  0.00    +0.000 N 
ENDROOT
BRANCH   1  13
ATOM     10  N   UNL     1       2.432   6.532  18.994  0.00  0.00    +0.000 N 
ATOM     11  C   UNL     1       1.567   6.673  20.178  0.00  0.00    +0.000 C 
ATOM     12  C   UNL     1       1.677   8.121  20.695  0.00  0.00    +0.000 C 
ATOM     13  N   UNL     1       1.351   9.075  19.631  0.00  0.00    +0.000 N 
ATOM     14  C   UNL     1       2.037   8.894  18.341  0.00  0.00    +0.000 C 
ATOM     15  C   UNL     1       2.006   7.416  17.883  0.00  0.00    +0.000 C 
BRANCH  10  22
ATOM     16  F   UNL     1       5.026   5.475  19.720  0.00  0.00    +0.000 F 
ATOM     17  C   UNL     1       4.175   4.765  18.961  0.00  0.00    +0.000 A 
ATOM     18  C   UNL     1       4.608   3.519  18.506  0.00  0.00    +0.000 A 
ATOM     19  C   UNL     1       3.769   2.737  17.715  0.00  0.00    +0.000 A 
ATOM     20  C   UNL     1       2.500   3.205  17.393  0.00  0.00    +0.000 A 
ATOM     21  C   UNL     1       2.073   4.451  17.856  0.00  0.00    +0.000 A 
ATOM     22  C   UNL     1       2.899   5.266  18.649  0.00  0.00    +0.000 A 
ENDBRANCH  10  22
ENDBRANCH   1  13
BRANCH   9  23
ATOM     23  C   UNL     1      -2.181  12.644  23.067  0.00  0.00    +0.000 A 
ATOM     24  C   UNL     1      -3.339  12.098  23.651  0.00  0.00    +0.000 A 
ATOM     25  C   UNL     1      -4.293  12.929  24.235  0.00  0.00    +0.000 A 
ATOM     26  C   UNL     1      -4.106  14.309  24.240  0.00  0.00    +0.000 A 
ATOM     27  C   UNL     1      -2.967  14.858  23.655  0.00  0.00    +0.000 A 
ATOM     28  C   UNL     1      -2.005  14.031  23.070  0.00  0.00    +0.000 A 
ENDBRANCH   9  23
TORSDOF 3
ENDMDL
MODEL 6
REMARK VINA RESULT:      -8.0      1.403      2.117
REMARK  Name = 
REMARK  3 active torsions:
REMARK  status: ('A' for Active; 'I' for Inactive)
REMARK    1  A    between atoms: C_7  and  N_8
REMARK    2  A    between atoms: N_11  and  C_12
REMARK    3  A    between atoms: N_20  and  C_21
REMARK                            x       y       z     vdW  Elec       q    Type
REMARK                         _______ _______ _______ _____ _____    ______ ____
ROOT
ATOM      1  C   UNL     1       0.746  10.716  19.949  0.00  0.00    +0.000 A 
ATOM      2  N   UNL     1       1.077  11.825  19.241  0.00  0.00    +0.000 NA
ATOM      3  C   UNL     1       0.666  13.029  19.673  0.00  0.00    +0.000 A 
ATOM      4  N   UNL     1      -0.049  13.310  20.769  0.00  0.00    +0.000 NA
ATOM      5  C   UNL     1      -0.329  12.206  21.493  0.00  0.00    +0.000 A 
ATOM      6  C   UNL     1       0.050  10.915  21.156  0.00  0.00    +0.000 A 
ATOM      7  C   UNL     1      -0.394  10.129  22.232  0.00  0.00    +0.000 A 
ATOM      8  N   UNL     1      -1.038  10.825  23.165  0.00  0.00    +0.000 NA
ATOM      9  N   UNL     1      -1.030  12.112  22.696  0.00  0.00    +0.000 N 
ENDROOT
BRANCH   1  13
ATOM     10  N   UNL     1       2.371   7.152  18.484  0.00  0.00    +0.000 N 
ATOM     11  C   UNL     1       2.478   8.401  17.711  0.00  0.00    +0.000 C 
ATOM     12  C   UNL     1       1.229   9.260  17.990  0.00  0.00    +0.000 C 
ATOM     13  N   UNL     1       1.073   9.489  19.429  0.00  0.00    +0.000 N 
ATOM     14  C   UNL     1       1.138   8.307  20.303  0.00  0.00    +0.000 C 
ATOM     15  C   UNL     1       2.341   7.401  19.945  0.00  0.00    +0.000 C 
BRANCH  10  22
ATOM     16  F   UNL     1       1.169   4.590  17.880  0.00  0.00    +0.000 F 
ATOM     17  C   UNL     1       2.498   4.770  17.798  0.00  0.00    +0.000 A 
ATOM     18  C   UNL     1       3.275   3.664  17.449  0.00  0.00    +0.000 A 
ATOM     19  C   UNL     1       4.658   3.790  17.350  0.00  0.00    +0.000 A 
ATOM     20  C   UNL     1       5.254   5.023  17.590  0.00  0.00    +0.000 A 
ATOM     21  C   UNL     1       4.468   6.126  17.934  0.00  0.00    +0.000 A 
ATOM     22  C   UNL     1       3.071   6.029  18.050  0.00  0.00    +0.000 A 
ENDBRANCH  10  22
ENDBRANCH   1  13
BRANCH   9  23
ATOM     23  C   UNL     1      -1.701  13.128  23.439  0.00  0.00    +0.000 A 
ATOM     24  C   UNL     1      -3.046  12.929  23.803  0.00  0.00    +0.000 A 
ATOM     25  C   UNL     1      -3.732  13.901  24.530  0.00  0.00    +0.000 A 
ATOM     26  C   UNL     1      -3.088  15.079  24.897  0.00  0.00    +0.000 A 
ATOM     27  C   UNL     1      -1.759  15.288  24.533  0.00  0.00    +0.000 A 
ATOM     28  C   UNL     1      -1.065  14.318  23.807  0.00  0.00    +0.000 A 
ENDBRANCH   9  23
TORSDOF 3
ENDMDL
MODEL 7
REMARK VINA RESULT:      -7.9      2.700      9.547
REMARK  Name = 
REMARK  3 active torsions:
REMARK  status: ('A' for Active; 'I' for Inactive)
REMARK    1  A    between atoms: C_7  and  N_8
REMARK    2  A    between atoms: N_11  and  C_12
REMARK    3  A    between atoms: N_20  and  C_21
REMARK                            x       y       z     vdW  Elec       q    Type
REMARK                         _______ _______ _______ _____ _____    ______ ____
ROOT
ATOM      1  C   UNL     1       1.194   9.822  19.781  0.00  0.00    +0.000 A 
ATOM      2  N   UNL     1       1.488  10.325  18.556  0.00  0.00    +0.000 NA
ATOM      3  C   UNL     1       2.096   9.539  17.651  0.00  0.00    +0.000 A 
ATOM      4  N   UNL     1       2.458   8.257  17.785  0.00  0.00    +0.000 NA
ATOM      5  C   UNL     1       2.114   7.753  18.988  0.00  0.00    +0.000 A 
ATOM      6  C   UNL     1       1.476   8.460  19.997  0.00  0.00    +0.000 A 
ATOM      7  C   UNL     1       1.263   7.510  21.008  0.00  0.00    +0.000 A 
ATOM      8  N   UNL     1       1.749   6.307  20.714  0.00  0.00    +0.000 NA
ATOM      9  N   UNL     1       2.309   6.459  19.473  0.00  0.00    +0.000 N 
ENDROOT
BRANCH   1  13
ATOM     10  N   UNL     1      -0.956  12.245  22.427  0.00  0.00    +0.000 N 
ATOM     11  C   UNL     1      -0.810  12.623  21.011  0.00  0.00    +0.000 C 
ATOM     12  C   UNL     1       0.555  12.115  20.506  0.00  0.00    +0.000 C 
ATOM     13  N   UNL     1       0.683  10.673  20.730  0.00  0.00    +0.000 N 
ATOM     14  C   UNL     1       0.375  10.177  22.081  0.00  0.00    +0.000 C 
ATOM     15  C   UNL     1      -0.951  10.775  22.616  0.00  0.00    +0.000 C 
BRANCH  10  22
ATOM     16  F   UNL     1      -0.346  14.833  23.568  0.00  0.00    +0.000 F 
ATOM     17  C   UNL     1      -1.512  14.217  23.827  0.00  0.00    +0.000 A 
ATOM     18  C   UNL     1      -2.395  14.857  24.698  0.00  0.00    +0.000 A 
ATOM     19  C   UNL     1      -3.619  14.267  25.005  0.00  0.00    +0.000 A 
ATOM     20  C   UNL     1      -3.953  13.045  24.432  0.00  0.00    +0.000 A 
ATOM     21  C   UNL     1      -3.065  12.414  23.558  0.00  0.00    +0.000 A 
ATOM     22  C   UNL     1      -1.820  12.980  23.235  0.00  0.00    +0.000 A 
ENDBRANCH  10  22
ENDBRANCH   1  13
BRANCH   9  23
ATOM     23  C   UNL     1       2.984   5.355  18.874  0.00  0.00    +0.000 A 
ATOM     24  C   UNL     1       2.286   4.545  17.960  0.00  0.00    +0.000 A 
ATOM     25  C   UNL     1       2.917   3.459  17.354  0.00  0.00    +0.000 A 
ATOM     26  C   UNL     1       4.244   3.168  17.656  0.00  0.00    +0.000 A 
ATOM     27  C   UNL     1       4.940   3.960  18.568  0.00  0.00    +0.000 A 
ATOM     28  C   UNL     1       4.316   5.051  19.176  0.00  0.00    +0.000 A 
ENDBRANCH   9  23
TORSDOF 3
ENDMDL
MODEL 8
REMARK VINA RESULT:      -7.9      1.212      1.600
REMARK  Name = 
REMARK  3 active torsions:
REMARK  status: ('A' for Active; 'I' for Inactive)
REMARK    1  A    between atoms: C_7  and  N_8
REMARK    2  A    between atoms: N_11  and  C_12
REMARK    3  A    between atoms: N_20  and  C_21
REMARK                            x       y       z     vdW  Elec       q    Type
REMARK                         _______ _______ _______ _____ _____    ______ ____
ROOT
ATOM      1  C   UNL     1       0.245  10.296  19.676  0.00  0.00    +0.000 A 
ATOM      2  N   UNL     1      -0.305  10.829  18.556  0.00  0.00    +0.000 NA
ATOM      3  C   UNL     1      -1.299  11.725  18.673  0.00  0.00    +0.000 A 
ATOM      4  N   UNL     1      -1.844  12.207  19.797  0.00  0.00    +0.000 NA
ATOM      5  C   UNL     1      -1.255  11.710  20.904  0.00  0.00    +0.000 A 
ATOM      6  C   UNL     1      -0.216  10.791  20.910  0.00  0.00    +0.000 A 
ATOM      7  C   UNL     1       0.106  10.639  22.268  0.00  0.00    +0.000 A 
ATOM      8  N   UNL     1      -0.669  11.353  23.079  0.00  0.00    +0.000 NA
ATOM      9  N   UNL     1      -1.539  11.996  22.240  0.00  0.00    +0.000 N 
ENDROOT
BRANCH   1  13
ATOM     10  N   UNL     1       2.579   6.893  18.994  0.00  0.00    +0.000 N 
ATOM     11  C   UNL     1       1.609   6.930  20.102  0.00  0.00    +0.000 C 
ATOM     12  C   UNL     1       1.515   8.378  20.624  0.00  0.00    +0.000 C 
ATOM     13  N   UNL     1       1.175   9.297  19.534  0.00  0.00    +0.000 N 
ATOM     14  C   UNL     1       1.981   9.202  18.306  0.00  0.00    +0.000 C 
ATOM     15  C   UNL     1       2.151   7.732  17.850  0.00  0.00    +0.000 C 
BRANCH  10  22
ATOM     16  F   UNL     1       1.388   4.747  17.462  0.00  0.00    +0.000 F 
ATOM     17  C   UNL     1       2.620   4.626  17.985  0.00  0.00    +0.000 A 
ATOM     18  C   UNL     1       3.282   3.412  17.793  0.00  0.00    +0.000 A 
ATOM     19  C   UNL     1       4.561   3.228  18.314  0.00  0.00    +0.000 A 
ATOM     20  C   UNL     1       5.171   4.263  19.014  0.00  0.00    +0.000 A 
ATOM     21  C   UNL     1       4.503   5.475  19.197  0.00  0.00    +0.000 A 
ATOM     22  C   UNL     1       3.209   5.689  18.691  0.00  0.00    +0.000 A 
ENDBRANCH  10  22
ENDBRANCH   1  13
BRANCH   9  23
ATOM     23  C   UNL     1      -2.566  12.816  22.796  0.00  0.00    +0.000 A 
ATOM     24  C   UNL     1      -3.484  12.242  23.695  0.00  0.00    +0.000 A 
ATOM     25  C   UNL     1      -4.498  13.014  24.258  0.00  0.00    +0.000 A 
ATOM     26  C   UNL     1      -4.610  14.362  23.929  0.00  0.00    +0.000 A 
ATOM     27  C   UNL     1      -3.710  14.937  23.033  0.00  0.00    +0.000 A 
ATOM     28  C   UNL     1      -2.690  14.170  22.467  0.00  0.00    +0.000 A 
ENDBRANCH   9  23
TORSDOF 3
ENDMDL
MODEL 9
REMARK VINA RESULT:      -7.8      1.715      2.490
REMARK  Name = 
REMARK  3 active torsions:
REMARK  status: ('A' for Active; 'I' for Inactive)
REMARK    1  A    between atoms: C_7  and  N_8
REMARK    2  A    between atoms: N_11  and  C_12
REMARK    3  A    between atoms: N_20  and  C_21
REMARK                            x       y       z     vdW  Elec       q    Type
REMARK                         _______ _______ _______ _____ _____    ______ ____
ROOT
ATOM      1  C   UNL     1       0.783  10.825  20.091  0.00  0.00    +0.000 A 
ATOM      2  N   UNL     1       1.242  11.916  19.427  0.00  0.00    +0.000 NA
ATOM      3  C   UNL     1       0.904  13.141  19.861  0.00  0.00    +0.000 A 
ATOM      4  N   UNL     1       0.152  13.460  20.921  0.00  0.00    +0.000 NA
ATOM      5  C   UNL     1      -0.256  12.370  21.604  0.00  0.00    +0.000 A 
ATOM      6  C   UNL     1       0.038  11.059  21.262  0.00  0.00    +0.000 A 
ATOM      7  C   UNL     1      -0.528  10.294  22.294  0.00  0.00    +0.000 A 
ATOM      8  N   UNL     1      -1.167  11.023  23.204  0.00  0.00    +0.000 NA
ATOM      9  N   UNL     1      -1.030  12.313  22.764  0.00  0.00    +0.000 N 
ENDROOT
BRANCH   1  13
ATOM     10  N   UNL     1       2.208   7.210  18.543  0.00  0.00    +0.000 N 
ATOM     11  C   UNL     1       2.266   8.446  17.743  0.00  0.00    +0.000 C 
ATOM     12  C   UNL     1       1.062   9.331  18.120  0.00  0.00    +0.000 C 
ATOM     13  N   UNL     1       1.041   9.585  19.564  0.00  0.00    +0.000 N 
ATOM     14  C   UNL     1       1.165   8.415  20.448  0.00  0.00    +0.000 C 
ATOM     15  C   UNL     1       2.316   7.481  19.997  0.00  0.00    +0.000 C 
BRANCH  10  22
ATOM     16  F   UNL     1       4.941   7.122  17.597  0.00  0.00    +0.000 F 
ATOM     17  C   UNL     1       4.159   6.029  17.565  0.00  0.00    +0.000 A 
ATOM     18  C   UNL     1       4.706   4.866  17.022  0.00  0.00    +0.000 A 
ATOM     19  C   UNL     1       3.942   3.702  16.960  0.00  0.00    +0.000 A 
ATOM     20  C   UNL     1       2.642   3.709  17.452  0.00  0.00    +0.000 A 
ATOM     21  C   UNL     1       2.105   4.876  17.998  0.00  0.00    +0.000 A 
ATOM     22  C   UNL     1       2.847   6.068  18.067  0.00  0.00    +0.000 A 
ENDBRANCH  10  22
ENDBRANCH   1  13
BRANCH   9  23
ATOM     23  C   UNL     1      -1.660  13.367  23.490  0.00  0.00    +0.000 A 
ATOM     24  C   UNL     1      -3.024  13.251  23.813  0.00  0.00    +0.000 A 
ATOM     25  C   UNL     1      -3.671  14.261  24.522  0.00  0.00    +0.000 A 
ATOM     26  C   UNL     1      -2.967  15.397  24.913  0.00  0.00    +0.000 A 
ATOM     27  C   UNL     1      -1.617  15.524  24.590  0.00  0.00    +0.000 A 
ATOM     28  C   UNL     1      -0.962  14.515  23.881  0.00  0.00    +0.000 A 
ENDBRANCH   9  23
TORSDOF 3
ENDMDL
