MODEL 1
REMARK VINA RESULT:      -7.7      0.000      0.000
REMARK  Name = 
REMARK  4 active torsions:
REMARK  status: ('A' for Active; 'I' for Inactive)
REMARK    1  A    between atoms: O_1  and  N_2
REMARK    2  A    between atoms: C_3  and  C_4
REMARK    3  A    between atoms: N_12  and  C_13
REMARK    4  A    between atoms: C_13  and  C_14
REMARK                            x       y       z     vdW  Elec       q    Type
REMARK                         _______ _______ _______ _____ _____    ______ ____
ROOT
ATOM      1  C   UNL     1       3.216   4.065  19.727  0.00  0.00    +0.000 A 
ATOM      2  C   UNL     1       2.376   4.605  20.685  0.00  0.00    +0.000 A 
ATOM      3  C   UNL     1       2.086   5.947  20.337  0.00  0.00    +0.000 A 
ATOM      4  C   UNL     1       1.311   6.957  20.937  0.00  0.00    +0.000 A 
ATOM      5  C   UNL     1       1.201   8.202  20.312  0.00  0.00    +0.000 A 
ATOM      6  C   UNL     1       1.838   8.441  19.098  0.00  0.00    +0.000 A 
ATOM      7  C   UNL     1       2.620   7.455  18.489  0.00  0.00    +0.000 A 
ATOM      8  C   UNL     1       2.746   6.214  19.137  0.00  0.00    +0.000 A 
ATOM      9  N   UNL     1       3.470   5.075  18.813  0.00  0.00    +0.000 N 
ENDROOT
BRANCH   1  11
ATOM     10  N   UNL     1       4.891   2.443  20.192  0.00  0.00    +0.000 NA
ATOM     11  C   UNL     1       3.732   2.716  19.677  0.00  0.00    +0.000 C 
BRANCH  10  12
ATOM     12  O   UNL     1       5.162   1.079  20.030  0.00  0.00    +0.000 OA
ATOM     13  H   UNL     1       5.465   1.039  19.103  0.00  0.00    +0.000 HD
ENDBRANCH  10  12
ENDBRANCH   1  11
BRANCH   9  14
ATOM     14  C   UNL     1       4.423   4.994  17.703  0.00  0.00    +0.000 C 
BRANCH  14  15
ATOM     15  C   UNL     1       5.731   5.706  17.939  0.00  0.00    +0.000 A 
ATOM     16  C   UNL     1       6.654   5.361  18.935  0.00  0.00    +0.000 A 
ATOM     17  C   UNL     1       7.831   6.100  19.101  0.00  0.00    +0.000 A 
ATOM     18  C   UNL     1       8.111   7.179  18.265  0.00  0.00    +0.000 A 
ATOM     19  C   UNL     1       7.219   7.515  17.251  0.00  0.00    +0.000 A 
ATOM     20  C   UNL     1       6.048   6.779  17.095  0.00  0.00    +0.000 A 
ATOM     21  F   UNL     1       5.201   7.116  16.111  0.00  0.00    +0.000 F 
ENDBRANCH  14  15
ENDBRANCH   9  14
TORSDOF 4
ENDMDL
MODEL 2
REMARK VINA RESULT:      -7.7      1.369      1.668
REMARK  Name = 
REMARK  4 active torsions:
REMARK  status: ('A' for Active; 'I' for Inactive)
REMARK    1  A    between atoms: O_1  and  N_2
REMARK    2  A    between atoms: C_3  and  C_4
REMARK    3  A    between atoms: N_12  and  C_13
REMARK    4  A    between atoms: C_13  and  C_14
REMARK                            x       y       z     vdW  Elec       q    Type
REMARK                         _______ _______ _______ _____ _____    ______ ____
ROOT
ATOM      1  C   UNL     1       2.433   5.494  20.154  0.00  0.00    +0.000 A 
ATOM      2  C   UNL     1       1.718   6.487  20.802  0.00  0.00    +0.000 A 
ATOM      3  C   UNL     1       1.684   7.640  19.979  0.00  0.00    +0.000 A 
ATOM      4  C   UNL     1       1.118   8.920  20.129  0.00  0.00    +0.000 A 
ATOM      5  C   UNL     1       1.240   9.851  19.095  0.00  0.00    +0.000 A 
ATOM      6  C   UNL     1       1.900   9.514  17.917  0.00  0.00    +0.000 A 
ATOM      7  C   UNL     1       2.477   8.251  17.750  0.00  0.00    +0.000 A 
ATOM      8  C   UNL     1       2.372   7.330  18.806  0.00  0.00    +0.000 A 
ATOM      9  N   UNL     1       2.865   6.041  18.956  0.00  0.00    +0.000 N 
ENDROOT
BRANCH   1  11
ATOM     10  N   UNL     1       2.234   3.770  21.777  0.00  0.00    +0.000 NA
ATOM     11  C   UNL     1       2.684   4.151  20.622  0.00  0.00    +0.000 C 
BRANCH  10  12
ATOM     12  O   UNL     1       2.594   2.435  21.998  0.00  0.00    +0.000 OA
ATOM     13  H   UNL     1       3.075   2.214  21.178  0.00  0.00    +0.000 HD
ENDBRANCH  10  12
ENDBRANCH   1  11
BRANCH   9  14
ATOM     14  C   UNL     1       3.777   5.394  18.009  0.00  0.00    +0.000 C 
BRANCH  14  15
ATOM     15  C   UNL     1       5.230   5.758  18.180  0.00  0.00    +0.000 A 
ATOM     16  C   UNL     1       6.040   5.317  19.235  0.00  0.00    +0.000 A 
ATOM     17  C   UNL     1       7.373   5.734  19.329  0.00  0.00    +0.000 A 
ATOM     18  C   UNL     1       7.919   6.577  18.364  0.00  0.00    +0.000 A 
ATOM     19  C   UNL     1       7.137   6.998  17.293  0.00  0.00    +0.000 A 
ATOM     20  C   UNL     1       5.810   6.584  17.208  0.00  0.00    +0.000 A 
ATOM     21  F   UNL     1       5.071   6.999  16.168  0.00  0.00    +0.000 F 
ENDBRANCH  14  15
ENDBRANCH   9  14
TORSDOF 4
ENDMDL
MODEL 3
REMARK VINA RESULT:      -7.4      1.694      2.244
REMARK  Name = 
REMARK  4 active torsions:
REMARK  status: ('A' for Active; 'I' for Inactive)
REMARK    1  A    between atoms: O_1  and  N_2
REMARK    2  A    between atoms: C_3  and  C_4
REMARK    3  A    between atoms: N_12  and  C_13
REMARK    4  A    between atoms: C_13  and  C_14
REMARK                            x       y       z     vdW  Elec       q    Type
REMARK                         _______ _______ _______ _____ _____    ______ ____
ROOT
ATOM      1  C   UNL     1       2.439   5.569  20.103  0.00  0.00    +0.000 A 
ATOM      2  C   UNL     1       1.720   6.554  20.758  0.00  0.00    +0.000 A 
ATOM      3  C   UNL     1       1.676   7.709  19.941  0.00  0.00    +0.000 A 
ATOM      4  C   UNL     1       1.102   8.986  20.099  0.00  0.00    +0.000 A 
ATOM      5  C   UNL     1       1.214   9.922  19.067  0.00  0.00    +0.000 A 
ATOM      6  C   UNL     1       1.872   9.594  17.886  0.00  0.00    +0.000 A 
ATOM      7  C   UNL     1       2.456   8.336  17.711  0.00  0.00    +0.000 A 
ATOM      8  C   UNL     1       2.361   7.409  18.763  0.00  0.00    +0.000 A 
ATOM      9  N   UNL     1       2.863   6.123  18.906  0.00  0.00    +0.000 N 
ENDROOT
BRANCH   1  11
ATOM     10  N   UNL     1       2.269   3.840  21.725  0.00  0.00    +0.000 NA
ATOM     11  C   UNL     1       2.701   4.225  20.564  0.00  0.00    +0.000 C 
BRANCH  10  12
ATOM     12  O   UNL     1       2.636   2.505  21.939  0.00  0.00    +0.000 OA
ATOM     13  H   UNL     1       2.374   2.368  22.869  0.00  0.00    +0.000 HD
ENDBRANCH  10  12
ENDBRANCH   1  11
BRANCH   9  14
ATOM     14  C   UNL     1       3.775   5.485  17.953  0.00  0.00    +0.000 C 
BRANCH  14  15
ATOM     15  C   UNL     1       5.202   5.965  18.025  0.00  0.00    +0.000 A 
ATOM     16  C   UNL     1       5.735   6.996  17.239  0.00  0.00    +0.000 A 
ATOM     17  C   UNL     1       7.083   7.353  17.353  0.00  0.00    +0.000 A 
ATOM     18  C   UNL     1       7.911   6.702  18.265  0.00  0.00    +0.000 A 
ATOM     19  C   UNL     1       7.390   5.698  19.076  0.00  0.00    +0.000 A 
ATOM     20  C   UNL     1       6.050   5.344  18.953  0.00  0.00    +0.000 A 
ATOM     21  F   UNL     1       5.564   4.375  19.743  0.00  0.00    +0.000 F 
ENDBRANCH  14  15
ENDBRANCH   9  14
TORSDOF 4
ENDMDL
MODEL 4
REMARK VINA RESULT:      -7.3      2.410      5.124
REMARK  Name = 
REMARK  4 active torsions:
REMARK  status: ('A' for Active; 'I' for Inactive)
REMARK    1  A    between atoms: O_1  and  N_2
REMARK    2  A    between atoms: C_3  and  C_4
REMARK    3  A    between atoms: N_12  and  C_13
REMARK    4  A    between atoms: C_13  and  C_14
REMARK                            x       y       z     vdW  Elec       q    Type
REMARK                         _______ _______ _______ _____ _____    ______ ____
ROOT
ATOM      1  C   UNL     1       2.772   4.072  18.002  0.00  0.00    +0.000 A 
ATOM      2  C   UNL     1       3.464   3.556  16.920  0.00  0.00    +0.000 A 
ATOM      3  C   UNL     1       4.743   4.162  16.862  0.00  0.00    +0.000 A 
ATOM      4  C   UNL     1       5.839   4.030  15.987  0.00  0.00    +0.000 A 
ATOM      5  C   UNL     1       7.001   4.768  16.225  0.00  0.00    +0.000 A 
ATOM      6  C   UNL     1       7.085   5.617  17.324  0.00  0.00    +0.000 A 
ATOM      7  C   UNL     1       6.006   5.770  18.201  0.00  0.00    +0.000 A 
ATOM      8  C   UNL     1       4.832   5.043  17.940  0.00  0.00    +0.000 A 
ATOM      9  N   UNL     1       3.605   5.013  18.587  0.00  0.00    +0.000 N 
ENDROOT
BRANCH   1  11
ATOM     10  N   UNL     1       1.287   2.757  19.310  0.00  0.00    +0.000 NA
ATOM     11  C   UNL     1       1.446   3.710  18.444  0.00  0.00    +0.000 C 
BRANCH  10  12
ATOM     12  O   UNL     1      -0.078   2.602  19.585  0.00  0.00    +0.000 OA
ATOM     13  H   UNL     1      -0.069   2.358  20.531  0.00  0.00    +0.000 HD
ENDBRANCH  10  12
ENDBRANCH   1  11
BRANCH   9  14
ATOM     14  C   UNL     1       3.230   5.912  19.682  0.00  0.00    +0.000 C 
BRANCH  14  15
ATOM     15  C   UNL     1       2.567   7.194  19.249  0.00  0.00    +0.000 A 
ATOM     16  C   UNL     1       2.725   7.783  17.987  0.00  0.00    +0.000 A 
ATOM     17  C   UNL     1       2.094   8.995  17.685  0.00  0.00    +0.000 A 
ATOM     18  C   UNL     1       1.282   9.624  18.627  0.00  0.00    +0.000 A 
ATOM     19  C   UNL     1       1.089   9.035  19.873  0.00  0.00    +0.000 A 
ATOM     20  C   UNL     1       1.725   7.833  20.170  0.00  0.00    +0.000 A 
ATOM     21  F   UNL     1       1.526   7.279  21.376  0.00  0.00    +0.000 F 
ENDBRANCH  14  15
ENDBRANCH   9  14
TORSDOF 4
ENDMDL
MODEL 5
REMARK VINA RESULT:      -7.3      2.836      4.794
REMARK  Name = 
REMARK  4 active torsions:
REMARK  status: ('A' for Active; 'I' for Inactive)
REMARK    1  A    between atoms: O_1  and  N_2
REMARK    2  A    between atoms: C_3  and  C_4
REMARK    3  A    between atoms: N_12  and  C_13
REMARK    4  A    between atoms: C_13  and  C_14
REMARK                            x       y       z     vdW  Elec       q    Type
REMARK                         _______ _______ _______ _____ _____    ______ ____
ROOT
ATOM      1  C   UNL     1       3.385   7.331  17.867  0.00  0.00    +0.000 A 
ATOM      2  C   UNL     1       2.624   8.467  17.651  0.00  0.00    +0.000 A 
ATOM      3  C   UNL     1       1.802   8.690  18.782  0.00  0.00    +0.000 A 
ATOM      4  C   UNL     1       0.842   9.669  19.104  0.00  0.00    +0.000 A 
ATOM      5  C   UNL     1       0.207   9.627  20.348  0.00  0.00    +0.000 A 
ATOM      6  C   UNL     1       0.528   8.636  21.270  0.00  0.00    +0.000 A 
ATOM      7  C   UNL     1       1.471   7.649  20.968  0.00  0.00    +0.000 A 
ATOM      8  C   UNL     1       2.087   7.684  19.705  0.00  0.00    +0.000 A 
ATOM      9  N   UNL     1       3.011   6.839  19.108  0.00  0.00    +0.000 N 
ENDROOT
BRANCH   1  11
ATOM     10  N   UNL     1       5.631   7.055  17.140  0.00  0.00    +0.000 NA
ATOM     11  C   UNL     1       4.377   6.763  16.985  0.00  0.00    +0.000 C 
BRANCH  10  12
ATOM     12  O   UNL     1       6.390   6.377  16.178  0.00  0.00    +0.000 OA
ATOM     13  H   UNL     1       5.699   5.948  15.639  0.00  0.00    +0.000 HD
ENDBRANCH  10  12
ENDBRANCH   1  11
BRANCH   9  14
ATOM     14  C   UNL     1       3.458   5.568  19.685  0.00  0.00    +0.000 C 
BRANCH  14  15
ATOM     15  C   UNL     1       2.565   4.390  19.390  0.00  0.00    +0.000 A 
ATOM     16  C   UNL     1       1.346   4.137  20.034  0.00  0.00    +0.000 A 
ATOM     17  C   UNL     1       0.597   2.998  19.717  0.00  0.00    +0.000 A 
ATOM     18  C   UNL     1       1.043   2.110  18.740  0.00  0.00    +0.000 A 
ATOM     19  C   UNL     1       2.236   2.364  18.069  0.00  0.00    +0.000 A 
ATOM     20  C   UNL     1       2.978   3.495  18.394  0.00  0.00    +0.000 A 
ATOM     21  F   UNL     1       4.124   3.725  17.736  0.00  0.00    +0.000 F 
ENDBRANCH  14  15
ENDBRANCH   9  14
TORSDOF 4
ENDMDL
MODEL 6
REMARK VINA RESULT:      -7.3      2.408      3.819
REMARK  Name = 
REMARK  4 active torsions:
REMARK  status: ('A' for Active; 'I' for Inactive)
REMARK    1  A    between atoms: O_1  and  N_2
REMARK    2  A    between atoms: C_3  and  C_4
REMARK    3  A    between atoms: N_12  and  C_13
REMARK    4  A    between atoms: C_13  and  C_14
REMARK                            x       y       z     vdW  Elec       q    Type
REMARK                         _______ _______ _______ _____ _____    ______ ____
ROOT
ATOM      1  C   UNL     1       2.550   6.348  18.698  0.00  0.00    +0.000 A 
ATOM      2  C   UNL     1       1.664   5.988  19.699  0.00  0.00    +0.000 A 
ATOM      3  C   UNL     1       2.044   4.725  20.216  0.00  0.00    +0.000 A 
ATOM      4  C   UNL     1       1.514   3.889  21.216  0.00  0.00    +0.000 A 
ATOM      5  C   UNL     1       2.156   2.685  21.518  0.00  0.00    +0.000 A 
ATOM      6  C   UNL     1       3.319   2.319  20.847  0.00  0.00    +0.000 A 
ATOM      7  C   UNL     1       3.858   3.130  19.844  0.00  0.00    +0.000 A 
ATOM      8  C   UNL     1       3.192   4.327  19.530  0.00  0.00    +0.000 A 
ATOM      9  N   UNL     1       3.450   5.301  18.576  0.00  0.00    +0.000 N 
ENDROOT
BRANCH   1  11
ATOM     10  N   UNL     1       1.881   8.601  18.345  0.00  0.00    +0.000 NA
ATOM     11  C   UNL     1       2.548   7.570  17.928  0.00  0.00    +0.000 C 
BRANCH  10  12
ATOM     12  O   UNL     1       2.043   9.658  17.440  0.00  0.00    +0.000 OA
ATOM     13  H   UNL     1       2.282   9.188  16.618  0.00  0.00    +0.000 HD
ENDBRANCH  10  12
ENDBRANCH   1  11
BRANCH   9  14
ATOM     14  C   UNL     1       4.482   5.188  17.542  0.00  0.00    +0.000 C 
BRANCH  14  15
ATOM     15  C   UNL     1       5.807   5.811  17.899  0.00  0.00    +0.000 A 
ATOM     16  C   UNL     1       6.640   5.365  18.935  0.00  0.00    +0.000 A 
ATOM     17  C   UNL     1       7.841   6.026  19.216  0.00  0.00    +0.000 A 
ATOM     18  C   UNL     1       8.236   7.126  18.456  0.00  0.00    +0.000 A 
ATOM     19  C   UNL     1       7.436   7.561  17.404  0.00  0.00    +0.000 A 
ATOM     20  C   UNL     1       6.240   6.902  17.134  0.00  0.00    +0.000 A 
ATOM     21  F   UNL     1       5.482   7.334  16.115  0.00  0.00    +0.000 F 
ENDBRANCH  14  15
ENDBRANCH   9  14
TORSDOF 4
ENDMDL
MODEL 7
REMARK VINA RESULT:      -7.2      3.027      4.949
REMARK  Name = 
REMARK  4 active torsions:
REMARK  status: ('A' for Active; 'I' for Inactive)
REMARK    1  A    between atoms: O_1  and  N_2
REMARK    2  A    between atoms: C_3  and  C_4
REMARK    3  A    between atoms: N_12  and  C_13
REMARK    4  A    between atoms: C_13  and  C_14
REMARK                            x       y       z     vdW  Elec       q    Type
REMARK                         _______ _______ _______ _____ _____    ______ ____
ROOT
ATOM      1  C   UNL     1       3.574   7.075  17.776  0.00  0.00    +0.000 A 
ATOM      2  C   UNL     1       2.883   8.223  17.429  0.00  0.00    +0.000 A 
ATOM      3  C   UNL     1       2.025   8.583  18.498  0.00  0.00    +0.000 A 
ATOM      4  C   UNL     1       1.105   9.631  18.690  0.00  0.00    +0.000 A 
ATOM      5  C   UNL     1       0.417   9.728  19.902  0.00  0.00    +0.000 A 
ATOM      6  C   UNL     1       0.646   8.806  20.919  0.00  0.00    +0.000 A 
ATOM      7  C   UNL     1       1.549   7.752  20.746  0.00  0.00    +0.000 A 
ATOM      8  C   UNL     1       2.219   7.648  19.515  0.00  0.00    +0.000 A 
ATOM      9  N   UNL     1       3.122   6.711  19.035  0.00  0.00    +0.000 N 
ENDROOT
BRANCH   1  11
ATOM     10  N   UNL     1       5.611   7.024  16.553  0.00  0.00    +0.000 NA
ATOM     11  C   UNL     1       4.571   6.385  16.992  0.00  0.00    +0.000 C 
BRANCH  10  12
ATOM     12  O   UNL     1       6.430   6.144  15.836  0.00  0.00    +0.000 OA
ATOM     13  H   UNL     1       7.137   5.950  16.481  0.00  0.00    +0.000 HD
ENDBRANCH  10  12
ENDBRANCH   1  11
BRANCH   9  14
ATOM     14  C   UNL     1       3.478   5.475  19.738  0.00  0.00    +0.000 C 
BRANCH  14  15
ATOM     15  C   UNL     1       2.705   4.255  19.304  0.00  0.00    +0.000 A 
ATOM     16  C   UNL     1       3.096   3.395  18.269  0.00  0.00    +0.000 A 
ATOM     17  C   UNL     1       2.297   2.302  17.914  0.00  0.00    +0.000 A 
ATOM     18  C   UNL     1       1.111   2.042  18.598  0.00  0.00    +0.000 A 
ATOM     19  C   UNL     1       0.726   2.868  19.649  0.00  0.00    +0.000 A 
ATOM     20  C   UNL     1       1.522   3.957  19.993  0.00  0.00    +0.000 A 
ATOM     21  F   UNL     1       1.136   4.742  21.010  0.00  0.00    +0.000 F 
ENDBRANCH  14  15
ENDBRANCH   9  14
TORSDOF 4
ENDMDL
MODEL 8
REMARK VINA RESULT:      -7.2      3.221      6.057
REMARK  Name = 
REMARK  4 active torsions:
REMARK  status: ('A' for Active; 'I' for Inactive)
REMARK    1  A    between atoms: O_1  and  N_2
REMARK    2  A    between atoms: C_3  and  C_4
REMARK    3  A    between atoms: N_12  and  C_13
REMARK    4  A    between atoms: C_13  and  C_14
REMARK                            x       y       z     vdW  Elec       q    Type
REMARK                         _______ _______ _______ _____ _____    ______ ____
ROOT
ATOM      1  C   UNL     1       3.446   7.135  17.782  0.00  0.00    +0.000 A 
ATOM      2  C   UNL     1       4.775   7.385  17.488  0.00  0.00    +0.000 A 
ATOM      3  C   UNL     1       5.367   6.198  16.992  0.00  0.00    +0.000 A 
ATOM      4  C   UNL     1       6.665   5.872  16.554  0.00  0.00    +0.000 A 
ATOM      5  C   UNL     1       6.929   4.583  16.085  0.00  0.00    +0.000 A 
ATOM      6  C   UNL     1       5.917   3.630  16.035  0.00  0.00    +0.000 A 
ATOM      7  C   UNL     1       4.623   3.928  16.473  0.00  0.00    +0.000 A 
ATOM      8  C   UNL     1       4.372   5.220  16.967  0.00  0.00    +0.000 A 
ATOM      9  N   UNL     1       3.228   5.795  17.502  0.00  0.00    +0.000 N 
ENDROOT
BRANCH   1  11
ATOM     10  N   UNL     1       2.032   9.027  17.516  0.00  0.00    +0.000 NA
ATOM     11  C   UNL     1       2.469   8.075  18.281  0.00  0.00    +0.000 C 
BRANCH  10  12
ATOM     12  O   UNL     1       1.093   9.793  18.217  0.00  0.00    +0.000 OA
ATOM     13  H   UNL     1       0.860   9.202  18.959  0.00  0.00    +0.000 HD
ENDBRANCH  10  12
ENDBRANCH   1  11
BRANCH   9  14
ATOM     14  C   UNL     1       1.996   5.058  17.797  0.00  0.00    +0.000 C 
BRANCH  14  15
ATOM     15  C   UNL     1       2.007   4.303  19.101  0.00  0.00    +0.000 A 
ATOM     16  C   UNL     1       2.141   4.900  20.363  0.00  0.00    +0.000 A 
ATOM     17  C   UNL     1       2.172   4.115  21.521  0.00  0.00    +0.000 A 
ATOM     18  C   UNL     1       2.051   2.729  21.438  0.00  0.00    +0.000 A 
ATOM     19  C   UNL     1       1.885   2.124  20.196  0.00  0.00    +0.000 A 
ATOM     20  C   UNL     1       1.861   2.911  19.048  0.00  0.00    +0.000 A 
ATOM     21  F   UNL     1       1.699   2.310  17.859  0.00  0.00    +0.000 F 
ENDBRANCH  14  15
ENDBRANCH   9  14
TORSDOF 4
ENDMDL
MODEL 9
REMARK VINA RESULT:      -7.2      2.215      4.648
REMARK  Name = 
REMARK  4 active torsions:
REMARK  status: ('A' for Active; 'I' for Inactive)
REMARK    1  A    between atoms: O_1  and  N_2
REMARK    2  A    between atoms: C_3  and  C_4
REMARK    3  A    between atoms: N_12  and  C_13
REMARK    4  A    between atoms: C_13  and  C_14
REMARK                            x       y       z     vdW  Elec       q    Type
REMARK                         _______ _______ _______ _____ _____    ______ ____
ROOT
ATOM      1  C   UNL     1       4.998   4.785  18.824  0.00  0.00    +0.000 A 
ATOM      2  C   UNL     1       4.813   3.506  19.320  0.00  0.00    +0.000 A 
ATOM      3  C   UNL     1       3.455   3.140  19.153  0.00  0.00    +0.000 A 
ATOM      4  C   UNL     1       2.717   1.986  19.475  0.00  0.00    +0.000 A 
ATOM      5  C   UNL     1       1.361   1.922  19.145  0.00  0.00    +0.000 A 
ATOM      6  C   UNL     1       0.745   2.984  18.489  0.00  0.00    +0.000 A 
ATOM      7  C   UNL     1       1.457   4.143  18.167  0.00  0.00    +0.000 A 
ATOM      8  C   UNL     1       2.814   4.209  18.526  0.00  0.00    +0.000 A 
ATOM      9  N   UNL     1       3.756   5.217  18.384  0.00  0.00    +0.000 N 
ENDROOT
BRANCH   1  11
ATOM     10  N   UNL     1       7.075   5.472  19.753  0.00  0.00    +0.000 NA
ATOM     11  C   UNL     1       6.233   5.531  18.767  0.00  0.00    +0.000 C 
BRANCH  10  12
ATOM     12  O   UNL     1       8.191   6.265  19.460  0.00  0.00    +0.000 OA
ATOM     13  H   UNL     1       8.913   5.768  19.889  0.00  0.00    +0.000 HD
ENDBRANCH  10  12
ENDBRANCH   1  11
BRANCH   9  14
ATOM     14  C   UNL     1       3.449   6.569  17.910  0.00  0.00    +0.000 C 
BRANCH  14  15
ATOM     15  C   UNL     1       2.584   7.384  18.837  0.00  0.00    +0.000 A 
ATOM     16  C   UNL     1       2.292   7.035  20.162  0.00  0.00    +0.000 A 
ATOM     17  C   UNL     1       1.450   7.838  20.940  0.00  0.00    +0.000 A 
ATOM     18  C   UNL     1       0.906   9.008  20.414  0.00  0.00    +0.000 A 
ATOM     19  C   UNL     1       1.212   9.386  19.110  0.00  0.00    +0.000 A 
ATOM     20  C   UNL     1       2.045   8.579  18.340  0.00  0.00    +0.000 A 
ATOM     21  F   UNL     1       2.331   8.958  17.085  0.00  0.00    +0.000 F 
ENDBRANCH  14  15
ENDBRANCH   9  14
TORSDOF 4
ENDMDL
