MODEL 1
REMARK VINA RESULT:      -7.9      0.000      0.000
REMARK  Name = 
REMARK  7 active torsions:
REMARK  status: ('A' for Active; 'I' for Inactive)
REMARK    1  A    between atoms: C_1  and  O_2
REMARK    2  A    between atoms: O_2  and  C_3
REMARK    3  A    between atoms: C_6  and  O_7
REMARK    4  A    between atoms: O_7  and  C_8
REMARK    5  A    between atoms: C_8  and  C_9
REMARK    6  A    between atoms: C_21  and  N_22
REMARK    7  A    between atoms: C_23  and  C_24
REMARK                            x       y       z     vdW  Elec       q    Type
REMARK                         _______ _______ _______ _____ _____    ______ ____
ROOT
ATOM      1  C   UNL     1       0.425   9.170  21.502  0.00  0.00    +0.000 A 
ATOM      2  N   UNL     1       0.921   7.904  21.502  0.00  0.00    +0.000 NA
ATOM      3  N   UNL     1       1.570   7.788  20.295  0.00  0.00    +0.000 N 
ATOM      4  C   UNL     1       2.254   6.635  19.840  0.00  0.00    +0.000 A 
ATOM      5  N   UNL     1       2.911   6.684  18.694  0.00  0.00    +0.000 NA
ATOM      6  C   UNL     1       3.348   5.441  18.326  0.00  0.00    +0.000 A 
ATOM      7  C   UNL     1       3.997   5.146  17.111  0.00  0.00    +0.000 A 
ATOM      8  C   UNL     1       4.362   3.840  16.820  0.00  0.00    +0.000 A 
ATOM      9  C   UNL     1       4.104   2.827  17.744  0.00  0.00    +0.000 A 
ATOM     10  C   UNL     1       3.478   3.103  18.975  0.00  0.00    +0.000 A 
ATOM     11  C   UNL     1       3.086   4.427  19.249  0.00  0.00    +0.000 A 
ATOM     12  S   UNL     1       2.250   5.128  20.621  0.00  0.00    +0.000 S 
ATOM     13  C   UNL     1       1.447   8.949  19.533  0.00  0.00    +0.000 A 
ATOM     14  C   UNL     1       0.717   9.848  20.273  0.00  0.00    +0.000 A 
ENDROOT
BRANCH  14  15
ATOM     15  C   UNL     1       0.370  11.167  19.761  0.00  0.00    +0.000 A 
ATOM     16  C   UNL     1      -0.903  11.401  19.207  0.00  0.00    +0.000 A 
ATOM     17  C   UNL     1      -1.193  12.591  18.544  0.00  0.00    +0.000 A 
ATOM     18  C   UNL     1      -0.233  13.595  18.488  0.00  0.00    +0.000 A 
ATOM     19  C   UNL     1       1.009  13.404  19.093  0.00  0.00    +0.000 A 
ATOM     20  C   UNL     1       1.319  12.192  19.716  0.00  0.00    +0.000 A 
ENDBRANCH  14  15
BRANCH  13  21
ATOM     21  N   UNL     1       1.972   9.053  18.276  0.00  0.00    +0.000 N 
ATOM     22  H   UNL     1       1.353   9.386  17.525  0.00  0.00    +0.000 HD
ATOM     23  H   UNL     1       2.672   8.394  17.952  0.00  0.00    +0.000 HD
ENDBRANCH  13  21
BRANCH   1  24
ATOM     24  C   UNL     1      -0.464   9.714  22.624  0.00  0.00    +0.000 C 
BRANCH  24  25
ATOM     25  O   UNL     1      -0.101  11.041  23.068  0.00  0.00    +0.000 OA
BRANCH  25  29
ATOM     26  C   UNL     1      -3.104  13.967  22.689  0.00  0.00    +0.000 A 
ATOM     27  C   UNL     1      -3.384  12.646  23.045  0.00  0.00    +0.000 A 
ATOM     28  C   UNL     1      -2.356  11.698  23.163  0.00  0.00    +0.000 A 
ATOM     29  C   UNL     1      -1.030  12.042  22.884  0.00  0.00    +0.000 A 
ATOM     30  C   UNL     1      -0.753  13.367  22.533  0.00  0.00    +0.000 A 
ATOM     31  C   UNL     1      -1.779  14.325  22.433  0.00  0.00    +0.000 A 
BRANCH  26  33
ATOM     32  C   UNL     1      -5.187  14.677  23.603  0.00  0.00    +0.000 C 
ATOM     33  O   UNL     1      -4.196  14.783  22.587  0.00  0.00    +0.000 OA
ENDBRANCH  26  33
ENDBRANCH  25  29
ENDBRANCH  24  25
ENDBRANCH   1  24
TORSDOF 6
ENDMDL
MODEL 2
REMARK VINA RESULT:      -7.8      0.301      1.258
REMARK  Name = 
REMARK  7 active torsions:
REMARK  status: ('A' for Active; 'I' for Inactive)
REMARK    1  A    between atoms: C_1  and  O_2
REMARK    2  A    between atoms: O_2  and  C_3
REMARK    3  A    between atoms: C_6  and  O_7
REMARK    4  A    between atoms: O_7  and  C_8
REMARK    5  A    between atoms: C_8  and  C_9
REMARK    6  A    between atoms: C_21  and  N_22
REMARK    7  A    between atoms: C_23  and  C_24
REMARK                            x       y       z     vdW  Elec       q    Type
REMARK                         _______ _______ _______ _____ _____    ______ ____
ROOT
ATOM      1  C   UNL     1       0.487   9.208  21.293  0.00  0.00    +0.000 A 
ATOM      2  N   UNL     1       1.003   7.950  21.308  0.00  0.00    +0.000 NA
ATOM      3  N   UNL     1       1.663   7.835  20.107  0.00  0.00    +0.000 N 
ATOM      4  C   UNL     1       2.369   6.690  19.666  0.00  0.00    +0.000 A 
ATOM      5  N   UNL     1       3.035   6.740  18.525  0.00  0.00    +0.000 NA
ATOM      6  C   UNL     1       3.495   5.501  18.171  0.00  0.00    +0.000 A 
ATOM      7  C   UNL     1       4.158   5.207  16.963  0.00  0.00    +0.000 A 
ATOM      8  C   UNL     1       4.546   3.905  16.686  0.00  0.00    +0.000 A 
ATOM      9  C   UNL     1       4.298   2.896  17.617  0.00  0.00    +0.000 A 
ATOM     10  C   UNL     1       3.657   3.171  18.840  0.00  0.00    +0.000 A 
ATOM     11  C   UNL     1       3.242   4.491  19.101  0.00  0.00    +0.000 A 
ATOM     12  S   UNL     1       2.384   5.189  20.460  0.00  0.00    +0.000 S 
ATOM     13  C   UNL     1       1.527   8.988  19.334  0.00  0.00    +0.000 A 
ATOM     14  C   UNL     1       0.777   9.881  20.062  0.00  0.00    +0.000 A 
ENDROOT
BRANCH  14  15
ATOM     15  C   UNL     1       0.412  11.190  19.536  0.00  0.00    +0.000 A 
ATOM     16  C   UNL     1       1.354  12.235  19.519  0.00  0.00    +0.000 A 
ATOM     17  C   UNL     1       0.980  13.538  19.199  0.00  0.00    +0.000 A 
ATOM     18  C   UNL     1      -0.332  13.799  18.820  0.00  0.00    +0.000 A 
ATOM     19  C   UNL     1      -1.261  12.760  18.765  0.00  0.00    +0.000 A 
ATOM     20  C   UNL     1      -0.898  11.460  19.133  0.00  0.00    +0.000 A 
ENDBRANCH  14  15
BRANCH  13  21
ATOM     21  N   UNL     1       2.060   9.089  18.081  0.00  0.00    +0.000 N 
ATOM     22  H   UNL     1       2.991   8.682  17.923  0.00  0.00    +0.000 HD
ATOM     23  H   UNL     1       1.881   9.906  17.507  0.00  0.00    +0.000 HD
ENDBRANCH  13  21
BRANCH   1  24
ATOM     24  C   UNL     1      -0.421   9.747  22.404  0.00  0.00    +0.000 C 
BRANCH  24  25
ATOM     25  O   UNL     1      -0.069  11.074  22.855  0.00  0.00    +0.000 OA
BRANCH  25  29
ATOM     26  C   UNL     1      -2.989  14.104  22.736  0.00  0.00    +0.000 A 
ATOM     27  C   UNL     1      -1.643  14.347  22.452  0.00  0.00    +0.000 A 
ATOM     28  C   UNL     1      -0.698  13.311  22.501  0.00  0.00    +0.000 A 
ATOM     29  C   UNL     1      -1.072  12.017  22.878  0.00  0.00    +0.000 A 
ATOM     30  C   UNL     1      -2.422  11.778  23.156  0.00  0.00    +0.000 A 
ATOM     31  C   UNL     1      -3.375  12.810  23.089  0.00  0.00    +0.000 A 
BRANCH  26  33
ATOM     32  C   UNL     1      -4.562  15.516  23.835  0.00  0.00    +0.000 C 
ATOM     33  O   UNL     1      -3.800  15.203  22.675  0.00  0.00    +0.000 OA
ENDBRANCH  26  33
ENDBRANCH  25  29
ENDBRANCH  24  25
ENDBRANCH   1  24
TORSDOF 6
ENDMDL
MODEL 3
REMARK VINA RESULT:      -7.8      4.055     10.668
REMARK  Name = 
REMARK  7 active torsions:
REMARK  status: ('A' for Active; 'I' for Inactive)
REMARK    1  A    between atoms: C_1  and  O_2
REMARK    2  A    between atoms: O_2  and  C_3
REMARK    3  A    between atoms: C_6  and  O_7
REMARK    4  A    between atoms: O_7  and  C_8
REMARK    5  A    between atoms: C_8  and  C_9
REMARK    6  A    between atoms: C_21  and  N_22
REMARK    7  A    between atoms: C_23  and  C_24
REMARK                            x       y       z     vdW  Elec       q    Type
REMARK                         _______ _______ _______ _____ _____    ______ ____
ROOT
ATOM      1  C   UNL     1       3.570   6.962  17.669  0.00  0.00    +0.000 A 
ATOM      2  N   UNL     1       3.070   8.167  18.050  0.00  0.00    +0.000 NA
ATOM      3  N   UNL     1       2.379   7.902  19.210  0.00  0.00    +0.000 N 
ATOM      4  C   UNL     1       1.682   8.860  19.985  0.00  0.00    +0.000 A 
ATOM      5  N   UNL     1       1.130   8.489  21.127  0.00  0.00    +0.000 NA
ATOM      6  C   UNL     1       0.350   9.488  21.642  0.00  0.00    +0.000 A 
ATOM      7  C   UNL     1      -0.447   9.368  22.798  0.00  0.00    +0.000 A 
ATOM      8  C   UNL     1      -1.234  10.433  23.210  0.00  0.00    +0.000 A 
ATOM      9  C   UNL     1      -1.216  11.627  22.488  0.00  0.00    +0.000 A 
ATOM     10  C   UNL     1      -0.411  11.776  21.342  0.00  0.00    +0.000 A 
ATOM     11  C   UNL     1       0.364  10.680  20.916  0.00  0.00    +0.000 A 
ATOM     12  S   UNL     1       1.424  10.477  19.535  0.00  0.00    +0.000 S 
ATOM     13  C   UNL     1       2.410   6.545  19.526  0.00  0.00    +0.000 A 
ATOM     14  C   UNL     1       3.158   5.917  18.559  0.00  0.00    +0.000 A 
ENDROOT
BRANCH  14  15
ATOM     15  C   UNL     1       3.370   4.476  18.564  0.00  0.00    +0.000 A 
ATOM     16  C   UNL     1       2.631   3.647  17.699  0.00  0.00    +0.000 A 
ATOM     17  C   UNL     1       2.678   2.259  17.815  0.00  0.00    +0.000 A 
ATOM     18  C   UNL     1       3.524   1.680  18.754  0.00  0.00    +0.000 A 
ATOM     19  C   UNL     1       4.315   2.487  19.571  0.00  0.00    +0.000 A 
ATOM     20  C   UNL     1       4.232   3.881  19.489  0.00  0.00    +0.000 A 
ENDBRANCH  14  15
BRANCH  13  21
ATOM     21  N   UNL     1       1.754   6.037  20.611  0.00  0.00    +0.000 N 
ATOM     22  H   UNL     1       1.140   6.672  21.139  0.00  0.00    +0.000 HD
ATOM     23  H   UNL     1       2.188   5.328  21.193  0.00  0.00    +0.000 HD
ENDBRANCH  13  21
BRANCH   1  24
ATOM     24  C   UNL     1       4.339   6.758  16.359  0.00  0.00    +0.000 C 
BRANCH  24  25
ATOM     25  O   UNL     1       5.501   5.909  16.490  0.00  0.00    +0.000 OA
BRANCH  25  29
ATOM     26  C   UNL     1       6.545   3.874  12.955  0.00  0.00    +0.000 A 
ATOM     27  C   UNL     1       5.320   3.683  13.597  0.00  0.00    +0.000 A 
ATOM     28  C   UNL     1       5.006   4.381  14.773  0.00  0.00    +0.000 A 
ATOM     29  C   UNL     1       5.931   5.252  15.357  0.00  0.00    +0.000 A 
ATOM     30  C   UNL     1       7.154   5.444  14.708  0.00  0.00    +0.000 A 
ATOM     31  C   UNL     1       7.465   4.761  13.518  0.00  0.00    +0.000 A 
BRANCH  26  33
ATOM     32  C   UNL     1       5.784   2.092  11.569  0.00  0.00    +0.000 C 
ATOM     33  O   UNL     1       6.734   3.117  11.832  0.00  0.00    +0.000 OA
ENDBRANCH  26  33
ENDBRANCH  25  29
ENDBRANCH  24  25
ENDBRANCH   1  24
TORSDOF 6
ENDMDL
MODEL 4
REMARK VINA RESULT:      -7.6      3.847      9.618
REMARK  Name = 
REMARK  7 active torsions:
REMARK  status: ('A' for Active; 'I' for Inactive)
REMARK    1  A    between atoms: C_1  and  O_2
REMARK    2  A    between atoms: O_2  and  C_3
REMARK    3  A    between atoms: C_6  and  O_7
REMARK    4  A    between atoms: O_7  and  C_8
REMARK    5  A    between atoms: C_8  and  C_9
REMARK    6  A    between atoms: C_21  and  N_22
REMARK    7  A    between atoms: C_23  and  C_24
REMARK                            x       y       z     vdW  Elec       q    Type
REMARK                         _______ _______ _______ _____ _____    ______ ____
ROOT
ATOM      1  C   UNL     1       3.395   6.521  17.779  0.00  0.00    +0.000 A 
ATOM      2  N   UNL     1       2.941   7.764  18.088  0.00  0.00    +0.000 NA
ATOM      3  N   UNL     1       2.284   7.603  19.285  0.00  0.00    +0.000 N 
ATOM      4  C   UNL     1       1.640   8.634  20.012  0.00  0.00    +0.000 A 
ATOM      5  N   UNL     1       1.118   8.361  21.195  0.00  0.00    +0.000 NA
ATOM      6  C   UNL     1       0.383   9.416  21.662  0.00  0.00    +0.000 A 
ATOM      7  C   UNL     1      -0.376   9.403  22.849  0.00  0.00    +0.000 A 
ATOM      8  C   UNL     1      -1.119  10.516  23.209  0.00  0.00    +0.000 A 
ATOM      9  C   UNL     1      -1.094  11.655  22.402  0.00  0.00    +0.000 A 
ATOM     10  C   UNL     1      -0.325  11.699  21.223  0.00  0.00    +0.000 A 
ATOM     11  C   UNL     1       0.405  10.553  20.852  0.00  0.00    +0.000 A 
ATOM     12  S   UNL     1       1.410  10.221  19.456  0.00  0.00    +0.000 S 
ATOM     13  C   UNL     1       2.289   6.271  19.698  0.00  0.00    +0.000 A 
ATOM     14  C   UNL     1       2.986   5.555  18.755  0.00  0.00    +0.000 A 
ENDROOT
BRANCH  14  15
ATOM     15  C   UNL     1       3.159   4.111  18.856  0.00  0.00    +0.000 A 
ATOM     16  C   UNL     1       4.158   3.573  19.689  0.00  0.00    +0.000 A 
ATOM     17  C   UNL     1       4.467   2.215  19.660  0.00  0.00    +0.000 A 
ATOM     18  C   UNL     1       3.728   1.363  18.847  0.00  0.00    +0.000 A 
ATOM     19  C   UNL     1       2.689   1.872  18.068  0.00  0.00    +0.000 A 
ATOM     20  C   UNL     1       2.410   3.242  18.059  0.00  0.00    +0.000 A 
ENDBRANCH  14  15
BRANCH  13  21
ATOM     21  N   UNL     1       1.658   5.861  20.837  0.00  0.00    +0.000 N 
ATOM     22  H   UNL     1       2.161   5.968  21.728  0.00  0.00    +0.000 HD
ATOM     23  H   UNL     1       1.036   5.060  20.825  0.00  0.00    +0.000 HD
ENDBRANCH  13  21
BRANCH   1  24
ATOM     24  C   UNL     1       4.112   6.202  16.463  0.00  0.00    +0.000 C 
BRANCH  24  25
ATOM     25  O   UNL     1       5.377   5.523  16.635  0.00  0.00    +0.000 OA
BRANCH  25  29
ATOM     26  C   UNL     1       8.295   7.849  18.582  0.00  0.00    +0.000 A 
ATOM     27  C   UNL     1       7.577   8.316  17.479  0.00  0.00    +0.000 A 
ATOM     28  C   UNL     1       6.610   7.512  16.856  0.00  0.00    +0.000 A 
ATOM     29  C   UNL     1       6.372   6.206  17.298  0.00  0.00    +0.000 A 
ATOM     30  C   UNL     1       7.091   5.746  18.405  0.00  0.00    +0.000 A 
ATOM     31  C   UNL     1       8.047   6.556  19.044  0.00  0.00    +0.000 A 
BRANCH  26  33
ATOM     32  C   UNL     1       9.001  10.109  18.851  0.00  0.00    +0.000 C 
ATOM     33  O   UNL     1       9.223   8.723  19.079  0.00  0.00    +0.000 OA
ENDBRANCH  26  33
ENDBRANCH  25  29
ENDBRANCH  24  25
ENDBRANCH   1  24
TORSDOF 6
ENDMDL
MODEL 5
REMARK VINA RESULT:      -7.4      0.755      1.151
REMARK  Name = 
REMARK  7 active torsions:
REMARK  status: ('A' for Active; 'I' for Inactive)
REMARK    1  A    between atoms: C_1  and  O_2
REMARK    2  A    between atoms: O_2  and  C_3
REMARK    3  A    between atoms: C_6  and  O_7
REMARK    4  A    between atoms: O_7  and  C_8
REMARK    5  A    between atoms: C_8  and  C_9
REMARK    6  A    between atoms: C_21  and  N_22
REMARK    7  A    between atoms: C_23  and  C_24
REMARK                            x       y       z     vdW  Elec       q    Type
REMARK                         _______ _______ _______ _____ _____    ______ ____
ROOT
ATOM      1  C   UNL     1       0.817   9.306  21.440  0.00  0.00    +0.000 A 
ATOM      2  N   UNL     1       1.252   8.021  21.545  0.00  0.00    +0.000 NA
ATOM      3  N   UNL     1       1.694   7.704  20.281  0.00  0.00    +0.000 N 
ATOM      4  C   UNL     1       2.246   6.458  19.896  0.00  0.00    +0.000 A 
ATOM      5  N   UNL     1       2.713   6.311  18.668  0.00  0.00    +0.000 NA
ATOM      6  C   UNL     1       3.032   5.004  18.419  0.00  0.00    +0.000 A 
ATOM      7  C   UNL     1       3.464   4.508  17.173  0.00  0.00    +0.000 A 
ATOM      8  C   UNL     1       3.722   3.154  17.018  0.00  0.00    +0.000 A 
ATOM      9  C   UNL     1       3.572   2.292  18.106  0.00  0.00    +0.000 A 
ATOM     10  C   UNL     1       3.162   2.770  19.366  0.00  0.00    +0.000 A 
ATOM     11  C   UNL     1       2.877   4.142  19.506  0.00  0.00    +0.000 A 
ATOM     12  S   UNL     1       2.303   5.072  20.875  0.00  0.00    +0.000 S 
ATOM     13  C   UNL     1       1.500   8.758  19.390  0.00  0.00    +0.000 A 
ATOM     14  C   UNL     1       0.938   9.793  20.098  0.00  0.00    +0.000 A 
ENDROOT
BRANCH  14  15
ATOM     15  C   UNL     1       0.570  11.052  19.462  0.00  0.00    +0.000 A 
ATOM     16  C   UNL     1       1.455  12.146  19.489  0.00  0.00    +0.000 A 
ATOM     17  C   UNL     1       1.054  13.408  19.057  0.00  0.00    +0.000 A 
ATOM     18  C   UNL     1      -0.218  13.576  18.523  0.00  0.00    +0.000 A 
ATOM     19  C   UNL     1      -1.082  12.485  18.425  0.00  0.00    +0.000 A 
ATOM     20  C   UNL     1      -0.698  11.228  18.904  0.00  0.00    +0.000 A 
ENDBRANCH  14  15
BRANCH  13  21
ATOM     21  N   UNL     1       1.822   8.658  18.066  0.00  0.00    +0.000 N 
ATOM     22  H   UNL     1       2.228   7.772  17.739  0.00  0.00    +0.000 HD
ATOM     23  H   UNL     1       2.161   9.465  17.554  0.00  0.00    +0.000 HD
ENDBRANCH  13  21
BRANCH   1  24
ATOM     24  C   UNL     1       0.143  10.052  22.596  0.00  0.00    +0.000 C 
BRANCH  24  25
ATOM     25  O   UNL     1      -1.190  10.521  22.292  0.00  0.00    +0.000 OA
BRANCH  25  29
ATOM     26  C   UNL     1      -2.271  14.404  23.506  0.00  0.00    +0.000 A 
ATOM     27  C   UNL     1      -3.109  13.301  23.685  0.00  0.00    +0.000 A 
ATOM     28  C   UNL     1      -2.714  12.020  23.268  0.00  0.00    +0.000 A 
ATOM     29  C   UNL     1      -1.489  11.824  22.624  0.00  0.00    +0.000 A 
ATOM     30  C   UNL     1      -0.651  12.930  22.452  0.00  0.00    +0.000 A 
ATOM     31  C   UNL     1      -1.036  14.212  22.886  0.00  0.00    +0.000 A 
BRANCH  26  33
ATOM     32  C   UNL     1      -4.192  15.665  24.135  0.00  0.00    +0.000 C 
ATOM     33  O   UNL     1      -2.786  15.596  23.935  0.00  0.00    +0.000 OA
ENDBRANCH  26  33
ENDBRANCH  25  29
ENDBRANCH  24  25
ENDBRANCH   1  24
TORSDOF 6
ENDMDL
MODEL 6
REMARK VINA RESULT:      -7.2      1.059      1.664
REMARK  Name = 
REMARK  7 active torsions:
REMARK  status: ('A' for Active; 'I' for Inactive)
REMARK    1  A    between atoms: C_1  and  O_2
REMARK    2  A    between atoms: O_2  and  C_3
REMARK    3  A    between atoms: C_6  and  O_7
REMARK    4  A    between atoms: O_7  and  C_8
REMARK    5  A    between atoms: C_8  and  C_9
REMARK    6  A    between atoms: C_21  and  N_22
REMARK    7  A    between atoms: C_23  and  C_24
REMARK                            x       y       z     vdW  Elec       q    Type
REMARK                         _______ _______ _______ _____ _____    ______ ____
ROOT
ATOM      1  C   UNL     1       0.711   9.518  21.415  0.00  0.00    +0.000 A 
ATOM      2  N   UNL     1       1.131   8.229  21.518  0.00  0.00    +0.000 NA
ATOM      3  N   UNL     1       1.655   7.938  20.280  0.00  0.00    +0.000 N 
ATOM      4  C   UNL     1       2.225   6.699  19.903  0.00  0.00    +0.000 A 
ATOM      5  N   UNL     1       2.772   6.576  18.705  0.00  0.00    +0.000 NA
ATOM      6  C   UNL     1       3.100   5.274  18.447  0.00  0.00    +0.000 A 
ATOM      7  C   UNL     1       3.612   4.804  17.221  0.00  0.00    +0.000 A 
ATOM      8  C   UNL     1       3.873   3.453  17.052  0.00  0.00    +0.000 A 
ATOM      9  C   UNL     1       3.648   2.567  18.107  0.00  0.00    +0.000 A 
ATOM     10  C   UNL     1       3.158   3.018  19.348  0.00  0.00    +0.000 A 
ATOM     11  C   UNL     1       2.871   4.388  19.501  0.00  0.00    +0.000 A 
ATOM     12  S   UNL     1       2.211   5.290  20.851  0.00  0.00    +0.000 S 
ATOM     13  C   UNL     1       1.525   9.014  19.403  0.00  0.00    +0.000 A 
ATOM     14  C   UNL     1       0.922  10.036  20.096  0.00  0.00    +0.000 A 
ENDROOT
BRANCH  14  15
ATOM     15  C   UNL     1       0.602  11.311  19.466  0.00  0.00    +0.000 A 
ATOM     16  C   UNL     1       1.360  12.459  19.764  0.00  0.00    +0.000 A 
ATOM     17  C   UNL     1       0.962  13.720  19.326  0.00  0.00    +0.000 A 
ATOM     18  C   UNL     1      -0.164  13.839  18.519  0.00  0.00    +0.000 A 
ATOM     19  C   UNL     1      -0.885  12.701  18.158  0.00  0.00    +0.000 A 
ATOM     20  C   UNL     1      -0.515  11.441  18.638  0.00  0.00    +0.000 A 
ENDBRANCH  14  15
BRANCH  13  21
ATOM     21  N   UNL     1       1.933   8.943  18.101  0.00  0.00    +0.000 N 
ATOM     22  H   UNL     1       2.907   9.198  17.890  0.00  0.00    +0.000 HD
ATOM     23  H   UNL     1       1.292   9.160  17.345  0.00  0.00    +0.000 HD
ENDBRANCH  13  21
BRANCH   1  24
ATOM     24  C   UNL     1      -0.035  10.241  22.542  0.00  0.00    +0.000 C 
BRANCH  24  25
ATOM     25  O   UNL     1      -1.387  10.622  22.198  0.00  0.00    +0.000 OA
BRANCH  25  29
ATOM     26  C   UNL     1      -1.912  14.784  21.851  0.00  0.00    +0.000 A 
ATOM     27  C   UNL     1      -0.866  14.219  22.583  0.00  0.00    +0.000 A 
ATOM     28  C   UNL     1      -0.722  12.826  22.675  0.00  0.00    +0.000 A 
ATOM     29  C   UNL     1      -1.648  11.969  22.073  0.00  0.00    +0.000 A 
ATOM     30  C   UNL     1      -2.691  12.540  21.337  0.00  0.00    +0.000 A 
ATOM     31  C   UNL     1      -2.827  13.936  21.226  0.00  0.00    +0.000 A 
BRANCH  26  33
ATOM     32  C   UNL     1      -1.944  16.813  20.602  0.00  0.00    +0.000 C 
ATOM     33  O   UNL     1      -1.952  16.151  21.861  0.00  0.00    +0.000 OA
ENDBRANCH  26  33
ENDBRANCH  25  29
ENDBRANCH  24  25
ENDBRANCH   1  24
TORSDOF 6
ENDMDL
MODEL 7
REMARK VINA RESULT:      -7.2      3.626     10.199
REMARK  Name = 
REMARK  7 active torsions:
REMARK  status: ('A' for Active; 'I' for Inactive)
REMARK    1  A    between atoms: C_1  and  O_2
REMARK    2  A    between atoms: O_2  and  C_3
REMARK    3  A    between atoms: C_6  and  O_7
REMARK    4  A    between atoms: O_7  and  C_8
REMARK    5  A    between atoms: C_8  and  C_9
REMARK    6  A    between atoms: C_21  and  N_22
REMARK    7  A    between atoms: C_23  and  C_24
REMARK                            x       y       z     vdW  Elec       q    Type
REMARK                         _______ _______ _______ _____ _____    ______ ____
ROOT
ATOM      1  C   UNL     1       2.516   7.634  18.772  0.00  0.00    +0.000 A 
ATOM      2  N   UNL     1       2.162   8.939  18.915  0.00  0.00    +0.000 NA
ATOM      3  N   UNL     1       1.361   8.958  20.033  0.00  0.00    +0.000 N 
ATOM      4  C   UNL     1       0.751  10.111  20.584  0.00  0.00    +0.000 A 
ATOM      5  N   UNL     1       0.073  10.006  21.714  0.00  0.00    +0.000 NA
ATOM      6  C   UNL     1      -0.596  11.166  21.994  0.00  0.00    +0.000 A 
ATOM      7  C   UNL     1      -1.481  11.339  23.077  0.00  0.00    +0.000 A 
ATOM      8  C   UNL     1      -2.140  12.548  23.246  0.00  0.00    +0.000 A 
ATOM      9  C   UNL     1      -1.905  13.595  22.353  0.00  0.00    +0.000 A 
ATOM     10  C   UNL     1      -1.008  13.450  21.277  0.00  0.00    +0.000 A 
ATOM     11  C   UNL     1      -0.364  12.211  21.099  0.00  0.00    +0.000 A 
ATOM     12  S   UNL     1       0.752  11.651  19.869  0.00  0.00    +0.000 S 
ATOM     13  C   UNL     1       1.181   7.679  20.556  0.00  0.00    +0.000 A 
ATOM     14  C   UNL     1       1.901   6.811  19.771  0.00  0.00    +0.000 A 
ENDROOT
BRANCH  14  15
ATOM     15  C   UNL     1       1.910   5.375  20.017  0.00  0.00    +0.000 A 
ATOM     16  C   UNL     1       1.355   4.490  19.074  0.00  0.00    +0.000 A 
ATOM     17  C   UNL     1       1.182   3.139  19.367  0.00  0.00    +0.000 A 
ATOM     18  C   UNL     1       1.630   2.641  20.585  0.00  0.00    +0.000 A 
ATOM     19  C   UNL     1       2.245   3.493  21.502  0.00  0.00    +0.000 A 
ATOM     20  C   UNL     1       2.375   4.859  21.229  0.00  0.00    +0.000 A 
ENDBRANCH  14  15
BRANCH  13  21
ATOM     21  N   UNL     1       0.386   7.444  21.642  0.00  0.00    +0.000 N 
ATOM     22  H   UNL     1      -0.629   7.563  21.525  0.00  0.00    +0.000 HD
ATOM     23  H   UNL     1       0.708   7.666  22.578  0.00  0.00    +0.000 HD
ENDBRANCH  13  21
BRANCH   1  24
ATOM     24  C   UNL     1       3.340   7.122  17.586  0.00  0.00    +0.000 C 
BRANCH  24  25
ATOM     25  O   UNL     1       4.259   6.060  17.927  0.00  0.00    +0.000 OA
BRANCH  25  29
ATOM     26  C   UNL     1       6.115   4.150  14.668  0.00  0.00    +0.000 A 
ATOM     27  C   UNL     1       5.843   5.520  14.679  0.00  0.00    +0.000 A 
ATOM     28  C   UNL     1       5.224   6.122  15.785  0.00  0.00    +0.000 A 
ATOM     29  C   UNL     1       4.824   5.358  16.885  0.00  0.00    +0.000 A 
ATOM     30  C   UNL     1       5.103   3.988  16.871  0.00  0.00    +0.000 A 
ATOM     31  C   UNL     1       5.741   3.384  15.773  0.00  0.00    +0.000 A 
BRANCH  26  33
ATOM     32  C   UNL     1       5.841   3.373  12.432  0.00  0.00    +0.000 C 
ATOM     33  O   UNL     1       6.700   3.686  13.522  0.00  0.00    +0.000 OA
ENDBRANCH  26  33
ENDBRANCH  25  29
ENDBRANCH  24  25
ENDBRANCH   1  24
TORSDOF 6
ENDMDL
MODEL 8
REMARK VINA RESULT:      -7.1      3.897      9.664
REMARK  Name = 
REMARK  7 active torsions:
REMARK  status: ('A' for Active; 'I' for Inactive)
REMARK    1  A    between atoms: C_1  and  O_2
REMARK    2  A    between atoms: O_2  and  C_3
REMARK    3  A    between atoms: C_6  and  O_7
REMARK    4  A    between atoms: O_7  and  C_8
REMARK    5  A    between atoms: C_8  and  C_9
REMARK    6  A    between atoms: C_21  and  N_22
REMARK    7  A    between atoms: C_23  and  C_24
REMARK                            x       y       z     vdW  Elec       q    Type
REMARK                         _______ _______ _______ _____ _____    ______ ____
ROOT
ATOM      1  C   UNL     1       4.054   6.340  17.170  0.00  0.00    +0.000 A 
ATOM      2  N   UNL     1       3.590   7.610  17.308  0.00  0.00    +0.000 NA
ATOM      3  N   UNL     1       2.788   7.564  18.425  0.00  0.00    +0.000 N 
ATOM      4  C   UNL     1       2.080   8.661  18.972  0.00  0.00    +0.000 A 
ATOM      5  N   UNL     1       1.411   8.501  20.101  0.00  0.00    +0.000 NA
ATOM      6  C   UNL     1       0.645   9.600  20.377  0.00  0.00    +0.000 A 
ATOM      7  C   UNL     1      -0.253   9.700  21.458  0.00  0.00    +0.000 A 
ATOM      8  C   UNL     1      -1.014  10.848  21.622  0.00  0.00    +0.000 A 
ATOM      9  C   UNL     1      -0.868  11.908  20.726  0.00  0.00    +0.000 A 
ATOM     10  C   UNL     1       0.039  11.839  19.652  0.00  0.00    +0.000 A 
ATOM     11  C   UNL     1       0.788  10.659  19.478  0.00  0.00    +0.000 A 
ATOM     12  S   UNL     1       1.950  10.193  18.252  0.00  0.00    +0.000 S 
ATOM     13  C   UNL     1       2.717   6.275  18.952  0.00  0.00    +0.000 A 
ATOM     14  C   UNL     1       3.511   5.470  18.170  0.00  0.00    +0.000 A 
ENDROOT
BRANCH  14  15
ATOM     15  C   UNL     1       3.643   4.041  18.420  0.00  0.00    +0.000 A 
ATOM     16  C   UNL     1       2.902   3.116  17.661  0.00  0.00    +0.000 A 
ATOM     17  C   UNL     1       2.866   1.766  18.003  0.00  0.00    +0.000 A 
ATOM     18  C   UNL     1       3.632   1.310  19.070  0.00  0.00    +0.000 A 
ATOM     19  C   UNL     1       4.426   2.204  19.789  0.00  0.00    +0.000 A 
ATOM     20  C   UNL     1       4.425   3.567  19.477  0.00  0.00    +0.000 A 
ENDBRANCH  14  15
BRANCH  13  21
ATOM     21  N   UNL     1       1.943   5.975  20.036  0.00  0.00    +0.000 N 
ATOM     22  H   UNL     1       1.955   5.005  20.379  0.00  0.00    +0.000 HD
ATOM     23  H   UNL     1       1.052   6.437  20.180  0.00  0.00    +0.000 HD
ENDBRANCH  13  21
BRANCH   1  24
ATOM     24  C   UNL     1       4.922   5.897  15.987  0.00  0.00    +0.000 C 
BRANCH  24  25
ATOM     25  O   UNL     1       6.230   5.416  16.368  0.00  0.00    +0.000 OA
BRANCH  25  29
ATOM     26  C   UNL     1       8.437   8.162  18.672  0.00  0.00    +0.000 A 
ATOM     27  C   UNL     1       7.823   8.515  17.468  0.00  0.00    +0.000 A 
ATOM     28  C   UNL     1       7.094   7.572  16.728  0.00  0.00    +0.000 A 
ATOM     29  C   UNL     1       7.000   6.244  17.154  0.00  0.00    +0.000 A 
ATOM     30  C   UNL     1       7.613   5.896  18.362  0.00  0.00    +0.000 A 
ATOM     31  C   UNL     1       8.328   6.843  19.118  0.00  0.00    +0.000 A 
BRANCH  26  33
ATOM     32  C   UNL     1       9.176  10.426  18.622  0.00  0.00    +0.000 C 
ATOM     33  O   UNL     1       9.135   9.167  19.282  0.00  0.00    +0.000 OA
ENDBRANCH  26  33
ENDBRANCH  25  29
ENDBRANCH  24  25
ENDBRANCH   1  24
TORSDOF 6
ENDMDL
MODEL 9
REMARK VINA RESULT:      -7.0      0.925      1.309
REMARK  Name = 
REMARK  7 active torsions:
REMARK  status: ('A' for Active; 'I' for Inactive)
REMARK    1  A    between atoms: C_1  and  O_2
REMARK    2  A    between atoms: O_2  and  C_3
REMARK    3  A    between atoms: C_6  and  O_7
REMARK    4  A    between atoms: O_7  and  C_8
REMARK    5  A    between atoms: C_8  and  C_9
REMARK    6  A    between atoms: C_21  and  N_22
REMARK    7  A    between atoms: C_23  and  C_24
REMARK                            x       y       z     vdW  Elec       q    Type
REMARK                         _______ _______ _______ _____ _____    ______ ____
ROOT
ATOM      1  C   UNL     1       0.500   9.542  21.280  0.00  0.00    +0.000 A 
ATOM      2  N   UNL     1       0.913   8.249  21.360  0.00  0.00    +0.000 NA
ATOM      3  N   UNL     1       1.568   8.023  20.172  0.00  0.00    +0.000 N 
ATOM      4  C   UNL     1       2.182   6.804  19.794  0.00  0.00    +0.000 A 
ATOM      5  N   UNL     1       2.855   6.745  18.658  0.00  0.00    +0.000 NA
ATOM      6  C   UNL     1       3.215   5.458  18.368  0.00  0.00    +0.000 A 
ATOM      7  C   UNL     1       3.859   5.052  17.182  0.00  0.00    +0.000 A 
ATOM      8  C   UNL     1       4.142   3.712  16.971  0.00  0.00    +0.000 A 
ATOM      9  C   UNL     1       3.808   2.772  17.947  0.00  0.00    +0.000 A 
ATOM     10  C   UNL     1       3.185   3.157  19.150  0.00  0.00    +0.000 A 
ATOM     11  C   UNL     1       2.877   4.517  19.343  0.00  0.00    +0.000 A 
ATOM     12  S   UNL     1       2.071   5.348  20.659  0.00  0.00    +0.000 S 
ATOM     13  C   UNL     1       1.529   9.143  19.344  0.00  0.00    +0.000 A 
ATOM     14  C   UNL     1       0.850  10.128  20.020  0.00  0.00    +0.000 A 
ENDROOT
BRANCH  14  15
ATOM     15  C   UNL     1       0.595  11.435  19.428  0.00  0.00    +0.000 A 
ATOM     16  C   UNL     1       1.319  12.563  19.859  0.00  0.00    +0.000 A 
ATOM     17  C   UNL     1       0.966  13.846  19.447  0.00  0.00    +0.000 A 
ATOM     18  C   UNL     1      -0.073  14.012  18.539  0.00  0.00    +0.000 A 
ATOM     19  C   UNL     1      -0.754  12.897  18.050  0.00  0.00    +0.000 A 
ATOM     20  C   UNL     1      -0.434  11.612  18.500  0.00  0.00    +0.000 A 
ENDBRANCH  14  15
BRANCH  13  21
ATOM     21  N   UNL     1       2.076   9.141  18.092  0.00  0.00    +0.000 N 
ATOM     22  H   UNL     1       3.101   9.110  18.018  0.00  0.00    +0.000 HD
ATOM     23  H   UNL     1       1.637   9.653  17.334  0.00  0.00    +0.000 HD
ENDBRANCH  13  21
BRANCH   1  24
ATOM     24  C   UNL     1      -0.367  10.205  22.355  0.00  0.00    +0.000 C 
BRANCH  24  25
ATOM     25  O   UNL     1      -0.590  11.617  22.139  0.00  0.00    +0.000 OA
BRANCH  25  29
ATOM     26  C   UNL     1      -4.563  12.992  22.345  0.00  0.00    +0.000 A 
ATOM     27  C   UNL     1      -3.906  12.429  23.441  0.00  0.00    +0.000 A 
ATOM     28  C   UNL     1      -2.580  11.983  23.335  0.00  0.00    +0.000 A 
ATOM     29  C   UNL     1      -1.898  12.050  22.116  0.00  0.00    +0.000 A 
ATOM     30  C   UNL     1      -2.558  12.619  21.023  0.00  0.00    +0.000 A 
ATOM     31  C   UNL     1      -3.880  13.086  21.131  0.00  0.00    +0.000 A 
BRANCH  26  33
ATOM     32  C   UNL     1      -6.284  13.439  23.931  0.00  0.00    +0.000 C 
ATOM     33  O   UNL     1      -5.859  13.365  22.576  0.00  0.00    +0.000 OA
ENDBRANCH  26  33
ENDBRANCH  25  29
ENDBRANCH  24  25
ENDBRANCH   1  24
TORSDOF 6
ENDMDL
