MODEL 1
REMARK VINA RESULT:      -6.9      0.000      0.000
REMARK  Name = 
REMARK  8 active torsions:
REMARK  status: ('A' for Active; 'I' for Inactive)
REMARK    1  A    between atoms: C_1  and  C_2
REMARK    2  A    between atoms: C_5  and  S_6
REMARK    3  A    between atoms: S_6  and  C_9
REMARK    4  A    between atoms: N_12  and  C_13
REMARK    5  A    between atoms: C_13  and  C_14
REMARK    6  A    between atoms: C_14  and  N_15
REMARK    7  A    between atoms: N_15  and  C_16
REMARK    8  A    between atoms: N_15  and  C_17
REMARK                            x       y       z     vdW  Elec       q    Type
REMARK                         _______ _______ _______ _____ _____    ______ ____
ROOT
ATOM      1  C   UNL     1       3.287   4.346  19.402  0.00  0.00    +0.000 A 
ATOM      2  N   UNL     1       3.081   5.672  19.836  0.00  0.00    +0.000 NA
ATOM      3  C   UNL     1       1.906   5.791  20.421  0.00  0.00    +0.000 A 
ATOM      4  N   UNL     1       1.391   6.935  20.942  0.00  0.00    +0.000 N 
ATOM      5  S   UNL     1       0.965   4.340  20.436  0.00  0.00    +0.000 S 
ATOM      6  C   UNL     1       2.226   3.508  19.652  0.00  0.00    +0.000 A 
ATOM      7 CL   UNL     1       2.021   1.845  19.285  0.00  0.00    +0.000 Cl
ATOM      8  H   UNL     1       0.582   6.924  21.569  0.00  0.00    +0.000 HD
ENDROOT
BRANCH   1   9
ATOM      9  S   UNL     1       4.719   3.818  18.536  0.00  0.00    +0.000 S 
ATOM     10  O   UNL     1       4.240   3.386  17.251  0.00  0.00    +0.000 OA
ATOM     11  O   UNL     1       5.389   2.911  19.470  0.00  0.00    +0.000 OA
BRANCH   9  16
ATOM     12  C   UNL     1       8.321   8.645  17.655  0.00  0.00    +0.000 C 
ATOM     13  C   UNL     1       7.432   7.449  17.847  0.00  0.00    +0.000 A 
ATOM     14  C   UNL     1       6.242   7.297  17.124  0.00  0.00    +0.000 A 
ATOM     15  C   UNL     1       5.420   6.185  17.331  0.00  0.00    +0.000 A 
ATOM     16  C   UNL     1       5.784   5.218  18.275  0.00  0.00    +0.000 A 
ATOM     17  C   UNL     1       6.989   5.342  18.976  0.00  0.00    +0.000 A 
ATOM     18  C   UNL     1       7.792   6.469  18.773  0.00  0.00    +0.000 A 
ENDBRANCH   9  16
ENDBRANCH   1   9
BRANCH   4  19
ATOM     19  C   UNL     1       1.839   8.238  20.460  0.00  0.00    +0.000 C 
BRANCH  19  20
ATOM     20  C   UNL     1       0.701   9.266  20.163  0.00  0.00    +0.000 C 
BRANCH  20  21
ATOM     21  N   UNL     1       0.795   9.917  18.841  0.00  0.00    +0.000 NA
ATOM     22  C   UNL     1       1.271  11.303  18.930  0.00  0.00    +0.000 C 
ATOM     23  C   UNL     1       1.679   9.169  17.940  0.00  0.00    +0.000 C 
ENDBRANCH  20  21
ENDBRANCH  19  20
ENDBRANCH   4  19
TORSDOF 5
ENDMDL
MODEL 2
REMARK VINA RESULT:      -6.9      1.043      1.403
REMARK  Name = 
REMARK  8 active torsions:
REMARK  status: ('A' for Active; 'I' for Inactive)
REMARK    1  A    between atoms: C_1  and  C_2
REMARK    2  A    between atoms: C_5  and  S_6
REMARK    3  A    between atoms: S_6  and  C_9
REMARK    4  A    between atoms: N_12  and  C_13
REMARK    5  A    between atoms: C_13  and  C_14
REMARK    6  A    between atoms: C_14  and  N_15
REMARK    7  A    between atoms: N_15  and  C_16
REMARK    8  A    between atoms: N_15  and  C_17
REMARK                            x       y       z     vdW  Elec       q    Type
REMARK                         _______ _______ _______ _____ _____    ______ ____
ROOT
ATOM      1  C   UNL     1       3.249   4.235  19.420  0.00  0.00    +0.000 A 
ATOM      2  N   UNL     1       3.051   5.549  19.895  0.00  0.00    +0.000 NA
ATOM      3  C   UNL     1       1.873   5.659  20.476  0.00  0.00    +0.000 A 
ATOM      4  N   UNL     1       1.364   6.790  21.029  0.00  0.00    +0.000 N 
ATOM      5  S   UNL     1       0.919   4.217  20.438  0.00  0.00    +0.000 S 
ATOM      6  C   UNL     1       2.179   3.400  19.637  0.00  0.00    +0.000 A 
ATOM      7 CL   UNL     1       1.963   1.750  19.215  0.00  0.00    +0.000 Cl
ATOM      8  H   UNL     1       0.550   6.766  21.650  0.00  0.00    +0.000 HD
ENDROOT
BRANCH   1   9
ATOM      9  S   UNL     1       4.682   3.724  18.548  0.00  0.00    +0.000 S 
ATOM     10  O   UNL     1       4.201   3.285  17.265  0.00  0.00    +0.000 OA
ATOM     11  O   UNL     1       5.367   2.825  19.479  0.00  0.00    +0.000 OA
BRANCH   9  16
ATOM     12  C   UNL     1       8.223   8.591  17.643  0.00  0.00    +0.000 C 
ATOM     13  C   UNL     1       7.349   7.385  17.841  0.00  0.00    +0.000 A 
ATOM     14  C   UNL     1       6.157   7.218  17.124  0.00  0.00    +0.000 A 
ATOM     15  C   UNL     1       5.349   6.097  17.337  0.00  0.00    +0.000 A 
ATOM     16  C   UNL     1       5.730   5.135  18.279  0.00  0.00    +0.000 A 
ATOM     17  C   UNL     1       6.937   5.274  18.974  0.00  0.00    +0.000 A 
ATOM     18  C   UNL     1       7.726   6.410  18.766  0.00  0.00    +0.000 A 
ENDBRANCH   9  16
ENDBRANCH   1   9
BRANCH   4  19
ATOM     19  C   UNL     1       1.825   8.104  20.592  0.00  0.00    +0.000 C 
BRANCH  19  20
ATOM     20  C   UNL     1       0.737   9.225  20.585  0.00  0.00    +0.000 C 
BRANCH  20  21
ATOM     21  N   UNL     1       0.817  10.162  21.725  0.00  0.00    +0.000 NA
ATOM     22  C   UNL     1       0.254  11.480  21.409  0.00  0.00    +0.000 C 
ATOM     23  C   UNL     1       0.132   9.625  22.906  0.00  0.00    +0.000 C 
ENDBRANCH  20  21
ENDBRANCH  19  20
ENDBRANCH   4  19
TORSDOF 5
ENDMDL
MODEL 3
REMARK VINA RESULT:      -6.9      0.165      1.044
REMARK  Name = 
REMARK  8 active torsions:
REMARK  status: ('A' for Active; 'I' for Inactive)
REMARK    1  A    between atoms: C_1  and  C_2
REMARK    2  A    between atoms: C_5  and  S_6
REMARK    3  A    between atoms: S_6  and  C_9
REMARK    4  A    between atoms: N_12  and  C_13
REMARK    5  A    between atoms: C_13  and  C_14
REMARK    6  A    between atoms: C_14  and  N_15
REMARK    7  A    between atoms: N_15  and  C_16
REMARK    8  A    between atoms: N_15  and  C_17
REMARK                            x       y       z     vdW  Elec       q    Type
REMARK                         _______ _______ _______ _____ _____    ______ ____
ROOT
ATOM      1  C   UNL     1       3.269   4.309  19.396  0.00  0.00    +0.000 A 
ATOM      2  N   UNL     1       3.052   5.630  19.840  0.00  0.00    +0.000 NA
ATOM      3  C   UNL     1       1.875   5.735  20.424  0.00  0.00    +0.000 A 
ATOM      4  N   UNL     1       1.351   6.872  20.953  0.00  0.00    +0.000 N 
ATOM      5  S   UNL     1       0.945   4.278  20.425  0.00  0.00    +0.000 S 
ATOM      6  C   UNL     1       2.214   3.462  19.637  0.00  0.00    +0.000 A 
ATOM      7 CL   UNL     1       2.022   1.800  19.256  0.00  0.00    +0.000 Cl
ATOM      8  H   UNL     1       0.540   6.849  21.578  0.00  0.00    +0.000 HD
ENDROOT
BRANCH   1   9
ATOM      9  S   UNL     1       4.707   3.800  18.529  0.00  0.00    +0.000 S 
ATOM     10  O   UNL     1       4.231   3.356  17.246  0.00  0.00    +0.000 OA
ATOM     11  O   UNL     1       5.392   2.907  19.465  0.00  0.00    +0.000 OA
BRANCH   9  16
ATOM     12  C   UNL     1       8.324   8.604  17.593  0.00  0.00    +0.000 C 
ATOM     13  C   UNL     1       7.432   7.423  17.849  0.00  0.00    +0.000 A 
ATOM     14  C   UNL     1       7.775   6.434  18.779  0.00  0.00    +0.000 A 
ATOM     15  C   UNL     1       6.938   5.333  18.990  0.00  0.00    +0.000 A 
ATOM     16  C   UNL     1       5.750   5.214  18.259  0.00  0.00    +0.000 A 
ATOM     17  C   UNL     1       5.381   6.215  17.354  0.00  0.00    +0.000 A 
ATOM     18  C   UNL     1       6.236   7.300  17.139  0.00  0.00    +0.000 A 
ENDBRANCH   9  16
ENDBRANCH   1   9
BRANCH   4  19
ATOM     19  C   UNL     1       1.789   8.182  20.483  0.00  0.00    +0.000 C 
BRANCH  19  20
ATOM     20  C   UNL     1       0.672   9.271  20.404  0.00  0.00    +0.000 C 
BRANCH  20  21
ATOM     21  N   UNL     1       0.565   9.943  19.093  0.00  0.00    +0.000 NA
ATOM     22  C   UNL     1       0.817  11.386  19.181  0.00  0.00    +0.000 C 
ATOM     23  C   UNL     1       1.491   9.358  18.117  0.00  0.00    +0.000 C 
ENDBRANCH  20  21
ENDBRANCH  19  20
ENDBRANCH   4  19
TORSDOF 5
ENDMDL
MODEL 4
REMARK VINA RESULT:      -6.8      4.215      7.048
REMARK  Name = 
REMARK  8 active torsions:
REMARK  status: ('A' for Active; 'I' for Inactive)
REMARK    1  A    between atoms: C_1  and  C_2
REMARK    2  A    between atoms: C_5  and  S_6
REMARK    3  A    between atoms: S_6  and  C_9
REMARK    4  A    between atoms: N_12  and  C_13
REMARK    5  A    between atoms: C_13  and  C_14
REMARK    6  A    between atoms: C_14  and  N_15
REMARK    7  A    between atoms: N_15  and  C_16
REMARK    8  A    between atoms: N_15  and  C_17
REMARK                            x       y       z     vdW  Elec       q    Type
REMARK                         _______ _______ _______ _____ _____    ______ ____
ROOT
ATOM      1  C   UNL     1       4.864   4.098  17.288  0.00  0.00    +0.000 A 
ATOM      2  N   UNL     1       5.152   3.934  15.917  0.00  0.00    +0.000 NA
ATOM      3  C   UNL     1       6.378   4.335  15.649  0.00  0.00    +0.000 A 
ATOM      4  N   UNL     1       6.968   4.324  14.425  0.00  0.00    +0.000 N 
ATOM      5  S   UNL     1       7.232   4.979  17.008  0.00  0.00    +0.000 S 
ATOM      6  C   UNL     1       5.892   4.658  18.007  0.00  0.00    +0.000 A 
ATOM      7 CL   UNL     1       5.983   5.061  19.673  0.00  0.00    +0.000 Cl
ATOM      8  H   UNL     1       7.979   4.440  14.314  0.00  0.00    +0.000 HD
ENDROOT
BRANCH   1   9
ATOM      9  S   UNL     1       3.309   3.718  18.006  0.00  0.00    +0.000 S 
ATOM     10  O   UNL     1       3.591   2.705  18.989  0.00  0.00    +0.000 OA
ATOM     11  O   UNL     1       2.433   3.477  16.859  0.00  0.00    +0.000 OA
BRANCH   9  16
ATOM     12  C   UNL     1       1.199   8.639  20.900  0.00  0.00    +0.000 C 
ATOM     13  C   UNL     1       1.742   7.436  20.182  0.00  0.00    +0.000 A 
ATOM     14  C   UNL     1       2.314   7.540  18.907  0.00  0.00    +0.000 A 
ATOM     15  C   UNL     1       2.798   6.406  18.249  0.00  0.00    +0.000 A 
ATOM     16  C   UNL     1       2.703   5.152  18.865  0.00  0.00    +0.000 A 
ATOM     17  C   UNL     1       2.167   5.043  20.153  0.00  0.00    +0.000 A 
ATOM     18  C   UNL     1       1.669   6.183  20.792  0.00  0.00    +0.000 A 
ENDBRANCH   9  16
ENDBRANCH   1   9
BRANCH   4  19
ATOM     19  C   UNL     1       6.159   4.358  13.211  0.00  0.00    +0.000 C 
BRANCH  19  20
ATOM     20  C   UNL     1       6.536   3.297  12.128  0.00  0.00    +0.000 C 
BRANCH  20  21
ATOM     21  N   UNL     1       5.475   2.308  11.846  0.00  0.00    +0.000 NA
ATOM     22  C   UNL     1       4.315   2.906  11.174  0.00  0.00    +0.000 C 
ATOM     23  C   UNL     1       5.982   1.204  11.023  0.00  0.00    +0.000 C 
ENDBRANCH  20  21
ENDBRANCH  19  20
ENDBRANCH   4  19
TORSDOF 5
ENDMDL
MODEL 5
REMARK VINA RESULT:      -6.7      0.826      1.581
REMARK  Name = 
REMARK  8 active torsions:
REMARK  status: ('A' for Active; 'I' for Inactive)
REMARK    1  A    between atoms: C_1  and  C_2
REMARK    2  A    between atoms: C_5  and  S_6
REMARK    3  A    between atoms: S_6  and  C_9
REMARK    4  A    between atoms: N_12  and  C_13
REMARK    5  A    between atoms: C_13  and  C_14
REMARK    6  A    between atoms: C_14  and  N_15
REMARK    7  A    between atoms: N_15  and  C_16
REMARK    8  A    between atoms: N_15  and  C_17
REMARK                            x       y       z     vdW  Elec       q    Type
REMARK                         _______ _______ _______ _____ _____    ______ ____
ROOT
ATOM      1  C   UNL     1       3.242   4.250  19.417  0.00  0.00    +0.000 A 
ATOM      2  N   UNL     1       3.051   5.554  19.919  0.00  0.00    +0.000 NA
ATOM      3  C   UNL     1       1.863   5.665  20.480  0.00  0.00    +0.000 A 
ATOM      4  N   UNL     1       1.357   6.789  21.050  0.00  0.00    +0.000 N 
ATOM      5  S   UNL     1       0.893   4.237  20.388  0.00  0.00    +0.000 S 
ATOM      6  C   UNL     1       2.158   3.423  19.592  0.00  0.00    +0.000 A 
ATOM      7 CL   UNL     1       1.930   1.788  19.126  0.00  0.00    +0.000 Cl
ATOM      8  H   UNL     1       0.530   6.761  21.654  0.00  0.00    +0.000 HD
ENDROOT
BRANCH   1   9
ATOM      9  S   UNL     1       4.687   3.741  18.561  0.00  0.00    +0.000 S 
ATOM     10  O   UNL     1       4.219   3.284  17.280  0.00  0.00    +0.000 OA
ATOM     11  O   UNL     1       5.372   2.859  19.507  0.00  0.00    +0.000 OA
BRANCH   9  16
ATOM     12  C   UNL     1       8.284   8.556  17.604  0.00  0.00    +0.000 C 
ATOM     13  C   UNL     1       7.396   7.373  17.865  0.00  0.00    +0.000 A 
ATOM     14  C   UNL     1       7.741   6.392  18.804  0.00  0.00    +0.000 A 
ATOM     15  C   UNL     1       6.909   5.289  19.019  0.00  0.00    +0.000 A 
ATOM     16  C   UNL     1       5.724   5.158  18.285  0.00  0.00    +0.000 A 
ATOM     17  C   UNL     1       5.353   6.151  17.372  0.00  0.00    +0.000 A 
ATOM     18  C   UNL     1       6.204   7.240  17.152  0.00  0.00    +0.000 A 
ENDBRANCH   9  16
ENDBRANCH   1   9
BRANCH   4  19
ATOM     19  C   UNL     1       1.844   8.107  20.655  0.00  0.00    +0.000 C 
BRANCH  19  20
ATOM     20  C   UNL     1       0.734   9.166  20.358  0.00  0.00    +0.000 C 
BRANCH  20  21
ATOM     21  N   UNL     1       0.844  10.406  21.153  0.00  0.00    +0.000 NA
ATOM     22  C   UNL     1       0.730  11.615  20.328  0.00  0.00    +0.000 C 
ATOM     23  C   UNL     1      -0.176  10.455  22.208  0.00  0.00    +0.000 C 
ENDBRANCH  20  21
ENDBRANCH  19  20
ENDBRANCH   4  19
TORSDOF 5
ENDMDL
MODEL 6
REMARK VINA RESULT:      -6.6      4.257      7.144
REMARK  Name = 
REMARK  8 active torsions:
REMARK  status: ('A' for Active; 'I' for Inactive)
REMARK    1  A    between atoms: C_1  and  C_2
REMARK    2  A    between atoms: C_5  and  S_6
REMARK    3  A    between atoms: S_6  and  C_9
REMARK    4  A    between atoms: N_12  and  C_13
REMARK    5  A    between atoms: C_13  and  C_14
REMARK    6  A    between atoms: C_14  and  N_15
REMARK    7  A    between atoms: N_15  and  C_16
REMARK    8  A    between atoms: N_15  and  C_17
REMARK                            x       y       z     vdW  Elec       q    Type
REMARK                         _______ _______ _______ _____ _____    ______ ____
ROOT
ATOM      1  C   UNL     1       4.779   4.017  17.320  0.00  0.00    +0.000 A 
ATOM      2  N   UNL     1       5.061   3.770  15.960  0.00  0.00    +0.000 NA
ATOM      3  C   UNL     1       6.280   4.171  15.660  0.00  0.00    +0.000 A 
ATOM      4  N   UNL     1       6.862   4.090  14.435  0.00  0.00    +0.000 N 
ATOM      5  S   UNL     1       7.132   4.913  16.969  0.00  0.00    +0.000 S 
ATOM      6  C   UNL     1       5.803   4.637  17.996  0.00  0.00    +0.000 A 
ATOM      7 CL   UNL     1       5.898   5.146  19.631  0.00  0.00    +0.000 Cl
ATOM      8  H   UNL     1       7.871   4.214  14.309  0.00  0.00    +0.000 HD
ENDROOT
BRANCH   1   9
ATOM      9  S   UNL     1       3.235   3.660  18.072  0.00  0.00    +0.000 S 
ATOM     10  O   UNL     1       3.529   2.675  19.078  0.00  0.00    +0.000 OA
ATOM     11  O   UNL     1       2.341   3.390  16.945  0.00  0.00    +0.000 OA
BRANCH   9  16
ATOM     12  C   UNL     1       1.250   8.643  20.950  0.00  0.00    +0.000 C 
ATOM     13  C   UNL     1       1.717   7.401  20.244  0.00  0.00    +0.000 A 
ATOM     14  C   UNL     1       1.621   6.138  20.842  0.00  0.00    +0.000 A 
ATOM     15  C   UNL     1       2.078   4.998  20.174  0.00  0.00    +0.000 A 
ATOM     16  C   UNL     1       2.644   5.119  18.900  0.00  0.00    +0.000 A 
ATOM     17  C   UNL     1       2.711   6.371  18.279  0.00  0.00    +0.000 A 
ATOM     18  C   UNL     1       2.268   7.507  18.966  0.00  0.00    +0.000 A 
ENDBRANCH   9  16
ENDBRANCH   1   9
BRANCH   4  19
ATOM     19  C   UNL     1       6.046   4.036  13.226  0.00  0.00    +0.000 C 
BRANCH  19  20
ATOM     20  C   UNL     1       6.700   3.300  12.012  0.00  0.00    +0.000 C 
BRANCH  20  21
ATOM     21  N   UNL     1       5.744   2.582  11.145  0.00  0.00    +0.000 NA
ATOM     22  C   UNL     1       5.870   1.124  11.259  0.00  0.00    +0.000 C 
ATOM     23  C   UNL     1       4.359   2.963  11.448  0.00  0.00    +0.000 C 
ENDBRANCH  20  21
ENDBRANCH  19  20
ENDBRANCH   4  19
TORSDOF 5
ENDMDL
MODEL 7
REMARK VINA RESULT:      -6.6      1.910      2.294
REMARK  Name = 
REMARK  8 active torsions:
REMARK  status: ('A' for Active; 'I' for Inactive)
REMARK    1  A    between atoms: C_1  and  C_2
REMARK    2  A    between atoms: C_5  and  S_6
REMARK    3  A    between atoms: S_6  and  C_9
REMARK    4  A    between atoms: N_12  and  C_13
REMARK    5  A    between atoms: C_13  and  C_14
REMARK    6  A    between atoms: C_14  and  N_15
REMARK    7  A    between atoms: N_15  and  C_16
REMARK    8  A    between atoms: N_15  and  C_17
REMARK                            x       y       z     vdW  Elec       q    Type
REMARK                         _______ _______ _______ _____ _____    ______ ____
ROOT
ATOM      1  C   UNL     1       3.286   4.535  19.520  0.00  0.00    +0.000 A 
ATOM      2  N   UNL     1       3.254   5.832  18.969  0.00  0.00    +0.000 NA
ATOM      3  C   UNL     1       2.417   6.599  19.637  0.00  0.00    +0.000 A 
ATOM      4  N   UNL     1       2.141   7.901  19.362  0.00  0.00    +0.000 N 
ATOM      5  S   UNL     1       1.583   5.798  20.923  0.00  0.00    +0.000 S 
ATOM      6  C   UNL     1       2.430   4.361  20.581  0.00  0.00    +0.000 A 
ATOM      7 CL   UNL     1       2.118   2.968  21.533  0.00  0.00    +0.000 Cl
ATOM      8  H   UNL     1       1.656   8.502  20.034  0.00  0.00    +0.000 HD
ENDROOT
BRANCH   1   9
ATOM      9  S   UNL     1       4.250   3.224  18.865  0.00  0.00    +0.000 S 
ATOM     10  O   UNL     1       3.295   2.274  18.359  0.00  0.00    +0.000 OA
ATOM     11  O   UNL     1       5.189   2.897  19.939  0.00  0.00    +0.000 OA
BRANCH   9  16
ATOM     12  C   UNL     1       7.425   5.344  14.125  0.00  0.00    +0.000 C 
ATOM     13  C   UNL     1       6.638   4.799  15.283  0.00  0.00    +0.000 A 
ATOM     14  C   UNL     1       5.374   4.223  15.103  0.00  0.00    +0.000 A 
ATOM     15  C   UNL     1       4.651   3.737  16.196  0.00  0.00    +0.000 A 
ATOM     16  C   UNL     1       5.191   3.833  17.484  0.00  0.00    +0.000 A 
ATOM     17  C   UNL     1       6.468   4.373  17.670  0.00  0.00    +0.000 A 
ATOM     18  C   UNL     1       7.173   4.873  16.570  0.00  0.00    +0.000 A 
ENDBRANCH   9  16
ENDBRANCH   1   9
BRANCH   4  19
ATOM     19  C   UNL     1       2.336   8.434  18.017  0.00  0.00    +0.000 C 
BRANCH  19  20
ATOM     20  C   UNL     1       1.843   9.901  17.803  0.00  0.00    +0.000 C 
BRANCH  20  21
ATOM     21  N   UNL     1       0.914  10.392  18.841  0.00  0.00    +0.000 NA
ATOM     22  C   UNL     1       1.199  11.775  19.241  0.00  0.00    +0.000 C 
ATOM     23  C   UNL     1      -0.481  10.306  18.393  0.00  0.00    +0.000 C 
ENDBRANCH  20  21
ENDBRANCH  19  20
ENDBRANCH   4  19
TORSDOF 5
ENDMDL
MODEL 8
REMARK VINA RESULT:      -6.5      1.918      2.493
REMARK  Name = 
REMARK  8 active torsions:
REMARK  status: ('A' for Active; 'I' for Inactive)
REMARK    1  A    between atoms: C_1  and  C_2
REMARK    2  A    between atoms: C_5  and  S_6
REMARK    3  A    between atoms: S_6  and  C_9
REMARK    4  A    between atoms: N_12  and  C_13
REMARK    5  A    between atoms: C_13  and  C_14
REMARK    6  A    between atoms: C_14  and  N_15
REMARK    7  A    between atoms: N_15  and  C_16
REMARK    8  A    between atoms: N_15  and  C_17
REMARK                            x       y       z     vdW  Elec       q    Type
REMARK                         _______ _______ _______ _____ _____    ______ ____
ROOT
ATOM      1  C   UNL     1       3.304   4.530  19.550  0.00  0.00    +0.000 A 
ATOM      2  N   UNL     1       3.268   5.834  19.014  0.00  0.00    +0.000 NA
ATOM      3  C   UNL     1       2.421   6.588  19.685  0.00  0.00    +0.000 A 
ATOM      4  N   UNL     1       2.139   7.891  19.425  0.00  0.00    +0.000 N 
ATOM      5  S   UNL     1       1.583   5.765  20.955  0.00  0.00    +0.000 S 
ATOM      6  C   UNL     1       2.441   4.338  20.602  0.00  0.00    +0.000 A 
ATOM      7 CL   UNL     1       2.130   2.931  21.534  0.00  0.00    +0.000 Cl
ATOM      8  H   UNL     1       1.645   8.480  20.101  0.00  0.00    +0.000 HD
ENDROOT
BRANCH   1   9
ATOM      9  S   UNL     1       4.281   3.233  18.885  0.00  0.00    +0.000 S 
ATOM     10  O   UNL     1       3.336   2.262  18.404  0.00  0.00    +0.000 OA
ATOM     11  O   UNL     1       5.246   2.932  19.945  0.00  0.00    +0.000 OA
BRANCH   9  16
ATOM     12  C   UNL     1       7.416   5.308  14.099  0.00  0.00    +0.000 C 
ATOM     13  C   UNL     1       6.647   4.817  15.292  0.00  0.00    +0.000 A 
ATOM     14  C   UNL     1       7.199   4.840  16.580  0.00  0.00    +0.000 A 
ATOM     15  C   UNL     1       6.473   4.363  17.675  0.00  0.00    +0.000 A 
ATOM     16  C   UNL     1       5.184   3.850  17.484  0.00  0.00    +0.000 A 
ATOM     17  C   UNL     1       4.610   3.857  16.208  0.00  0.00    +0.000 A 
ATOM     18  C   UNL     1       5.355   4.319  15.118  0.00  0.00    +0.000 A 
ENDBRANCH   9  16
ENDBRANCH   1   9
BRANCH   4  19
ATOM     19  C   UNL     1       2.341   8.442  18.088  0.00  0.00    +0.000 C 
BRANCH  19  20
ATOM     20  C   UNL     1       1.483   9.703  17.750  0.00  0.00    +0.000 C 
BRANCH  20  21
ATOM     21  N   UNL     1       1.511  10.756  18.786  0.00  0.00    +0.000 NA
ATOM     22  C   UNL     1       2.155  11.989  18.316  0.00  0.00    +0.000 C 
ATOM     23  C   UNL     1       0.158  11.078  19.255  0.00  0.00    +0.000 C 
ENDBRANCH  20  21
ENDBRANCH  19  20
ENDBRANCH   4  19
TORSDOF 5
ENDMDL
MODEL 9
REMARK VINA RESULT:      -6.2      3.963      6.659
REMARK  Name = 
REMARK  8 active torsions:
REMARK  status: ('A' for Active; 'I' for Inactive)
REMARK    1  A    between atoms: C_1  and  C_2
REMARK    2  A    between atoms: C_5  and  S_6
REMARK    3  A    between atoms: S_6  and  C_9
REMARK    4  A    between atoms: N_12  and  C_13
REMARK    5  A    between atoms: C_13  and  C_14
REMARK    6  A    between atoms: C_14  and  N_15
REMARK    7  A    between atoms: N_15  and  C_16
REMARK    8  A    between atoms: N_15  and  C_17
REMARK                            x       y       z     vdW  Elec       q    Type
REMARK                         _______ _______ _______ _____ _____    ______ ____
ROOT
ATOM      1  C   UNL     1       6.693   6.505  17.114  0.00  0.00    +0.000 A 
ATOM      2  N   UNL     1       7.231   7.808  17.066  0.00  0.00    +0.000 NA
ATOM      3  C   UNL     1       8.053   8.007  18.076  0.00  0.00    +0.000 A 
ATOM      4  N   UNL     1       8.731   9.156  18.333  0.00  0.00    +0.000 N 
ATOM      5  S   UNL     1       8.186   6.670  19.165  0.00  0.00    +0.000 S 
ATOM      6  C   UNL     1       7.113   5.770  18.197  0.00  0.00    +0.000 A 
ATOM      7 CL   UNL     1       6.707   4.172  18.671  0.00  0.00    +0.000 Cl
ATOM      8  H   UNL     1       9.511   9.183  18.996  0.00  0.00    +0.000 HD
ENDROOT
BRANCH   1   9
ATOM      9  S   UNL     1       5.521   5.895  15.959  0.00  0.00    +0.000 S 
ATOM     10  O   UNL     1       6.218   4.875  15.223  0.00  0.00    +0.000 OA
ATOM     11  O   UNL     1       4.987   7.099  15.320  0.00  0.00    +0.000 OA
BRANCH   9  16
ATOM     12  C   UNL     1       0.934   3.254  18.964  0.00  0.00    +0.000 C 
ATOM     13  C   UNL     1       2.075   3.916  18.244  0.00  0.00    +0.000 A 
ATOM     14  C   UNL     1       2.347   5.281  18.401  0.00  0.00    +0.000 A 
ATOM     15  C   UNL     1       3.403   5.880  17.708  0.00  0.00    +0.000 A 
ATOM     16  C   UNL     1       4.192   5.112  16.844  0.00  0.00    +0.000 A 
ATOM     17  C   UNL     1       3.951   3.741  16.709  0.00  0.00    +0.000 A 
ATOM     18  C   UNL     1       2.879   3.157  17.393  0.00  0.00    +0.000 A 
ENDBRANCH   9  16
ENDBRANCH   1   9
BRANCH   4  19
ATOM     19  C   UNL     1       8.238  10.436  17.837  0.00  0.00    +0.000 C 
BRANCH  19  20
ATOM     20  C   UNL     1       9.116  11.676  18.201  0.00  0.00    +0.000 C 
BRANCH  20  21
ATOM     21  N   UNL     1      10.438  11.343  18.769  0.00  0.00    +0.000 NA
ATOM     22  C   UNL     1      11.543  11.915  17.991  0.00  0.00    +0.000 C 
ATOM     23  C   UNL     1      10.552  11.799  20.159  0.00  0.00    +0.000 C 
ENDBRANCH  20  21
ENDBRANCH  19  20
ENDBRANCH   4  19
TORSDOF 5
ENDMDL
