MODEL 1
REMARK VINA RESULT:      -8.9      0.000      0.000
REMARK  Name = 
REMARK  13 active torsions:
REMARK  status: ('A' for Active; 'I' for Inactive)
REMARK    1  A    between atoms: C_1  and  C_2
REMARK    2  A    between atoms: C_4  and  S_5
REMARK    3  A    between atoms: S_5  and  C_6
REMARK    4  A    between atoms: C_7  and  O_8
REMARK    5  A    between atoms: C_10  and  C_11
REMARK    6  A    between atoms: C_10  and  C_19
REMARK    7  A    between atoms: C_11  and  C_12
REMARK    8  A    between atoms: C_12  and  C_13
REMARK    9  A    between atoms: C_28  and  C_29
REMARK   10  A    between atoms: C_29  and  C_30
REMARK   11  A    between atoms: C_29  and  C_31
REMARK   12  A    between atoms: C_29  and  C_32
REMARK   13  A    between atoms: C_34  and  O_35
REMARK                            x       y       z     vdW  Elec       q    Type
REMARK                         _______ _______ _______ _____ _____    ______ ____
ROOT
ATOM      1  C   UNL     1       1.438   9.282  19.396  0.00  0.00    +0.000 C 
ATOM      2  C   UNL     1       1.859   8.633  18.305  0.00  0.00    +0.000 C 
ATOM      3  O   UNL     1       2.261   7.340  18.277  0.00  0.00    +0.000 OA
ATOM      4  C   UNL     1       2.459   6.555  19.457  0.00  0.00    +0.000 C 
ATOM      5  C   UNL     1       1.862   7.146  20.752  0.00  0.00    +0.000 C 
ATOM      6  C   UNL     1       1.432   8.585  20.697  0.00  0.00    +0.000 C 
ATOM      7  O   UNL     1       1.056   9.143  21.730  0.00  0.00    +0.000 OA
ENDROOT
BRANCH   4   8
ATOM      8  C   UNL     1       1.798   5.186  19.192  0.00  0.00    +0.000 A 
ATOM      9  C   UNL     1       1.323   4.391  20.253  0.00  0.00    +0.000 A 
ATOM     10  C   UNL     1       0.771   3.131  20.026  0.00  0.00    +0.000 A 
ATOM     11  C   UNL     1       0.685   2.635  18.730  0.00  0.00    +0.000 A 
ATOM     12  C   UNL     1       1.138   3.405  17.662  0.00  0.00    +0.000 A 
ATOM     13  C   UNL     1       1.684   4.672  17.887  0.00  0.00    +0.000 A 
ENDBRANCH   4   8
BRANCH   2  14
ATOM     14  O   UNL     1       1.878   9.258  17.070  0.00  0.00    +0.000 OA
ATOM     15  H   UNL     1       1.074   8.980  16.590  0.00  0.00    +0.000 HD
ENDBRANCH   2  14
BRANCH   1  16
ATOM     16  S   UNL     1       0.960  10.940  19.301  0.00  0.00    +0.000 S 
BRANCH  16  20
ATOM     17  C   UNL     1      -2.805   9.446  15.925  0.00  0.00    +0.000 C 
ATOM     18  C   UNL     1      -2.457  10.184  17.186  0.00  0.00    +0.000 A 
ATOM     19  C   UNL     1      -1.151  10.182  17.690  0.00  0.00    +0.000 A 
ATOM     20  C   UNL     1      -0.787  10.867  18.881  0.00  0.00    +0.000 A 
ATOM     21  C   UNL     1      -1.775  11.594  19.600  0.00  0.00    +0.000 A 
ATOM     22  C   UNL     1      -3.082  11.608  19.035  0.00  0.00    +0.000 A 
ATOM     23  C   UNL     1      -3.413  10.911  17.872  0.00  0.00    +0.000 A 
BRANCH  21  24
ATOM     24  C   UNL     1      -1.543  12.445  20.889  0.00  0.00    +0.000 C 
ATOM     25  C   UNL     1      -0.727  13.694  20.492  0.00  0.00    +0.000 C 
ATOM     26  C   UNL     1      -2.890  12.915  21.510  0.00  0.00    +0.000 C 
ATOM     27  C   UNL     1      -0.823  11.758  22.076  0.00  0.00    +0.000 C 
ENDBRANCH  21  24
BRANCH  23  28
ATOM     28  O   UNL     1      -4.687  10.952  17.380  0.00  0.00    +0.000 OA
ATOM     29  H   UNL     1      -4.725  10.441  16.555  0.00  0.00    +0.000 HD
ENDBRANCH  23  28
ENDBRANCH  16  20
ENDBRANCH   1  16
BRANCH   4  30
ATOM     30  C   UNL     1       4.005   6.413  19.593  0.00  0.00    +0.000 C 
BRANCH  30  31
ATOM     31  C   UNL     1       4.529   5.003  19.264  0.00  0.00    +0.000 C 
BRANCH  31  32
ATOM     32  C   UNL     1       5.358   4.986  18.002  0.00  0.00    +0.000 A 
ATOM     33  C   UNL     1       6.720   4.657  18.054  0.00  0.00    +0.000 A 
ATOM     34  C   UNL     1       7.488   4.636  16.889  0.00  0.00    +0.000 A 
ATOM     35  C   UNL     1       6.904   4.948  15.662  0.00  0.00    +0.000 A 
ATOM     36  C   UNL     1       5.553   5.282  15.600  0.00  0.00    +0.000 A 
ATOM     37  C   UNL     1       4.782   5.304  16.765  0.00  0.00    +0.000 A 
ENDBRANCH  31  32
ENDBRANCH  30  31
ENDBRANCH   4  30
TORSDOF 9
ENDMDL
MODEL 2
REMARK VINA RESULT:      -8.9      0.130      1.053
REMARK  Name = 
REMARK  13 active torsions:
REMARK  status: ('A' for Active; 'I' for Inactive)
REMARK    1  A    between atoms: C_1  and  C_2
REMARK    2  A    between atoms: C_4  and  S_5
REMARK    3  A    between atoms: S_5  and  C_6
REMARK    4  A    between atoms: C_7  and  O_8
REMARK    5  A    between atoms: C_10  and  C_11
REMARK    6  A    between atoms: C_10  and  C_19
REMARK    7  A    between atoms: C_11  and  C_12
REMARK    8  A    between atoms: C_12  and  C_13
REMARK    9  A    between atoms: C_28  and  C_29
REMARK   10  A    between atoms: C_29  and  C_30
REMARK   11  A    between atoms: C_29  and  C_31
REMARK   12  A    between atoms: C_29  and  C_32
REMARK   13  A    between atoms: C_34  and  O_35
REMARK                            x       y       z     vdW  Elec       q    Type
REMARK                         _______ _______ _______ _____ _____    ______ ____
ROOT
ATOM      1  C   UNL     1       1.443   9.286  19.393  0.00  0.00    +0.000 C 
ATOM      2  C   UNL     1       1.865   8.636  18.304  0.00  0.00    +0.000 C 
ATOM      3  O   UNL     1       2.267   7.343  18.278  0.00  0.00    +0.000 OA
ATOM      4  C   UNL     1       2.463   6.559  19.459  0.00  0.00    +0.000 C 
ATOM      5  C   UNL     1       1.865   7.152  20.752  0.00  0.00    +0.000 C 
ATOM      6  C   UNL     1       1.435   8.591  20.696  0.00  0.00    +0.000 C 
ATOM      7  O   UNL     1       1.059   9.151  21.727  0.00  0.00    +0.000 OA
ENDROOT
BRANCH   4   8
ATOM      8  C   UNL     1       1.801   5.190  19.195  0.00  0.00    +0.000 A 
ATOM      9  C   UNL     1       1.325   4.397  20.256  0.00  0.00    +0.000 A 
ATOM     10  C   UNL     1       0.773   3.137  20.030  0.00  0.00    +0.000 A 
ATOM     11  C   UNL     1       0.688   2.639  18.734  0.00  0.00    +0.000 A 
ATOM     12  C   UNL     1       1.142   3.407  17.666  0.00  0.00    +0.000 A 
ATOM     13  C   UNL     1       1.689   4.675  17.890  0.00  0.00    +0.000 A 
ENDBRANCH   4   8
BRANCH   2  14
ATOM     14  O   UNL     1       1.886   9.259  17.068  0.00  0.00    +0.000 OA
ATOM     15  H   UNL     1       1.394   8.690  16.446  0.00  0.00    +0.000 HD
ENDBRANCH   2  14
BRANCH   1  16
ATOM     16  S   UNL     1       0.966  10.945  19.296  0.00  0.00    +0.000 S 
BRANCH  16  20
ATOM     17  C   UNL     1      -2.783   9.448  15.903  0.00  0.00    +0.000 C 
ATOM     18  C   UNL     1      -2.441  10.187  17.165  0.00  0.00    +0.000 A 
ATOM     19  C   UNL     1      -1.137  10.185  17.676  0.00  0.00    +0.000 A 
ATOM     20  C   UNL     1      -0.779  10.873  18.867  0.00  0.00    +0.000 A 
ATOM     21  C   UNL     1      -1.770  11.601  19.580  0.00  0.00    +0.000 A 
ATOM     22  C   UNL     1      -3.074  11.615  19.008  0.00  0.00    +0.000 A 
ATOM     23  C   UNL     1      -3.400  10.916  17.845  0.00  0.00    +0.000 A 
BRANCH  21  24
ATOM     24  C   UNL     1      -1.543  12.454  20.869  0.00  0.00    +0.000 C 
ATOM     25  C   UNL     1      -2.872  13.163  21.209  0.00  0.00    +0.000 C 
ATOM     26  C   UNL     1      -1.138  11.561  22.077  0.00  0.00    +0.000 C 
ATOM     27  C   UNL     1      -0.425  13.525  20.825  0.00  0.00    +0.000 C 
ENDBRANCH  21  24
BRANCH  23  28
ATOM     28  O   UNL     1      -4.671  10.957  17.346  0.00  0.00    +0.000 OA
ATOM     29  H   UNL     1      -5.078  10.080  17.443  0.00  0.00    +0.000 HD
ENDBRANCH  23  28
ENDBRANCH  16  20
ENDBRANCH   1  16
BRANCH   4  30
ATOM     30  C   UNL     1       4.008   6.417  19.597  0.00  0.00    +0.000 C 
BRANCH  30  31
ATOM     31  C   UNL     1       4.535   5.014  19.241  0.00  0.00    +0.000 C 
BRANCH  31  32
ATOM     32  C   UNL     1       5.362   5.023  17.977  0.00  0.00    +0.000 A 
ATOM     33  C   UNL     1       4.794   5.427  16.762  0.00  0.00    +0.000 A 
ATOM     34  C   UNL     1       5.557   5.442  15.593  0.00  0.00    +0.000 A 
ATOM     35  C   UNL     1       6.894   5.048  15.628  0.00  0.00    +0.000 A 
ATOM     36  C   UNL     1       7.468   4.641  16.830  0.00  0.00    +0.000 A 
ATOM     37  C   UNL     1       6.706   4.625  18.001  0.00  0.00    +0.000 A 
ENDBRANCH  31  32
ENDBRANCH  30  31
ENDBRANCH   4  30
TORSDOF 9
ENDMDL
MODEL 3
REMARK VINA RESULT:      -8.7      0.447      1.067
REMARK  Name = 
REMARK  13 active torsions:
REMARK  status: ('A' for Active; 'I' for Inactive)
REMARK    1  A    between atoms: C_1  and  C_2
REMARK    2  A    between atoms: C_4  and  S_5
REMARK    3  A    between atoms: S_5  and  C_6
REMARK    4  A    between atoms: C_7  and  O_8
REMARK    5  A    between atoms: C_10  and  C_11
REMARK    6  A    between atoms: C_10  and  C_19
REMARK    7  A    between atoms: C_11  and  C_12
REMARK    8  A    between atoms: C_12  and  C_13
REMARK    9  A    between atoms: C_28  and  C_29
REMARK   10  A    between atoms: C_29  and  C_30
REMARK   11  A    between atoms: C_29  and  C_31
REMARK   12  A    between atoms: C_29  and  C_32
REMARK   13  A    between atoms: C_34  and  O_35
REMARK                            x       y       z     vdW  Elec       q    Type
REMARK                         _______ _______ _______ _____ _____    ______ ____
ROOT
ATOM      1  C   UNL     1       1.480   9.256  19.380  0.00  0.00    +0.000 C 
ATOM      2  C   UNL     1       1.933   8.604  18.304  0.00  0.00    +0.000 C 
ATOM      3  O   UNL     1       2.342   7.313  18.294  0.00  0.00    +0.000 OA
ATOM      4  C   UNL     1       2.510   6.534  19.482  0.00  0.00    +0.000 C 
ATOM      5  C   UNL     1       1.876   7.129  20.757  0.00  0.00    +0.000 C 
ATOM      6  C   UNL     1       1.441   8.566  20.684  0.00  0.00    +0.000 C 
ATOM      7  O   UNL     1       1.035   9.127  21.703  0.00  0.00    +0.000 OA
ENDROOT
BRANCH   4   8
ATOM      8  C   UNL     1       1.862   5.161  19.207  0.00  0.00    +0.000 A 
ATOM      9  C   UNL     1       1.713   4.678  17.893  0.00  0.00    +0.000 A 
ATOM     10  C   UNL     1       1.083   3.462  17.633  0.00  0.00    +0.000 A 
ATOM     11  C   UNL     1       0.581   2.701  18.684  0.00  0.00    +0.000 A 
ATOM     12  C   UNL     1       0.725   3.152  19.994  0.00  0.00    +0.000 A 
ATOM     13  C   UNL     1       1.364   4.366  20.257  0.00  0.00    +0.000 A 
ENDBRANCH   4   8
BRANCH   2  14
ATOM     14  O   UNL     1       1.983   9.222  17.067  0.00  0.00    +0.000 OA
ATOM     15  H   UNL     1       2.812   9.736  17.031  0.00  0.00    +0.000 HD
ENDBRANCH   2  14
BRANCH   1  16
ATOM     16  S   UNL     1       0.998  10.912  19.263  0.00  0.00    +0.000 S 
BRANCH  16  20
ATOM     17  C   UNL     1      -2.780   9.392  15.913  0.00  0.00    +0.000 C 
ATOM     18  C   UNL     1      -2.428  10.134  17.170  0.00  0.00    +0.000 A 
ATOM     19  C   UNL     1      -1.119  10.140  17.667  0.00  0.00    +0.000 A 
ATOM     20  C   UNL     1      -0.751  10.830  18.854  0.00  0.00    +0.000 A 
ATOM     21  C   UNL     1      -1.739  11.552  19.578  0.00  0.00    +0.000 A 
ATOM     22  C   UNL     1      -3.049  11.559  19.020  0.00  0.00    +0.000 A 
ATOM     23  C   UNL     1      -3.383  10.858  17.860  0.00  0.00    +0.000 A 
BRANCH  21  24
ATOM     24  C   UNL     1      -1.503  12.408  20.863  0.00  0.00    +0.000 C 
ATOM     25  C   UNL     1      -0.708  13.667  20.457  0.00  0.00    +0.000 C 
ATOM     26  C   UNL     1      -2.849  12.860  21.500  0.00  0.00    +0.000 C 
ATOM     27  C   UNL     1      -0.761  11.730  22.042  0.00  0.00    +0.000 C 
ENDBRANCH  21  24
BRANCH  23  28
ATOM     28  O   UNL     1      -4.661  10.891  17.376  0.00  0.00    +0.000 OA
ATOM     29  H   UNL     1      -5.179  10.188  17.800  0.00  0.00    +0.000 HD
ENDBRANCH  23  28
ENDBRANCH  16  20
ENDBRANCH   1  16
BRANCH   4  30
ATOM     30  C   UNL     1       4.052   6.400  19.662  0.00  0.00    +0.000 C 
BRANCH  30  31
ATOM     31  C   UNL     1       4.596   5.002  19.313  0.00  0.00    +0.000 C 
BRANCH  31  32
ATOM     32  C   UNL     1       5.398   5.008  18.033  0.00  0.00    +0.000 A 
ATOM     33  C   UNL     1       5.120   4.084  17.018  0.00  0.00    +0.000 A 
ATOM     34  C   UNL     1       5.855   4.091  15.832  0.00  0.00    +0.000 A 
ATOM     35  C   UNL     1       6.880   5.020  15.652  0.00  0.00    +0.000 A 
ATOM     36  C   UNL     1       7.168   5.941  16.657  0.00  0.00    +0.000 A 
ATOM     37  C   UNL     1       6.433   5.935  17.844  0.00  0.00    +0.000 A 
ENDBRANCH  31  32
ENDBRANCH  30  31
ENDBRANCH   4  30
TORSDOF 9
ENDMDL
MODEL 4
REMARK VINA RESULT:      -8.7      0.481      1.132
REMARK  Name = 
REMARK  13 active torsions:
REMARK  status: ('A' for Active; 'I' for Inactive)
REMARK    1  A    between atoms: C_1  and  C_2
REMARK    2  A    between atoms: C_4  and  S_5
REMARK    3  A    between atoms: S_5  and  C_6
REMARK    4  A    between atoms: C_7  and  O_8
REMARK    5  A    between atoms: C_10  and  C_11
REMARK    6  A    between atoms: C_10  and  C_19
REMARK    7  A    between atoms: C_11  and  C_12
REMARK    8  A    between atoms: C_12  and  C_13
REMARK    9  A    between atoms: C_28  and  C_29
REMARK   10  A    between atoms: C_29  and  C_30
REMARK   11  A    between atoms: C_29  and  C_31
REMARK   12  A    between atoms: C_29  and  C_32
REMARK   13  A    between atoms: C_34  and  O_35
REMARK                            x       y       z     vdW  Elec       q    Type
REMARK                         _______ _______ _______ _____ _____    ______ ____
ROOT
ATOM      1  C   UNL     1       1.550   9.168  19.367  0.00  0.00    +0.000 C 
ATOM      2  C   UNL     1       2.012   8.500  18.305  0.00  0.00    +0.000 C 
ATOM      3  O   UNL     1       2.400   7.202  18.312  0.00  0.00    +0.000 OA
ATOM      4  C   UNL     1       2.536   6.431  19.509  0.00  0.00    +0.000 C 
ATOM      5  C   UNL     1       1.889   7.046  20.768  0.00  0.00    +0.000 C 
ATOM      6  C   UNL     1       1.478   8.489  20.676  0.00  0.00    +0.000 C 
ATOM      7  O   UNL     1       1.063   9.065  21.683  0.00  0.00    +0.000 OA
ENDROOT
BRANCH   4   8
ATOM      8  C   UNL     1       1.871   5.066  19.233  0.00  0.00    +0.000 A 
ATOM      9  C   UNL     1       1.709   4.589  17.918  0.00  0.00    +0.000 A 
ATOM     10  C   UNL     1       1.063   3.381  17.658  0.00  0.00    +0.000 A 
ATOM     11  C   UNL     1       0.560   2.623  18.709  0.00  0.00    +0.000 A 
ATOM     12  C   UNL     1       0.716   3.067  20.019  0.00  0.00    +0.000 A 
ATOM     13  C   UNL     1       1.371   4.273  20.283  0.00  0.00    +0.000 A 
ENDBRANCH   4   8
BRANCH   2  14
ATOM     14  O   UNL     1       2.094   9.108  17.064  0.00  0.00    +0.000 OA
ATOM     15  H   UNL     1       2.134   8.399  16.394  0.00  0.00    +0.000 HD
ENDBRANCH   2  14
BRANCH   1  16
ATOM     16  S   UNL     1       1.097  10.830  19.229  0.00  0.00    +0.000 S 
BRANCH  16  20
ATOM     17  C   UNL     1      -2.754   9.390  15.927  0.00  0.00    +0.000 C 
ATOM     18  C   UNL     1      -2.372  10.115  17.186  0.00  0.00    +0.000 A 
ATOM     19  C   UNL     1      -1.055  10.100  17.661  0.00  0.00    +0.000 A 
ATOM     20  C   UNL     1      -0.660  10.773  18.848  0.00  0.00    +0.000 A 
ATOM     21  C   UNL     1      -1.626  11.500  19.596  0.00  0.00    +0.000 A 
ATOM     22  C   UNL     1      -2.945  11.528  19.060  0.00  0.00    +0.000 A 
ATOM     23  C   UNL     1      -3.307  10.843  17.899  0.00  0.00    +0.000 A 
BRANCH  21  24
ATOM     24  C   UNL     1      -1.358  12.339  20.886  0.00  0.00    +0.000 C 
ATOM     25  C   UNL     1      -2.627  13.165  21.187  0.00  0.00    +0.000 C 
ATOM     26  C   UNL     1      -1.066  11.422  22.109  0.00  0.00    +0.000 C 
ATOM     27  C   UNL     1      -0.148  13.306  20.868  0.00  0.00    +0.000 C 
ENDBRANCH  21  24
BRANCH  23  28
ATOM     28  O   UNL     1      -4.592  10.897  17.437  0.00  0.00    +0.000 OA
ATOM     29  H   UNL     1      -4.684  11.658  16.841  0.00  0.00    +0.000 HD
ENDBRANCH  23  28
ENDBRANCH  16  20
ENDBRANCH   1  16
BRANCH   4  30
ATOM     30  C   UNL     1       4.072   6.274  19.716  0.00  0.00    +0.000 C 
BRANCH  30  31
ATOM     31  C   UNL     1       4.614   4.891  19.308  0.00  0.00    +0.000 C 
BRANCH  31  32
ATOM     32  C   UNL     1       5.395   4.946  18.018  0.00  0.00    +0.000 A 
ATOM     33  C   UNL     1       6.437   5.870  17.860  0.00  0.00    +0.000 A 
ATOM     34  C   UNL     1       7.165   5.920  16.670  0.00  0.00    +0.000 A 
ATOM     35  C   UNL     1       6.855   5.050  15.625  0.00  0.00    +0.000 A 
ATOM     36  C   UNL     1       5.818   4.131  15.770  0.00  0.00    +0.000 A 
ATOM     37  C   UNL     1       5.088   4.079  16.960  0.00  0.00    +0.000 A 
ENDBRANCH  31  32
ENDBRANCH  30  31
ENDBRANCH   4  30
TORSDOF 9
ENDMDL
MODEL 5
REMARK VINA RESULT:      -8.6      1.530      3.914
REMARK  Name = 
REMARK  13 active torsions:
REMARK  status: ('A' for Active; 'I' for Inactive)
REMARK    1  A    between atoms: C_1  and  C_2
REMARK    2  A    between atoms: C_4  and  S_5
REMARK    3  A    between atoms: S_5  and  C_6
REMARK    4  A    between atoms: C_7  and  O_8
REMARK    5  A    between atoms: C_10  and  C_11
REMARK    6  A    between atoms: C_10  and  C_19
REMARK    7  A    between atoms: C_11  and  C_12
REMARK    8  A    between atoms: C_12  and  C_13
REMARK    9  A    between atoms: C_28  and  C_29
REMARK   10  A    between atoms: C_29  and  C_30
REMARK   11  A    between atoms: C_29  and  C_31
REMARK   12  A    between atoms: C_29  and  C_32
REMARK   13  A    between atoms: C_34  and  O_35
REMARK                            x       y       z     vdW  Elec       q    Type
REMARK                         _______ _______ _______ _____ _____    ______ ____
ROOT
ATOM      1  C   UNL     1       1.714   8.975  19.673  0.00  0.00    +0.000 C 
ATOM      2  C   UNL     1       1.942   7.799  20.266  0.00  0.00    +0.000 C 
ATOM      3  O   UNL     1       2.477   6.713  19.657  0.00  0.00    +0.000 OA
ATOM      4  C   UNL     1       2.698   6.635  18.246  0.00  0.00    +0.000 C 
ATOM      5  C   UNL     1       2.617   7.978  17.489  0.00  0.00    +0.000 C 
ATOM      6  C   UNL     1       2.018   9.136  18.237  0.00  0.00    +0.000 C 
ATOM      7  O   UNL     1       1.821  10.200  17.647  0.00  0.00    +0.000 OA
ENDROOT
BRANCH   4   8
ATOM      8  C   UNL     1       4.113   6.048  18.052  0.00  0.00    +0.000 A 
ATOM      9  C   UNL     1       4.622   5.789  16.765  0.00  0.00    +0.000 A 
ATOM     10  C   UNL     1       5.878   5.212  16.584  0.00  0.00    +0.000 A 
ATOM     11  C   UNL     1       6.653   4.876  17.688  0.00  0.00    +0.000 A 
ATOM     12  C   UNL     1       6.177   5.131  18.972  0.00  0.00    +0.000 A 
ATOM     13  C   UNL     1       4.921   5.718  19.155  0.00  0.00    +0.000 A 
ENDBRANCH   4   8
BRANCH   2  14
ATOM     14  O   UNL     1       1.667   7.615  21.610  0.00  0.00    +0.000 OA
ATOM     15  H   UNL     1       0.756   7.926  21.766  0.00  0.00    +0.000 HD
ENDBRANCH   2  14
BRANCH   1  16
ATOM     16  S   UNL     1       1.014  10.284  20.560  0.00  0.00    +0.000 S 
BRANCH  16  20
ATOM     17  C   UNL     1      -3.183   9.289  17.526  0.00  0.00    +0.000 C 
ATOM     18  C   UNL     1      -2.192  10.303  18.021  0.00  0.00    +0.000 A 
ATOM     19  C   UNL     1      -1.231   9.968  18.983  0.00  0.00    +0.000 A 
ATOM     20  C   UNL     1      -0.280  10.903  19.475  0.00  0.00    +0.000 A 
ATOM     21  C   UNL     1      -0.286  12.235  18.979  0.00  0.00    +0.000 A 
ATOM     22  C   UNL     1      -1.249  12.527  17.972  0.00  0.00    +0.000 A 
ATOM     23  C   UNL     1      -2.182  11.592  17.520  0.00  0.00    +0.000 A 
BRANCH  21  24
ATOM     24  C   UNL     1       0.715  13.371  19.364  0.00  0.00    +0.000 C 
ATOM     25  C   UNL     1       0.168  14.699  18.799  0.00  0.00    +0.000 C 
ATOM     26  C   UNL     1       0.847  13.511  20.908  0.00  0.00    +0.000 C 
ATOM     27  C   UNL     1       2.183  13.216  18.893  0.00  0.00    +0.000 C 
ENDBRANCH  21  24
BRANCH  23  28
ATOM     28  O   UNL     1      -3.091  11.931  16.558  0.00  0.00    +0.000 OA
ATOM     29  H   UNL     1      -3.713  12.581  16.924  0.00  0.00    +0.000 HD
ENDBRANCH  23  28
ENDBRANCH  16  20
ENDBRANCH   1  16
BRANCH   4  30
ATOM     30  C   UNL     1       1.608   5.654  17.720  0.00  0.00    +0.000 C 
BRANCH  30  31
ATOM     31  C   UNL     1       2.060   4.182  17.695  0.00  0.00    +0.000 C 
BRANCH  31  32
ATOM     32  C   UNL     1       2.102   3.578  19.078  0.00  0.00    +0.000 A 
ATOM     33  C   UNL     1       3.226   2.858  19.503  0.00  0.00    +0.000 A 
ATOM     34  C   UNL     1       3.270   2.302  20.782  0.00  0.00    +0.000 A 
ATOM     35  C   UNL     1       2.188   2.458  21.648  0.00  0.00    +0.000 A 
ATOM     36  C   UNL     1       1.063   3.169  21.234  0.00  0.00    +0.000 A 
ATOM     37  C   UNL     1       1.018   3.725  19.954  0.00  0.00    +0.000 A 
ENDBRANCH  31  32
ENDBRANCH  30  31
ENDBRANCH   4  30
TORSDOF 9
ENDMDL
MODEL 6
REMARK VINA RESULT:      -8.5      1.545      3.892
REMARK  Name = 
REMARK  13 active torsions:
REMARK  status: ('A' for Active; 'I' for Inactive)
REMARK    1  A    between atoms: C_1  and  C_2
REMARK    2  A    between atoms: C_4  and  S_5
REMARK    3  A    between atoms: S_5  and  C_6
REMARK    4  A    between atoms: C_7  and  O_8
REMARK    5  A    between atoms: C_10  and  C_11
REMARK    6  A    between atoms: C_10  and  C_19
REMARK    7  A    between atoms: C_11  and  C_12
REMARK    8  A    between atoms: C_12  and  C_13
REMARK    9  A    between atoms: C_28  and  C_29
REMARK   10  A    between atoms: C_29  and  C_30
REMARK   11  A    between atoms: C_29  and  C_31
REMARK   12  A    between atoms: C_29  and  C_32
REMARK   13  A    between atoms: C_34  and  O_35
REMARK                            x       y       z     vdW  Elec       q    Type
REMARK                         _______ _______ _______ _____ _____    ______ ____
ROOT
ATOM      1  C   UNL     1       1.727   9.031  19.649  0.00  0.00    +0.000 C 
ATOM      2  C   UNL     1       1.931   7.862  20.266  0.00  0.00    +0.000 C 
ATOM      3  O   UNL     1       2.448   6.756  19.680  0.00  0.00    +0.000 OA
ATOM      4  C   UNL     1       2.671   6.645  18.272  0.00  0.00    +0.000 C 
ATOM      5  C   UNL     1       2.617   7.973  17.488  0.00  0.00    +0.000 C 
ATOM      6  C   UNL     1       2.037   9.157  18.211  0.00  0.00    +0.000 C 
ATOM      7  O   UNL     1       1.862  10.213  17.600  0.00  0.00    +0.000 OA
ENDROOT
BRANCH   4   8
ATOM      8  C   UNL     1       4.075   6.029  18.094  0.00  0.00    +0.000 A 
ATOM      9  C   UNL     1       4.878   5.716  19.208  0.00  0.00    +0.000 A 
ATOM     10  C   UNL     1       6.167   5.207  19.054  0.00  0.00    +0.000 A 
ATOM     11  C   UNL     1       6.685   5.002  17.780  0.00  0.00    +0.000 A 
ATOM     12  C   UNL     1       5.907   5.293  16.662  0.00  0.00    +0.000 A 
ATOM     13  C   UNL     1       4.612   5.796  16.814  0.00  0.00    +0.000 A 
ENDBRANCH   4   8
BRANCH   2  14
ATOM     14  O   UNL     1       1.650   7.711  21.613  0.00  0.00    +0.000 OA
ATOM     15  H   UNL     1       2.202   8.352  22.100  0.00  0.00    +0.000 HD
ENDBRANCH   2  14
BRANCH   1  16
ATOM     16  S   UNL     1       1.049  10.369  20.507  0.00  0.00    +0.000 S 
BRANCH  16  20
ATOM     17  C   UNL     1      -3.174   9.293  17.539  0.00  0.00    +0.000 C 
ATOM     18  C   UNL     1      -2.186  10.322  18.006  0.00  0.00    +0.000 A 
ATOM     19  C   UNL     1      -1.212  10.011  18.962  0.00  0.00    +0.000 A 
ATOM     20  C   UNL     1      -0.263  10.960  19.428  0.00  0.00    +0.000 A 
ATOM     21  C   UNL     1      -0.285  12.285  18.911  0.00  0.00    +0.000 A 
ATOM     22  C   UNL     1      -1.262  12.553  17.910  0.00  0.00    +0.000 A 
ATOM     23  C   UNL     1      -2.192  11.603  17.484  0.00  0.00    +0.000 A 
BRANCH  21  24
ATOM     24  C   UNL     1       0.711  13.434  19.266  0.00  0.00    +0.000 C 
ATOM     25  C   UNL     1       2.007  13.206  18.459  0.00  0.00    +0.000 C 
ATOM     26  C   UNL     1       0.131  14.827  18.883  0.00  0.00    +0.000 C 
ATOM     27  C   UNL     1       1.097  13.606  20.757  0.00  0.00    +0.000 C 
ENDBRANCH  21  24
BRANCH  23  28
ATOM     28  O   UNL     1      -3.115  11.919  16.527  0.00  0.00    +0.000 OA
ATOM     29  H   UNL     1      -3.819  11.250  16.532  0.00  0.00    +0.000 HD
ENDBRANCH  23  28
ENDBRANCH  16  20
ENDBRANCH   1  16
BRANCH   4  30
ATOM     30  C   UNL     1       1.565   5.674  17.762  0.00  0.00    +0.000 C 
BRANCH  30  31
ATOM     31  C   UNL     1       2.011   4.201  17.706  0.00  0.00    +0.000 C 
BRANCH  31  32
ATOM     32  C   UNL     1       2.097   3.582  19.080  0.00  0.00    +0.000 A 
ATOM     33  C   UNL     1       1.036   3.719  19.986  0.00  0.00    +0.000 A 
ATOM     34  C   UNL     1       1.110   3.144  21.255  0.00  0.00    +0.000 A 
ATOM     35  C   UNL     1       2.246   2.429  21.633  0.00  0.00    +0.000 A 
ATOM     36  C   UNL     1       3.308   2.290  20.742  0.00  0.00    +0.000 A 
ATOM     37  C   UNL     1       3.236   2.865  19.471  0.00  0.00    +0.000 A 
ENDBRANCH  31  32
ENDBRANCH  30  31
ENDBRANCH   4  30
TORSDOF 9
ENDMDL
MODEL 7
REMARK VINA RESULT:      -8.5      1.689      3.628
REMARK  Name = 
REMARK  13 active torsions:
REMARK  status: ('A' for Active; 'I' for Inactive)
REMARK    1  A    between atoms: C_1  and  C_2
REMARK    2  A    between atoms: C_4  and  S_5
REMARK    3  A    between atoms: S_5  and  C_6
REMARK    4  A    between atoms: C_7  and  O_8
REMARK    5  A    between atoms: C_10  and  C_11
REMARK    6  A    between atoms: C_10  and  C_19
REMARK    7  A    between atoms: C_11  and  C_12
REMARK    8  A    between atoms: C_12  and  C_13
REMARK    9  A    between atoms: C_28  and  C_29
REMARK   10  A    between atoms: C_29  and  C_30
REMARK   11  A    between atoms: C_29  and  C_31
REMARK   12  A    between atoms: C_29  and  C_32
REMARK   13  A    between atoms: C_34  and  O_35
REMARK                            x       y       z     vdW  Elec       q    Type
REMARK                         _______ _______ _______ _____ _____    ______ ____
ROOT
ATOM      1  C   UNL     1       1.736   8.995  19.663  0.00  0.00    +0.000 C 
ATOM      2  C   UNL     1       1.935   7.836  20.300  0.00  0.00    +0.000 C 
ATOM      3  O   UNL     1       2.441   6.715  19.731  0.00  0.00    +0.000 OA
ATOM      4  C   UNL     1       2.655   6.578  18.324  0.00  0.00    +0.000 C 
ATOM      5  C   UNL     1       2.606   7.893  17.517  0.00  0.00    +0.000 C 
ATOM      6  C   UNL     1       2.039   9.093  18.222  0.00  0.00    +0.000 C 
ATOM      7  O   UNL     1       1.867  10.139  17.592  0.00  0.00    +0.000 OA
ENDROOT
BRANCH   4   8
ATOM      8  C   UNL     1       4.054   5.949  18.149  0.00  0.00    +0.000 A 
ATOM      9  C   UNL     1       4.490   5.482  16.894  0.00  0.00    +0.000 A 
ATOM     10  C   UNL     1       5.731   4.866  16.740  0.00  0.00    +0.000 A 
ATOM     11  C   UNL     1       6.565   4.699  17.840  0.00  0.00    +0.000 A 
ATOM     12  C   UNL     1       6.162   5.160  19.090  0.00  0.00    +0.000 A 
ATOM     13  C   UNL     1       4.921   5.786  19.246  0.00  0.00    +0.000 A 
ENDBRANCH   4   8
BRANCH   2  14
ATOM     14  O   UNL     1       1.660   7.710  21.650  0.00  0.00    +0.000 OA
ATOM     15  H   UNL     1       2.354   7.145  22.038  0.00  0.00    +0.000 HD
ENDBRANCH   2  14
BRANCH   1  16
ATOM     16  S   UNL     1       1.071  10.353  20.501  0.00  0.00    +0.000 S 
BRANCH  16  20
ATOM     17  C   UNL     1      -3.125   9.271  17.497  0.00  0.00    +0.000 C 
ATOM     18  C   UNL     1      -2.143  10.302  17.974  0.00  0.00    +0.000 A 
ATOM     19  C   UNL     1      -1.176   9.992  18.938  0.00  0.00    +0.000 A 
ATOM     20  C   UNL     1      -0.232  10.943  19.412  0.00  0.00    +0.000 A 
ATOM     21  C   UNL     1      -0.254  12.268  18.896  0.00  0.00    +0.000 A 
ATOM     22  C   UNL     1      -1.223  12.535  17.888  0.00  0.00    +0.000 A 
ATOM     23  C   UNL     1      -2.148  11.583  17.453  0.00  0.00    +0.000 A 
BRANCH  21  24
ATOM     24  C   UNL     1       0.737  13.419  19.261  0.00  0.00    +0.000 C 
ATOM     25  C   UNL     1       2.048  13.182  18.481  0.00  0.00    +0.000 C 
ATOM     26  C   UNL     1       0.167  14.809  18.854  0.00  0.00    +0.000 C 
ATOM     27  C   UNL     1       1.094  13.604  20.757  0.00  0.00    +0.000 C 
ENDBRANCH  21  24
BRANCH  23  28
ATOM     28  O   UNL     1      -3.064  11.899  16.490  0.00  0.00    +0.000 OA
ATOM     29  H   UNL     1      -3.936  12.002  16.903  0.00  0.00    +0.000 HD
ENDBRANCH  23  28
ENDBRANCH  16  20
ENDBRANCH   1  16
BRANCH   4  30
ATOM     30  C   UNL     1       1.539   5.606  17.837  0.00  0.00    +0.000 C 
BRANCH  30  31
ATOM     31  C   UNL     1       1.160   4.531  18.873  0.00  0.00    +0.000 C 
BRANCH  31  32
ATOM     32  C   UNL     1       2.214   3.457  18.988  0.00  0.00    +0.000 A 
ATOM     33  C   UNL     1       2.541   2.663  17.881  0.00  0.00    +0.000 A 
ATOM     34  C   UNL     1       3.519   1.673  17.982  0.00  0.00    +0.000 A 
ATOM     35  C   UNL     1       4.177   1.464  19.194  0.00  0.00    +0.000 A 
ATOM     36  C   UNL     1       3.857   2.244  20.303  0.00  0.00    +0.000 A 
ATOM     37  C   UNL     1       2.878   3.235  20.203  0.00  0.00    +0.000 A 
ENDBRANCH  31  32
ENDBRANCH  30  31
ENDBRANCH   4  30
TORSDOF 9
ENDMDL
MODEL 8
REMARK VINA RESULT:      -8.4      1.700      3.510
REMARK  Name = 
REMARK  13 active torsions:
REMARK  status: ('A' for Active; 'I' for Inactive)
REMARK    1  A    between atoms: C_1  and  C_2
REMARK    2  A    between atoms: C_4  and  S_5
REMARK    3  A    between atoms: S_5  and  C_6
REMARK    4  A    between atoms: C_7  and  O_8
REMARK    5  A    between atoms: C_10  and  C_11
REMARK    6  A    between atoms: C_10  and  C_19
REMARK    7  A    between atoms: C_11  and  C_12
REMARK    8  A    between atoms: C_12  and  C_13
REMARK    9  A    between atoms: C_28  and  C_29
REMARK   10  A    between atoms: C_29  and  C_30
REMARK   11  A    between atoms: C_29  and  C_31
REMARK   12  A    between atoms: C_29  and  C_32
REMARK   13  A    between atoms: C_34  and  O_35
REMARK                            x       y       z     vdW  Elec       q    Type
REMARK                         _______ _______ _______ _____ _____    ______ ____
ROOT
ATOM      1  C   UNL     1       1.730   8.957  19.687  0.00  0.00    +0.000 C 
ATOM      2  C   UNL     1       1.926   7.795  20.319  0.00  0.00    +0.000 C 
ATOM      3  O   UNL     1       2.432   6.676  19.748  0.00  0.00    +0.000 OA
ATOM      4  C   UNL     1       2.649   6.544  18.340  0.00  0.00    +0.000 C 
ATOM      5  C   UNL     1       2.603   7.861  17.538  0.00  0.00    +0.000 C 
ATOM      6  C   UNL     1       2.036   9.060  18.246  0.00  0.00    +0.000 C 
ATOM      7  O   UNL     1       1.867  10.108  17.620  0.00  0.00    +0.000 OA
ENDROOT
BRANCH   4   8
ATOM      8  C   UNL     1       4.048   5.913  18.167  0.00  0.00    +0.000 A 
ATOM      9  C   UNL     1       4.908   5.738  19.268  0.00  0.00    +0.000 A 
ATOM     10  C   UNL     1       6.191   5.217  19.111  0.00  0.00    +0.000 A 
ATOM     11  C   UNL     1       6.646   4.862  17.846  0.00  0.00    +0.000 A 
ATOM     12  C   UNL     1       5.812   5.016  16.742  0.00  0.00    +0.000 A 
ATOM     13  C   UNL     1       4.522   5.530  16.898  0.00  0.00    +0.000 A 
ENDBRANCH   4   8
BRANCH   2  14
ATOM     14  O   UNL     1       1.648   7.665  21.669  0.00  0.00    +0.000 OA
ATOM     15  H   UNL     1       1.823   6.737  21.915  0.00  0.00    +0.000 HD
ENDBRANCH   2  14
BRANCH   1  16
ATOM     16  S   UNL     1       1.065  10.313  20.528  0.00  0.00    +0.000 S 
BRANCH  16  20
ATOM     17  C   UNL     1      -3.134   9.274  17.512  0.00  0.00    +0.000 C 
ATOM     18  C   UNL     1      -2.141  10.294  17.989  0.00  0.00    +0.000 A 
ATOM     19  C   UNL     1      -1.181   9.975  18.957  0.00  0.00    +0.000 A 
ATOM     20  C   UNL     1      -0.227  10.915  19.433  0.00  0.00    +0.000 A 
ATOM     21  C   UNL     1      -0.231  12.239  18.913  0.00  0.00    +0.000 A 
ATOM     22  C   UNL     1      -1.193  12.515  17.901  0.00  0.00    +0.000 A 
ATOM     23  C   UNL     1      -2.128  11.574  17.465  0.00  0.00    +0.000 A 
BRANCH  21  24
ATOM     24  C   UNL     1       0.773  13.379  19.278  0.00  0.00    +0.000 C 
ATOM     25  C   UNL     1       2.082  13.127  18.500  0.00  0.00    +0.000 C 
ATOM     26  C   UNL     1       0.219  14.775  18.871  0.00  0.00    +0.000 C 
ATOM     27  C   UNL     1       1.130  13.560  20.775  0.00  0.00    +0.000 C 
ENDBRANCH  21  24
BRANCH  23  28
ATOM     28  O   UNL     1      -3.036  11.898  16.497  0.00  0.00    +0.000 OA
ATOM     29  H   UNL     1      -3.666  12.543  16.857  0.00  0.00    +0.000 HD
ENDBRANCH  23  28
ENDBRANCH  16  20
ENDBRANCH   1  16
BRANCH   4  30
ATOM     30  C   UNL     1       1.533   5.575  17.848  0.00  0.00    +0.000 C 
BRANCH  30  31
ATOM     31  C   UNL     1       1.157   4.491  18.876  0.00  0.00    +0.000 C 
BRANCH  31  32
ATOM     32  C   UNL     1       2.218   3.423  18.988  0.00  0.00    +0.000 A 
ATOM     33  C   UNL     1       2.871   3.199  20.207  0.00  0.00    +0.000 A 
ATOM     34  C   UNL     1       3.849   2.209  20.316  0.00  0.00    +0.000 A 
ATOM     35  C   UNL     1       4.186   1.436  19.205  0.00  0.00    +0.000 A 
ATOM     36  C   UNL     1       3.545   1.653  17.987  0.00  0.00    +0.000 A 
ATOM     37  C   UNL     1       2.567   2.644  17.876  0.00  0.00    +0.000 A 
ENDBRANCH  31  32
ENDBRANCH  30  31
ENDBRANCH   4  30
TORSDOF 9
ENDMDL
MODEL 9
REMARK VINA RESULT:      -8.4      1.686      3.559
REMARK  Name = 
REMARK  13 active torsions:
REMARK  status: ('A' for Active; 'I' for Inactive)
REMARK    1  A    between atoms: C_1  and  C_2
REMARK    2  A    between atoms: C_4  and  S_5
REMARK    3  A    between atoms: S_5  and  C_6
REMARK    4  A    between atoms: C_7  and  O_8
REMARK    5  A    between atoms: C_10  and  C_11
REMARK    6  A    between atoms: C_10  and  C_19
REMARK    7  A    between atoms: C_11  and  C_12
REMARK    8  A    between atoms: C_12  and  C_13
REMARK    9  A    between atoms: C_28  and  C_29
REMARK   10  A    between atoms: C_29  and  C_30
REMARK   11  A    between atoms: C_29  and  C_31
REMARK   12  A    between atoms: C_29  and  C_32
REMARK   13  A    between atoms: C_34  and  O_35
REMARK                            x       y       z     vdW  Elec       q    Type
REMARK                         _______ _______ _______ _____ _____    ______ ____
ROOT
ATOM      1  C   UNL     1       1.718   8.953  19.712  0.00  0.00    +0.000 C 
ATOM      2  C   UNL     1       1.912   7.782  20.327  0.00  0.00    +0.000 C 
ATOM      3  O   UNL     1       2.423   6.672  19.742  0.00  0.00    +0.000 OA
ATOM      4  C   UNL     1       2.651   6.563  18.334  0.00  0.00    +0.000 C 
ATOM      5  C   UNL     1       2.609   7.894  17.553  0.00  0.00    +0.000 C 
ATOM      6  C   UNL     1       2.035   9.080  18.276  0.00  0.00    +0.000 C 
ATOM      7  O   UNL     1       1.869  10.138  17.666  0.00  0.00    +0.000 OA
ENDROOT
BRANCH   4   8
ATOM      8  C   UNL     1       4.051   5.937  18.160  0.00  0.00    +0.000 A 
ATOM      9  C   UNL     1       4.897   5.731  19.266  0.00  0.00    +0.000 A 
ATOM     10  C   UNL     1       6.182   5.214  19.111  0.00  0.00    +0.000 A 
ATOM     11  C   UNL     1       6.653   4.894  17.842  0.00  0.00    +0.000 A 
ATOM     12  C   UNL     1       5.833   5.079  16.733  0.00  0.00    +0.000 A 
ATOM     13  C   UNL     1       4.540   5.589  16.887  0.00  0.00    +0.000 A 
ENDBRANCH   4   8
BRANCH   2  14
ATOM     14  O   UNL     1       1.624   7.629  21.673  0.00  0.00    +0.000 OA
ATOM     15  H   UNL     1       2.473   7.521  22.142  0.00  0.00    +0.000 HD
ENDBRANCH   2  14
BRANCH   1  16
ATOM     16  S   UNL     1       1.046  10.294  20.571  0.00  0.00    +0.000 S 
BRANCH  16  20
ATOM     17  C   UNL     1      -3.146   9.285  17.535  0.00  0.00    +0.000 C 
ATOM     18  C   UNL     1      -2.155  10.301  18.026  0.00  0.00    +0.000 A 
ATOM     19  C   UNL     1      -1.196   9.971  18.992  0.00  0.00    +0.000 A 
ATOM     20  C   UNL     1      -0.245  10.908  19.480  0.00  0.00    +0.000 A 
ATOM     21  C   UNL     1      -0.249  12.237  18.976  0.00  0.00    +0.000 A 
ATOM     22  C   UNL     1      -1.210  12.524  17.965  0.00  0.00    +0.000 A 
ATOM     23  C   UNL     1      -2.142  11.587  17.517  0.00  0.00    +0.000 A 
BRANCH  21  24
ATOM     24  C   UNL     1       0.752  13.374  19.356  0.00  0.00    +0.000 C 
ATOM     25  C   UNL     1       0.225  14.694  18.753  0.00  0.00    +0.000 C 
ATOM     26  C   UNL     1       0.857  13.546  20.899  0.00  0.00    +0.000 C 
ATOM     27  C   UNL     1       2.227  13.200  18.915  0.00  0.00    +0.000 C 
ENDBRANCH  21  24
BRANCH  23  28
ATOM     28  O   UNL     1      -3.049  11.921  16.551  0.00  0.00    +0.000 OA
ATOM     29  H   UNL     1      -2.806  12.780  16.170  0.00  0.00    +0.000 HD
ENDBRANCH  23  28
ENDBRANCH  16  20
ENDBRANCH   1  16
BRANCH   4  30
ATOM     30  C   UNL     1       1.540   5.602  17.817  0.00  0.00    +0.000 C 
BRANCH  30  31
ATOM     31  C   UNL     1       1.146   4.509  18.830  0.00  0.00    +0.000 C 
BRANCH  31  32
ATOM     32  C   UNL     1       2.202   3.436  18.944  0.00  0.00    +0.000 A 
ATOM     33  C   UNL     1       2.561   2.672  17.825  0.00  0.00    +0.000 A 
ATOM     34  C   UNL     1       3.539   1.683  17.926  0.00  0.00    +0.000 A 
ATOM     35  C   UNL     1       4.167   1.444  19.149  0.00  0.00    +0.000 A 
ATOM     36  C   UNL     1       3.815   2.195  20.269  0.00  0.00    +0.000 A 
ATOM     37  C   UNL     1       2.835   3.185  20.170  0.00  0.00    +0.000 A 
ENDBRANCH  31  32
ENDBRANCH  30  31
ENDBRANCH   4  30
TORSDOF 9
ENDMDL
