MODEL 1
REMARK VINA RESULT:      -7.1      0.000      0.000
REMARK  Name = 
REMARK  7 active torsions:
REMARK  status: ('A' for Active; 'I' for Inactive)
REMARK    1  A    between atoms: C_1  and  C_2
REMARK    2  A    between atoms: C_2  and  C_3
REMARK    3  A    between atoms: C_3  and  S_4
REMARK    4  A    between atoms: S_4  and  C_5
REMARK    5  A    between atoms: C_15  and  C_16
REMARK    6  A    between atoms: C_19  and  C_20
REMARK    7  A    between atoms: C_19  and  C_21
REMARK                            x       y       z     vdW  Elec       q    Type
REMARK                         _______ _______ _______ _____ _____    ______ ____
ROOT
ATOM      1  C   UNL     1       2.724   7.680  18.591  0.00  0.00    +0.000 A 
ATOM      2  N   UNL     1       3.599   7.091  17.725  0.00  0.00    +0.000 NA
ATOM      3  C   UNL     1       3.940   5.793  17.898  0.00  0.00    +0.000 A 
ATOM      4  N   UNL     1       4.882   5.205  17.068  0.00  0.00    +0.000 N 
ATOM      5  C   UNL     1       5.932   6.011  16.459  0.00  0.00    +0.000 C 
ATOM      6  C   UNL     1       5.967   5.560  15.004  0.00  0.00    +0.000 C 
ATOM      7  C   UNL     1       5.510   4.116  15.060  0.00  0.00    +0.000 C 
ATOM      8  C   UNL     1       4.488   4.101  16.191  0.00  0.00    +0.000 C 
ATOM      9  C   UNL     1       3.403   5.050  18.958  0.00  0.00    +0.000 A 
ATOM     10  C   UNL     1       2.483   5.652  19.845  0.00  0.00    +0.000 A 
ATOM     11  C   UNL     1       2.157   7.008  19.676  0.00  0.00    +0.000 A 
ATOM     12  C   UNL     1       1.956   4.828  21.001  0.00  0.00    +0.000 C 
ATOM     13  C   UNL     1       2.065   3.314  20.738  0.00  0.00    +0.000 C 
ATOM     14  C   UNL     1       1.826   2.525  22.027  0.00  0.00    +0.000 C 
ATOM     15  C   UNL     1       1.060   2.833  19.674  0.00  0.00    +0.000 C 
ATOM     16  O   UNL     1       3.419   3.025  20.380  0.00  0.00    +0.000 OA
ATOM     17  C   UNL     1       3.820   3.614  19.150  0.00  0.00    +0.000 C 
ENDROOT
BRANCH  11  18
ATOM     18  C   UNL     1       1.274   7.669  20.604  0.00  0.00    +0.000 C 
ATOM     19  N   UNL     1       0.601   8.192  21.389  0.00  0.00    +0.000 NA
ENDBRANCH  11  18
BRANCH   1  20
ATOM     20  S   UNL     1       2.385   9.425  18.307  0.00  0.00    +0.000 S 
BRANCH  20  21
ATOM     21  C   UNL     1       0.687   9.346  17.650  0.00  0.00    +0.000 C 
BRANCH  21  23
ATOM     22  C   UNL     1      -1.638  10.293  17.905  0.00  0.00    +0.000 C 
ATOM     23  C   UNL     1      -0.214  10.290  18.447  0.00  0.00    +0.000 C 
ENDBRANCH  21  23
ENDBRANCH  20  21
ENDBRANCH   1  20
TORSDOF 4
ENDMDL
MODEL 2
REMARK VINA RESULT:      -6.7      2.450      5.844
REMARK  Name = 
REMARK  7 active torsions:
REMARK  status: ('A' for Active; 'I' for Inactive)
REMARK    1  A    between atoms: C_1  and  C_2
REMARK    2  A    between atoms: C_2  and  C_3
REMARK    3  A    between atoms: C_3  and  S_4
REMARK    4  A    between atoms: S_4  and  C_5
REMARK    5  A    between atoms: C_15  and  C_16
REMARK    6  A    between atoms: C_19  and  C_20
REMARK    7  A    between atoms: C_19  and  C_21
REMARK                            x       y       z     vdW  Elec       q    Type
REMARK                         _______ _______ _______ _____ _____    ______ ____
ROOT
ATOM      1  C   UNL     1       2.892   4.605  20.326  0.00  0.00    +0.000 A 
ATOM      2  N   UNL     1       2.384   5.846  20.068  0.00  0.00    +0.000 NA
ATOM      3  C   UNL     1       2.942   6.610  19.101  0.00  0.00    +0.000 A 
ATOM      4  N   UNL     1       2.481   7.899  18.880  0.00  0.00    +0.000 N 
ATOM      5  C   UNL     1       1.895   8.667  19.970  0.00  0.00    +0.000 C 
ATOM      6  C   UNL     1       0.636   9.283  19.372  0.00  0.00    +0.000 C 
ATOM      7  C   UNL     1       0.971   9.439  17.901  0.00  0.00    +0.000 C 
ATOM      8  C   UNL     1       1.856   8.236  17.600  0.00  0.00    +0.000 C 
ATOM      9  C   UNL     1       4.036   6.139  18.364  0.00  0.00    +0.000 A 
ATOM     10  C   UNL     1       4.553   4.848  18.615  0.00  0.00    +0.000 A 
ATOM     11  C   UNL     1       3.986   4.073  19.640  0.00  0.00    +0.000 A 
ATOM     12  C   UNL     1       5.761   4.391  17.824  0.00  0.00    +0.000 C 
ATOM     13  C   UNL     1       5.917   5.159  16.498  0.00  0.00    +0.000 C 
ATOM     14  C   UNL     1       7.295   4.902  15.887  0.00  0.00    +0.000 C 
ATOM     15  C   UNL     1       4.842   4.767  15.467  0.00  0.00    +0.000 C 
ATOM     16  O   UNL     1       5.904   6.558  16.795  0.00  0.00    +0.000 OA
ATOM     17  C   UNL     1       4.662   7.019  17.311  0.00  0.00    +0.000 C 
ENDROOT
BRANCH  11  18
ATOM     18  C   UNL     1       4.533   2.779  19.967  0.00  0.00    +0.000 C 
ATOM     19  N   UNL     1       5.022   1.763  20.230  0.00  0.00    +0.000 NA
ENDBRANCH  11  18
BRANCH   1  20
ATOM     20  S   UNL     1       2.115   3.697  21.672  0.00  0.00    +0.000 S 
BRANCH  20  21
ATOM     21  C   UNL     1       1.246   2.386  20.750  0.00  0.00    +0.000 C 
BRANCH  21  23
ATOM     22  C   UNL     1       1.230   2.297  18.229  0.00  0.00    +0.000 C 
ATOM     23  C   UNL     1       0.653   2.970  19.467  0.00  0.00    +0.000 C 
ENDBRANCH  21  23
ENDBRANCH  20  21
ENDBRANCH   1  20
TORSDOF 4
ENDMDL
MODEL 3
REMARK VINA RESULT:      -6.6      2.456      6.112
REMARK  Name = 
REMARK  7 active torsions:
REMARK  status: ('A' for Active; 'I' for Inactive)
REMARK    1  A    between atoms: C_1  and  C_2
REMARK    2  A    between atoms: C_2  and  C_3
REMARK    3  A    between atoms: C_3  and  S_4
REMARK    4  A    between atoms: S_4  and  C_5
REMARK    5  A    between atoms: C_15  and  C_16
REMARK    6  A    between atoms: C_19  and  C_20
REMARK    7  A    between atoms: C_19  and  C_21
REMARK                            x       y       z     vdW  Elec       q    Type
REMARK                         _______ _______ _______ _____ _____    ______ ____
ROOT
ATOM      1  C   UNL     1       2.084   4.134  18.729  0.00  0.00    +0.000 A 
ATOM      2  N   UNL     1       1.844   5.465  18.912  0.00  0.00    +0.000 NA
ATOM      3  C   UNL     1       2.747   6.375  18.479  0.00  0.00    +0.000 A 
ATOM      4  N   UNL     1       2.547   7.725  18.723  0.00  0.00    +0.000 N 
ATOM      5  C   UNL     1       1.794   8.157  19.893  0.00  0.00    +0.000 C 
ATOM      6  C   UNL     1       0.846   9.227  19.365  0.00  0.00    +0.000 C 
ATOM      7  C   UNL     1       1.593   9.827  18.189  0.00  0.00    +0.000 C 
ATOM      8  C   UNL     1       2.353   8.644  17.600  0.00  0.00    +0.000 C 
ATOM      9  C   UNL     1       3.927   5.962  17.846  0.00  0.00    +0.000 A 
ATOM     10  C   UNL     1       4.170   4.585  17.639  0.00  0.00    +0.000 A 
ATOM     11  C   UNL     1       3.241   3.647  18.117  0.00  0.00    +0.000 A 
ATOM     12  C   UNL     1       5.475   4.177  16.987  0.00  0.00    +0.000 C 
ATOM     13  C   UNL     1       6.096   5.316  16.157  0.00  0.00    +0.000 C 
ATOM     14  C   UNL     1       7.541   4.982  15.781  0.00  0.00    +0.000 C 
ATOM     15  C   UNL     1       5.304   5.595  14.864  0.00  0.00    +0.000 C 
ATOM     16  O   UNL     1       6.194   6.470  16.996  0.00  0.00    +0.000 OA
ATOM     17  C   UNL     1       4.934   6.990  17.397  0.00  0.00    +0.000 C 
ENDROOT
BRANCH  11  18
ATOM     18  C   UNL     1       3.493   2.234  17.982  0.00  0.00    +0.000 C 
ATOM     19  N   UNL     1       3.719   1.099  17.922  0.00  0.00    +0.000 NA
ENDBRANCH  11  18
BRANCH   1  20
ATOM     20  S   UNL     1       0.848   3.009  19.396  0.00  0.00    +0.000 S 
BRANCH  20  21
ATOM     21  C   UNL     1       1.030   3.313  21.184  0.00  0.00    +0.000 C 
BRANCH  21  23
ATOM     22  C   UNL     1       3.187   2.056  21.543  0.00  0.00    +0.000 C 
ATOM     23  C   UNL     1       2.514   3.421  21.536  0.00  0.00    +0.000 C 
ENDBRANCH  21  23
ENDBRANCH  20  21
ENDBRANCH   1  20
TORSDOF 4
ENDMDL
MODEL 4
REMARK VINA RESULT:      -6.3      2.192      4.914
REMARK  Name = 
REMARK  7 active torsions:
REMARK  status: ('A' for Active; 'I' for Inactive)
REMARK    1  A    between atoms: C_1  and  C_2
REMARK    2  A    between atoms: C_2  and  C_3
REMARK    3  A    between atoms: C_3  and  S_4
REMARK    4  A    between atoms: S_4  and  C_5
REMARK    5  A    between atoms: C_15  and  C_16
REMARK    6  A    between atoms: C_19  and  C_20
REMARK    7  A    between atoms: C_19  and  C_21
REMARK                            x       y       z     vdW  Elec       q    Type
REMARK                         _______ _______ _______ _____ _____    ______ ____
ROOT
ATOM      1  C   UNL     1       1.635   7.648  19.673  0.00  0.00    +0.000 A 
ATOM      2  N   UNL     1       1.577   6.378  20.169  0.00  0.00    +0.000 NA
ATOM      3  C   UNL     1       2.298   5.395  19.581  0.00  0.00    +0.000 A 
ATOM      4  N   UNL     1       2.190   4.088  20.031  0.00  0.00    +0.000 N 
ATOM      5  C   UNL     1       0.954   3.621  20.645  0.00  0.00    +0.000 C 
ATOM      6  C   UNL     1       1.406   2.859  21.885  0.00  0.00    +0.000 C 
ATOM      7  C   UNL     1       2.777   2.331  21.508  0.00  0.00    +0.000 C 
ATOM      8  C   UNL     1       3.356   3.425  20.618  0.00  0.00    +0.000 C 
ATOM      9  C   UNL     1       3.103   5.671  18.468  0.00  0.00    +0.000 A 
ATOM     10  C   UNL     1       3.180   6.989  17.964  0.00  0.00    +0.000 A 
ATOM     11  C   UNL     1       2.406   7.997  18.562  0.00  0.00    +0.000 A 
ATOM     12  C   UNL     1       4.030   7.239  16.735  0.00  0.00    +0.000 C 
ATOM     13  C   UNL     1       5.107   6.156  16.539  0.00  0.00    +0.000 C 
ATOM     14  C   UNL     1       5.728   6.261  15.144  0.00  0.00    +0.000 C 
ATOM     15  C   UNL     1       6.234   6.257  17.586  0.00  0.00    +0.000 C 
ATOM     16  O   UNL     1       4.459   4.881  16.555  0.00  0.00    +0.000 OA
ATOM     17  C   UNL     1       3.875   4.556  17.810  0.00  0.00    +0.000 C 
ENDROOT
BRANCH  11  18
ATOM     18  C   UNL     1       2.411   9.336  18.029  0.00  0.00    +0.000 C 
ATOM     19  N   UNL     1       2.362  10.415  17.609  0.00  0.00    +0.000 NA
ENDBRANCH  11  18
BRANCH   1  20
ATOM     20  S   UNL     1       0.591   8.865  20.492  0.00  0.00    +0.000 S 
BRANCH  20  21
ATOM     21  C   UNL     1       1.337   8.900  22.155  0.00  0.00    +0.000 C 
BRANCH  21  23
ATOM     22  C   UNL     1      -0.517  10.548  22.613  0.00  0.00    +0.000 C 
ATOM     23  C   UNL     1       0.303   9.391  23.168  0.00  0.00    +0.000 C 
ENDBRANCH  21  23
ENDBRANCH  20  21
ENDBRANCH   1  20
TORSDOF 4
ENDMDL
MODEL 5
REMARK VINA RESULT:      -6.1      5.220      8.740
REMARK  Name = 
REMARK  7 active torsions:
REMARK  status: ('A' for Active; 'I' for Inactive)
REMARK    1  A    between atoms: C_1  and  C_2
REMARK    2  A    between atoms: C_2  and  C_3
REMARK    3  A    between atoms: C_3  and  S_4
REMARK    4  A    between atoms: S_4  and  C_5
REMARK    5  A    between atoms: C_15  and  C_16
REMARK    6  A    between atoms: C_19  and  C_20
REMARK    7  A    between atoms: C_19  and  C_21
REMARK                            x       y       z     vdW  Elec       q    Type
REMARK                         _______ _______ _______ _____ _____    ______ ____
ROOT
ATOM      1  C   UNL     1      -3.261  11.570  18.398  0.00  0.00    +0.000 A 
ATOM      2  N   UNL     1      -3.054  12.068  19.652  0.00  0.00    +0.000 NA
ATOM      3  C   UNL     1      -1.905  11.779  20.307  0.00  0.00    +0.000 A 
ATOM      4  N   UNL     1      -1.716  12.220  21.607  0.00  0.00    +0.000 N 
ATOM      5  C   UNL     1      -2.858  12.423  22.489  0.00  0.00    +0.000 C 
ATOM      6  C   UNL     1      -2.597  13.770  23.152  0.00  0.00    +0.000 C 
ATOM      7  C   UNL     1      -1.084  13.872  23.184  0.00  0.00    +0.000 C 
ATOM      8  C   UNL     1      -0.646  13.175  21.902  0.00  0.00    +0.000 C 
ATOM      9  C   UNL     1      -0.928  10.974  19.708  0.00  0.00    +0.000 A 
ATOM     10  C   UNL     1      -1.130  10.472  18.403  0.00  0.00    +0.000 A 
ATOM     11  C   UNL     1      -2.338  10.752  17.742  0.00  0.00    +0.000 A 
ATOM     12  C   UNL     1      -0.068   9.572  17.807  0.00  0.00    +0.000 C 
ATOM     13  C   UNL     1       1.308   9.772  18.470  0.00  0.00    +0.000 C 
ATOM     14  C   UNL     1       2.266   8.648  18.072  0.00  0.00    +0.000 C 
ATOM     15  C   UNL     1       1.949  11.121  18.088  0.00  0.00    +0.000 C 
ATOM     16  O   UNL     1       1.142   9.628  19.883  0.00  0.00    +0.000 OA
ATOM     17  C   UNL     1       0.332  10.641  20.466  0.00  0.00    +0.000 C 
ENDROOT
BRANCH  11  18
ATOM     18  C   UNL     1      -2.603  10.199  16.437  0.00  0.00    +0.000 C 
ATOM     19  N   UNL     1      -2.868   9.749  15.403  0.00  0.00    +0.000 NA
ENDBRANCH  11  18
BRANCH   1  20
ATOM     20  S   UNL     1      -4.846  11.964  17.642  0.00  0.00    +0.000 S 
BRANCH  20  21
ATOM     21  C   UNL     1      -5.930  10.743  18.452  0.00  0.00    +0.000 C 
BRANCH  21  23
ATOM     22  C   UNL     1      -7.464  10.674  20.454  0.00  0.00    +0.000 C 
ATOM     23  C   UNL     1      -7.026  11.471  19.232  0.00  0.00    +0.000 C 
ENDBRANCH  21  23
ENDBRANCH  20  21
ENDBRANCH   1  20
TORSDOF 4
ENDMDL
MODEL 6
REMARK VINA RESULT:      -5.8      4.586      7.552
REMARK  Name = 
REMARK  7 active torsions:
REMARK  status: ('A' for Active; 'I' for Inactive)
REMARK    1  A    between atoms: C_1  and  C_2
REMARK    2  A    between atoms: C_2  and  C_3
REMARK    3  A    between atoms: C_3  and  S_4
REMARK    4  A    between atoms: S_4  and  C_5
REMARK    5  A    between atoms: C_15  and  C_16
REMARK    6  A    between atoms: C_19  and  C_20
REMARK    7  A    between atoms: C_19  and  C_21
REMARK                            x       y       z     vdW  Elec       q    Type
REMARK                         _______ _______ _______ _____ _____    ______ ____
ROOT
ATOM      1  C   UNL     1      -2.628  10.772  18.250  0.00  0.00    +0.000 A 
ATOM      2  N   UNL     1      -1.426  10.129  18.181  0.00  0.00    +0.000 NA
ATOM      3  C   UNL     1      -0.478  10.376  19.114  0.00  0.00    +0.000 A 
ATOM      4  N   UNL     1       0.771   9.783  19.012  0.00  0.00    +0.000 N 
ATOM      5  C   UNL     1       1.312   9.428  17.706  0.00  0.00    +0.000 C 
ATOM      6  C   UNL     1       1.863   8.020  17.890  0.00  0.00    +0.000 C 
ATOM      7  C   UNL     1       2.259   7.971  19.353  0.00  0.00    +0.000 C 
ATOM      8  C   UNL     1       1.213   8.841  20.041  0.00  0.00    +0.000 C 
ATOM      9  C   UNL     1      -0.720  11.287  20.151  0.00  0.00    +0.000 A 
ATOM     10  C   UNL     1      -1.970  11.941  20.237  0.00  0.00    +0.000 A 
ATOM     11  C   UNL     1      -2.937  11.700  19.247  0.00  0.00    +0.000 A 
ATOM     12  C   UNL     1      -2.178  12.948  21.349  0.00  0.00    +0.000 C 
ATOM     13  C   UNL     1      -1.221  12.719  22.533  0.00  0.00    +0.000 C 
ATOM     14  C   UNL     1      -1.238  13.920  23.480  0.00  0.00    +0.000 C 
ATOM     15  C   UNL     1      -1.580  11.454  23.337  0.00  0.00    +0.000 C 
ATOM     16  O   UNL     1       0.114  12.678  22.020  0.00  0.00    +0.000 OA
ATOM     17  C   UNL     1       0.360  11.570  21.164  0.00  0.00    +0.000 C 
ENDROOT
BRANCH  11  18
ATOM     18  C   UNL     1      -4.196  12.403  19.269  0.00  0.00    +0.000 C 
ATOM     19  N   UNL     1      -5.233  12.919  19.287  0.00  0.00    +0.000 NA
ENDBRANCH  11  18
BRANCH   1  20
ATOM     20  S   UNL     1      -3.794  10.416  16.926  0.00  0.00    +0.000 S 
BRANCH  20  21
ATOM     21  C   UNL     1      -2.855  10.990  15.473  0.00  0.00    +0.000 C 
BRANCH  21  23
ATOM     22  C   UNL     1      -4.060   9.986  13.497  0.00  0.00    +0.000 C 
ATOM     23  C   UNL     1      -2.842   9.894  14.407  0.00  0.00    +0.000 C 
ENDBRANCH  21  23
ENDBRANCH  20  21
ENDBRANCH   1  20
TORSDOF 4
ENDMDL
MODEL 7
REMARK VINA RESULT:      -5.8      2.559      5.596
REMARK  Name = 
REMARK  7 active torsions:
REMARK  status: ('A' for Active; 'I' for Inactive)
REMARK    1  A    between atoms: C_1  and  C_2
REMARK    2  A    between atoms: C_2  and  C_3
REMARK    3  A    between atoms: C_3  and  S_4
REMARK    4  A    between atoms: S_4  and  C_5
REMARK    5  A    between atoms: C_15  and  C_16
REMARK    6  A    between atoms: C_19  and  C_20
REMARK    7  A    between atoms: C_19  and  C_21
REMARK                            x       y       z     vdW  Elec       q    Type
REMARK                         _______ _______ _______ _____ _____    ______ ____
ROOT
ATOM      1  C   UNL     1       5.765   6.883  17.313  0.00  0.00    +0.000 A 
ATOM      2  N   UNL     1       4.672   7.627  17.653  0.00  0.00    +0.000 NA
ATOM      3  C   UNL     1       3.537   7.007  18.052  0.00  0.00    +0.000 A 
ATOM      4  N   UNL     1       2.400   7.749  18.331  0.00  0.00    +0.000 N 
ATOM      5  C   UNL     1       2.168   9.020  17.657  0.00  0.00    +0.000 C 
ATOM      6  C   UNL     1       1.736   9.970  18.767  0.00  0.00    +0.000 C 
ATOM      7  C   UNL     1       1.064   9.064  19.780  0.00  0.00    +0.000 C 
ATOM      8  C   UNL     1       1.859   7.766  19.691  0.00  0.00    +0.000 C 
ATOM      9  C   UNL     1       3.475   5.609  18.120  0.00  0.00    +0.000 A 
ATOM     10  C   UNL     1       4.611   4.836  17.787  0.00  0.00    +0.000 A 
ATOM     11  C   UNL     1       5.775   5.487  17.345  0.00  0.00    +0.000 A 
ATOM     12  C   UNL     1       4.491   3.327  17.834  0.00  0.00    +0.000 C 
ATOM     13  C   UNL     1       3.345   2.859  18.750  0.00  0.00    +0.000 C 
ATOM     14  C   UNL     1       3.053   1.374  18.531  0.00  0.00    +0.000 C 
ATOM     15  C   UNL     1       3.662   3.082  20.242  0.00  0.00    +0.000 C 
ATOM     16  O   UNL     1       2.150   3.531  18.341  0.00  0.00    +0.000 OA
ATOM     17  C   UNL     1       2.192   4.938  18.540  0.00  0.00    +0.000 C 
ENDROOT
BRANCH  11  18
ATOM     18  C   UNL     1       6.927   4.724  16.933  0.00  0.00    +0.000 C 
ATOM     19  N   UNL     1       7.838   4.073  16.638  0.00  0.00    +0.000 NA
ENDBRANCH  11  18
BRANCH   1  20
ATOM     20  S   UNL     1       7.200   7.803  16.738  0.00  0.00    +0.000 S 
BRANCH  20  21
ATOM     21  C   UNL     1       7.970   8.272  18.322  0.00  0.00    +0.000 C 
BRANCH  21  23
ATOM     22  C   UNL     1       9.266  10.095  19.490  0.00  0.00    +0.000 C 
ATOM     23  C   UNL     1       8.539   9.687  18.215  0.00  0.00    +0.000 C 
ENDBRANCH  21  23
ENDBRANCH  20  21
ENDBRANCH   1  20
TORSDOF 4
ENDMDL
MODEL 8
REMARK VINA RESULT:      -5.8      2.572      6.187
REMARK  Name = 
REMARK  7 active torsions:
REMARK  status: ('A' for Active; 'I' for Inactive)
REMARK    1  A    between atoms: C_1  and  C_2
REMARK    2  A    between atoms: C_2  and  C_3
REMARK    3  A    between atoms: C_3  and  S_4
REMARK    4  A    between atoms: S_4  and  C_5
REMARK    5  A    between atoms: C_15  and  C_16
REMARK    6  A    between atoms: C_19  and  C_20
REMARK    7  A    between atoms: C_19  and  C_21
REMARK                            x       y       z     vdW  Elec       q    Type
REMARK                         _______ _______ _______ _____ _____    ______ ____
ROOT
ATOM      1  C   UNL     1       4.503   4.737  17.302  0.00  0.00    +0.000 A 
ATOM      2  N   UNL     1       3.956   4.131  18.396  0.00  0.00    +0.000 NA
ATOM      3  C   UNL     1       3.159   4.842  19.228  0.00  0.00    +0.000 A 
ATOM      4  N   UNL     1       2.658   4.257  20.380  0.00  0.00    +0.000 N 
ATOM      5  C   UNL     1       3.396   3.191  21.045  0.00  0.00    +0.000 C 
ATOM      6  C   UNL     1       2.344   2.133  21.357  0.00  0.00    +0.000 C 
ATOM      7  C   UNL     1       1.066   2.930  21.529  0.00  0.00    +0.000 C 
ATOM      8  C   UNL     1       1.214   4.073  20.532  0.00  0.00    +0.000 C 
ATOM      9  C   UNL     1       2.891   6.193  18.974  0.00  0.00    +0.000 A 
ATOM     10  C   UNL     1       3.440   6.819  17.831  0.00  0.00    +0.000 A 
ATOM     11  C   UNL     1       4.289   6.081  16.990  0.00  0.00    +0.000 A 
ATOM     12  C   UNL     1       3.158   8.291  17.614  0.00  0.00    +0.000 C 
ATOM     13  C   UNL     1       1.889   8.759  18.351  0.00  0.00    +0.000 C 
ATOM     14  C   UNL     1       1.812  10.287  18.371  0.00  0.00    +0.000 C 
ATOM     15  C   UNL     1       0.603   8.212  17.703  0.00  0.00    +0.000 C 
ATOM     16  O   UNL     1       2.012   8.382  19.725  0.00  0.00    +0.000 OA
ATOM     17  C   UNL     1       2.024   6.975  19.929  0.00  0.00    +0.000 C 
ENDROOT
BRANCH  11  18
ATOM     18  C   UNL     1       4.919   6.709  15.855  0.00  0.00    +0.000 C 
ATOM     19  N   UNL     1       5.422   7.166  14.918  0.00  0.00    +0.000 NA
ENDBRANCH  11  18
BRANCH   1  20
ATOM     20  S   UNL     1       5.595   3.718  16.297  0.00  0.00    +0.000 S 
BRANCH  20  21
ATOM     21  C   UNL     1       7.205   4.509  16.624  0.00  0.00    +0.000 C 
BRANCH  21  23
ATOM     22  C   UNL     1       7.679   6.136  18.493  0.00  0.00    +0.000 C 
ATOM     23  C   UNL     1       7.392   4.684  18.131  0.00  0.00    +0.000 C 
ENDBRANCH  21  23
ENDBRANCH  20  21
ENDBRANCH   1  20
TORSDOF 4
ENDMDL
MODEL 9
REMARK VINA RESULT:      -5.7      6.310      9.730
REMARK  Name = 
REMARK  7 active torsions:
REMARK  status: ('A' for Active; 'I' for Inactive)
REMARK    1  A    between atoms: C_1  and  C_2
REMARK    2  A    between atoms: C_2  and  C_3
REMARK    3  A    between atoms: C_3  and  S_4
REMARK    4  A    between atoms: S_4  and  C_5
REMARK    5  A    between atoms: C_15  and  C_16
REMARK    6  A    between atoms: C_19  and  C_20
REMARK    7  A    between atoms: C_19  and  C_21
REMARK                            x       y       z     vdW  Elec       q    Type
REMARK                         _______ _______ _______ _____ _____    ______ ____
ROOT
ATOM      1  C   UNL     1      -4.016  12.412  19.649  0.00  0.00    +0.000 A 
ATOM      2  N   UNL     1      -3.662  12.841  20.895  0.00  0.00    +0.000 NA
ATOM      3  C   UNL     1      -2.408  12.614  21.351  0.00  0.00    +0.000 A 
ATOM      4  N   UNL     1      -2.059  12.981  22.641  0.00  0.00    +0.000 N 
ATOM      5  C   UNL     1      -3.067  13.020  23.692  0.00  0.00    +0.000 C 
ATOM      6  C   UNL     1      -2.816  14.337  24.416  0.00  0.00    +0.000 C 
ATOM      7  C   UNL     1      -1.329  14.573  24.236  0.00  0.00    +0.000 C 
ATOM      8  C   UNL     1      -1.036  14.006  22.853  0.00  0.00    +0.000 C 
ATOM      9  C   UNL     1      -1.472  11.942  20.554  0.00  0.00    +0.000 A 
ATOM     10  C   UNL     1      -1.829  11.513  19.256  0.00  0.00    +0.000 A 
ATOM     11  C   UNL     1      -3.141  11.727  18.802  0.00  0.00    +0.000 A 
ATOM     12  C   UNL     1      -0.801  10.755  18.442  0.00  0.00    +0.000 C 
ATOM     13  C   UNL     1       0.639  11.033  18.912  0.00  0.00    +0.000 C 
ATOM     14  C   UNL     1       1.611  10.029  18.291  0.00  0.00    +0.000 C 
ATOM     15  C   UNL     1       1.106  12.457  18.550  0.00  0.00    +0.000 C 
ATOM     16  O   UNL     1       0.700  10.780  20.318  0.00  0.00    +0.000 OA
ATOM     17  C   UNL     1      -0.089  11.673  21.092  0.00  0.00    +0.000 C 
ENDROOT
BRANCH  11  18
ATOM     18  C   UNL     1      -3.556  11.241  17.510  0.00  0.00    +0.000 C 
ATOM     19  N   UNL     1      -3.838  10.844  16.459  0.00  0.00    +0.000 NA
ENDBRANCH  11  18
BRANCH   1  20
ATOM     20  S   UNL     1      -5.723  12.711  19.165  0.00  0.00    +0.000 S 
BRANCH  20  21
ATOM     21  C   UNL     1      -6.615  12.052  20.612  0.00  0.00    +0.000 C 
BRANCH  21  23
ATOM     22  C   UNL     1      -6.807  10.076  19.055  0.00  0.00    +0.000 C 
ATOM     23  C   UNL     1      -7.465  10.854  20.186  0.00  0.00    +0.000 C 
ENDBRANCH  21  23
ENDBRANCH  20  21
ENDBRANCH   1  20
TORSDOF 4
ENDMDL
