MODEL 1
REMARK VINA RESULT:      -8.3      0.000      0.000
REMARK  Name = 
REMARK  12 active torsions:
REMARK  status: ('A' for Active; 'I' for Inactive)
REMARK    1  A    between atoms: C_1  and  O_2
REMARK    2  A    between atoms: O_2  and  C_3
REMARK    3  A    between atoms: C_12  and  C_13
REMARK    4  A    between atoms: C_16  and  C_17
REMARK    5  A    between atoms: C_17  and  N_18
REMARK    6  A    between atoms: C_17  and  C_19
REMARK    7  A    between atoms: C_19  and  C_20
REMARK    8  A    between atoms: C_20  and  C_21
REMARK    9  A    between atoms: C_21  and  C_22
REMARK   10  A    between atoms: C_22  and  C_23
REMARK   11  A    between atoms: C_23  and  C_24
REMARK   12  A    between atoms: C_24  and  C_26
REMARK                            x       y       z     vdW  Elec       q    Type
REMARK                         _______ _______ _______ _____ _____    ______ ____
ROOT
ATOM      1  C   UNL     1       4.589   4.342  18.034  0.00  0.00    +0.000 A 
ATOM      2  C   UNL     1       4.800   3.687  19.235  0.00  0.00    +0.000 A 
ATOM      3  N   UNL     1       3.676   3.671  20.013  0.00  0.00    +0.000 NA
ATOM      4  C   UNL     1       2.770   4.343  19.332  0.00  0.00    +0.000 A 
ATOM      5  N   UNL     1       3.275   4.746  18.123  0.00  0.00    +0.000 N 
ATOM      6  H   UNL     1       2.780   5.273  17.414  0.00  0.00    +0.000 HD
ENDROOT
BRANCH   1  16
ATOM      7  C   UNL     1       6.500   5.514  16.842  0.00  0.00    +0.000 A 
ATOM      8  N   UNL     1       7.259   5.773  15.749  0.00  0.00    +0.000 NA
ATOM      9  C   UNL     1       7.007   5.094  14.620  0.00  0.00    +0.000 A 
ATOM     10  C   UNL     1       7.745   5.368  13.477  0.00  0.00    +0.000 A 
ATOM     11  C   UNL     1       7.522   4.685  12.277  0.00  0.00    +0.000 A 
ATOM     12  C   UNL     1       6.542   3.701  12.212  0.00  0.00    +0.000 A 
ATOM     13  C   UNL     1       5.784   3.412  13.344  0.00  0.00    +0.000 A 
ATOM     14  C   UNL     1       6.006   4.108  14.546  0.00  0.00    +0.000 A 
ATOM     15  C   UNL     1       5.241   3.859  15.693  0.00  0.00    +0.000 A 
ATOM     16  C   UNL     1       5.458   4.579  16.874  0.00  0.00    +0.000 A 
BRANCH   7  18
ATOM     17  C   UNL     1       7.831   5.687  18.771  0.00  0.00    +0.000 C 
ATOM     18  O   UNL     1       6.765   6.237  17.997  0.00  0.00    +0.000 OA
ENDBRANCH   7  18
ENDBRANCH   1  16
BRANCH   4  19
ATOM     19  C   UNL     1       1.385   4.690  19.793  0.00  0.00    +0.000 C 
BRANCH  19  20
ATOM     20  N   UNL     1       0.732   3.493  20.333  0.00  0.00    +0.000 NA
ATOM     21  H   UNL     1       1.423   2.740  20.308  0.00  0.00    +0.000 HD
ATOM     22  H   UNL     1       0.010   3.195  19.678  0.00  0.00    +0.000 HD
ENDBRANCH  19  20
BRANCH  19  23
ATOM     23  C   UNL     1       1.452   5.773  20.887  0.00  0.00    +0.000 C 
BRANCH  23  24
ATOM     24  C   UNL     1       1.808   7.173  20.354  0.00  0.00    +0.000 C 
BRANCH  24  25
ATOM     25  C   UNL     1       1.410   8.326  21.281  0.00  0.00    +0.000 C 
BRANCH  25  26
ATOM     26  C   UNL     1       0.056   8.919  20.895  0.00  0.00    +0.000 C 
BRANCH  26  27
ATOM     27  C   UNL     1       0.196  10.261  20.190  0.00  0.00    +0.000 C 
BRANCH  27  28
ATOM     28  C   UNL     1      -0.005  10.119  18.686  0.00  0.00    +0.000 C 
ATOM     29  O   UNL     1       0.837   9.586  17.961  0.00  0.00    +0.000 OA
BRANCH  28  30
ATOM     30  C   UNL     1      -1.253  10.648  18.128  0.00  0.00    +0.000 A 
ATOM     31  C   UNL     1      -2.310   9.895  17.554  0.00  0.00    +0.000 A 
ATOM     32  C   UNL     1      -3.256  10.819  17.187  0.00  0.00    +0.000 A 
ATOM     33  N   UNL     1      -2.747  12.033  17.534  0.00  0.00    +0.000 N 
ATOM     34  N   UNL     1      -1.535  11.963  18.106  0.00  0.00    +0.000 NA
ATOM     35  H   UNL     1      -3.169  12.947  17.413  0.00  0.00    +0.000 HD
ENDBRANCH  28  30
ENDBRANCH  27  28
ENDBRANCH  26  27
ENDBRANCH  25  26
ENDBRANCH  24  25
ENDBRANCH  23  24
ENDBRANCH  19  23
ENDBRANCH   4  19
TORSDOF 11
ENDMDL
MODEL 2
REMARK VINA RESULT:      -8.3      2.008      2.813
REMARK  Name = 
REMARK  12 active torsions:
REMARK  status: ('A' for Active; 'I' for Inactive)
REMARK    1  A    between atoms: C_1  and  O_2
REMARK    2  A    between atoms: O_2  and  C_3
REMARK    3  A    between atoms: C_12  and  C_13
REMARK    4  A    between atoms: C_16  and  C_17
REMARK    5  A    between atoms: C_17  and  N_18
REMARK    6  A    between atoms: C_17  and  C_19
REMARK    7  A    between atoms: C_19  and  C_20
REMARK    8  A    between atoms: C_20  and  C_21
REMARK    9  A    between atoms: C_21  and  C_22
REMARK   10  A    between atoms: C_22  and  C_23
REMARK   11  A    between atoms: C_23  and  C_24
REMARK   12  A    between atoms: C_24  and  C_26
REMARK                            x       y       z     vdW  Elec       q    Type
REMARK                         _______ _______ _______ _____ _____    ______ ____
ROOT
ATOM      1  C   UNL     1       5.607   4.121  17.914  0.00  0.00    +0.000 A 
ATOM      2  C   UNL     1       5.660   4.783  19.129  0.00  0.00    +0.000 A 
ATOM      3  N   UNL     1       4.965   4.120  20.103  0.00  0.00    +0.000 NA
ATOM      4  C   UNL     1       4.444   3.068  19.505  0.00  0.00    +0.000 A 
ATOM      5  N   UNL     1       4.825   3.020  18.189  0.00  0.00    +0.000 N 
ATOM      6  H   UNL     1       4.564   2.311  17.516  0.00  0.00    +0.000 HD
ENDROOT
BRANCH   1  16
ATOM      7  C   UNL     1       7.194   5.385  16.388  0.00  0.00    +0.000 A 
ATOM      8  N   UNL     1       7.708   5.689  15.171  0.00  0.00    +0.000 NA
ATOM      9  C   UNL     1       7.262   5.012  14.102  0.00  0.00    +0.000 A 
ATOM     10  C   UNL     1       7.744   5.330  12.840  0.00  0.00    +0.000 A 
ATOM     11  C   UNL     1       7.313   4.653  11.695  0.00  0.00    +0.000 A 
ATOM     12  C   UNL     1       6.379   3.629  11.808  0.00  0.00    +0.000 A 
ATOM     13  C   UNL     1       5.874   3.296  13.063  0.00  0.00    +0.000 A 
ATOM     14  C   UNL     1       6.305   3.986  14.209  0.00  0.00    +0.000 A 
ATOM     15  C   UNL     1       5.795   3.692  15.481  0.00  0.00    +0.000 A 
ATOM     16  C   UNL     1       6.216   4.407  16.609  0.00  0.00    +0.000 A 
BRANCH   7  18
ATOM     17  C   UNL     1       7.340   7.495  17.412  0.00  0.00    +0.000 C 
ATOM     18  O   UNL     1       7.657   6.105  17.481  0.00  0.00    +0.000 OA
ENDBRANCH   7  18
ENDBRANCH   1  16
BRANCH   4  19
ATOM     19  C   UNL     1       3.515   2.063  20.121  0.00  0.00    +0.000 C 
BRANCH  19  20
ATOM     20  N   UNL     1       3.668   2.081  21.579  0.00  0.00    +0.000 NA
ATOM     21  H   UNL     1       3.067   1.341  21.949  0.00  0.00    +0.000 HD
ATOM     22  H   UNL     1       3.257   2.943  21.937  0.00  0.00    +0.000 HD
ENDBRANCH  19  20
BRANCH  19  23
ATOM     23  C   UNL     1       2.058   2.403  19.755  0.00  0.00    +0.000 C 
BRANCH  23  24
ATOM     24  C   UNL     1       1.315   3.204  20.840  0.00  0.00    +0.000 C 
BRANCH  24  25
ATOM     25  C   UNL     1       0.836   4.589  20.392  0.00  0.00    +0.000 C 
BRANCH  25  26
ATOM     26  C   UNL     1       1.754   5.186  19.326  0.00  0.00    +0.000 C 
BRANCH  26  27
ATOM     27  C   UNL     1       2.315   6.538  19.742  0.00  0.00    +0.000 C 
BRANCH  27  28
ATOM     28  C   UNL     1       2.602   7.414  18.530  0.00  0.00    +0.000 C 
ATOM     29  O   UNL     1       3.346   7.046  17.618  0.00  0.00    +0.000 OA
BRANCH  28  30
ATOM     30  C   UNL     1       1.953   8.728  18.488  0.00  0.00    +0.000 A 
ATOM     31  C   UNL     1       1.046   9.255  19.443  0.00  0.00    +0.000 A 
ATOM     32  C   UNL     1       0.722  10.506  18.982  0.00  0.00    +0.000 A 
ATOM     33  N   UNL     1       1.412  10.668  17.820  0.00  0.00    +0.000 N 
ATOM     34  N   UNL     1       2.167   9.608  17.493  0.00  0.00    +0.000 NA
ATOM     35  H   UNL     1       1.418  11.472  17.201  0.00  0.00    +0.000 HD
ENDBRANCH  28  30
ENDBRANCH  27  28
ENDBRANCH  26  27
ENDBRANCH  25  26
ENDBRANCH  24  25
ENDBRANCH  23  24
ENDBRANCH  19  23
ENDBRANCH   4  19
TORSDOF 11
ENDMDL
MODEL 3
REMARK VINA RESULT:      -8.1      2.503      8.414
REMARK  Name = 
REMARK  12 active torsions:
REMARK  status: ('A' for Active; 'I' for Inactive)
REMARK    1  A    between atoms: C_1  and  O_2
REMARK    2  A    between atoms: O_2  and  C_3
REMARK    3  A    between atoms: C_12  and  C_13
REMARK    4  A    between atoms: C_16  and  C_17
REMARK    5  A    between atoms: C_17  and  N_18
REMARK    6  A    between atoms: C_17  and  C_19
REMARK    7  A    between atoms: C_19  and  C_20
REMARK    8  A    between atoms: C_20  and  C_21
REMARK    9  A    between atoms: C_21  and  C_22
REMARK   10  A    between atoms: C_22  and  C_23
REMARK   11  A    between atoms: C_23  and  C_24
REMARK   12  A    between atoms: C_24  and  C_26
REMARK                            x       y       z     vdW  Elec       q    Type
REMARK                         _______ _______ _______ _____ _____    ______ ____
ROOT
ATOM      1  C   UNL     1       1.839   5.320  20.506  0.00  0.00    +0.000 A 
ATOM      2  C   UNL     1       2.366   4.583  21.552  0.00  0.00    +0.000 A 
ATOM      3  N   UNL     1       2.543   3.270  21.214  0.00  0.00    +0.000 NA
ATOM      4  C   UNL     1       2.097   3.165  19.978  0.00  0.00    +0.000 A 
ATOM      5  N   UNL     1       1.684   4.384  19.508  0.00  0.00    +0.000 N 
ATOM      6  H   UNL     1       1.305   4.574  18.588  0.00  0.00    +0.000 HD
ENDROOT
BRANCH   1  16
ATOM      7  C   UNL     1       1.849   7.530  19.256  0.00  0.00    +0.000 A 
ATOM      8  N   UNL     1       1.607   8.861  19.161  0.00  0.00    +0.000 NA
ATOM      9  C   UNL     1       1.009   9.478  20.192  0.00  0.00    +0.000 A 
ATOM     10  C   UNL     1       0.784  10.845  20.134  0.00  0.00    +0.000 A 
ATOM     11  C   UNL     1       0.162  11.534  21.180  0.00  0.00    +0.000 A 
ATOM     12  C   UNL     1      -0.252  10.842  22.313  0.00  0.00    +0.000 A 
ATOM     13  C   UNL     1      -0.032   9.469  22.398  0.00  0.00    +0.000 A 
ATOM     14  C   UNL     1       0.602   8.784  21.347  0.00  0.00    +0.000 A 
ATOM     15  C   UNL     1       0.863   7.409  21.414  0.00  0.00    +0.000 A 
ATOM     16  C   UNL     1       1.518   6.747  20.369  0.00  0.00    +0.000 A 
BRANCH   7  18
ATOM     17  C   UNL     1       3.619   7.634  17.714  0.00  0.00    +0.000 C 
ATOM     18  O   UNL     1       2.482   6.913  18.187  0.00  0.00    +0.000 OA
ENDBRANCH   7  18
ENDBRANCH   1  16
BRANCH   4  19
ATOM     19  C   UNL     1       1.987   1.902  19.176  0.00  0.00    +0.000 C 
BRANCH  19  20
ATOM     20  N   UNL     1       0.796   1.962  18.324  0.00  0.00    +0.000 NA
ATOM     21  H   UNL     1       1.122   1.953  17.355  0.00  0.00    +0.000 HD
ATOM     22  H   UNL     1       0.363   2.879  18.436  0.00  0.00    +0.000 HD
ENDBRANCH  19  20
BRANCH  19  23
ATOM     23  C   UNL     1       3.239   1.730  18.293  0.00  0.00    +0.000 C 
BRANCH  23  24
ATOM     24  C   UNL     1       4.131   2.983  18.229  0.00  0.00    +0.000 C 
BRANCH  24  25
ATOM     25  C   UNL     1       3.947   3.832  16.967  0.00  0.00    +0.000 C 
BRANCH  25  26
ATOM     26  C   UNL     1       5.091   3.624  15.976  0.00  0.00    +0.000 C 
BRANCH  26  27
ATOM     27  C   UNL     1       5.484   4.916  15.273  0.00  0.00    +0.000 C 
BRANCH  27  28
ATOM     28  C   UNL     1       6.940   5.272  15.544  0.00  0.00    +0.000 C 
ATOM     29  O   UNL     1       7.752   5.445  14.633  0.00  0.00    +0.000 OA
BRANCH  28  30
ATOM     30  C   UNL     1       7.344   5.401  16.947  0.00  0.00    +0.000 A 
ATOM     31  C   UNL     1       7.261   6.570  17.748  0.00  0.00    +0.000 A 
ATOM     32  C   UNL     1       7.742   6.200  18.979  0.00  0.00    +0.000 A 
ATOM     33  N   UNL     1       8.084   4.887  18.869  0.00  0.00    +0.000 N 
ATOM     34  N   UNL     1       7.856   4.374  17.650  0.00  0.00    +0.000 NA
ATOM     35  H   UNL     1       8.476   4.279  19.580  0.00  0.00    +0.000 HD
ENDBRANCH  28  30
ENDBRANCH  27  28
ENDBRANCH  26  27
ENDBRANCH  25  26
ENDBRANCH  24  25
ENDBRANCH  23  24
ENDBRANCH  19  23
ENDBRANCH   4  19
TORSDOF 11
ENDMDL
MODEL 4
REMARK VINA RESULT:      -8.0      1.684      1.994
REMARK  Name = 
REMARK  12 active torsions:
REMARK  status: ('A' for Active; 'I' for Inactive)
REMARK    1  A    between atoms: C_1  and  O_2
REMARK    2  A    between atoms: O_2  and  C_3
REMARK    3  A    between atoms: C_12  and  C_13
REMARK    4  A    between atoms: C_16  and  C_17
REMARK    5  A    between atoms: C_17  and  N_18
REMARK    6  A    between atoms: C_17  and  C_19
REMARK    7  A    between atoms: C_19  and  C_20
REMARK    8  A    between atoms: C_20  and  C_21
REMARK    9  A    between atoms: C_21  and  C_22
REMARK   10  A    between atoms: C_22  and  C_23
REMARK   11  A    between atoms: C_23  and  C_24
REMARK   12  A    between atoms: C_24  and  C_26
REMARK                            x       y       z     vdW  Elec       q    Type
REMARK                         _______ _______ _______ _____ _____    ______ ____
ROOT
ATOM      1  C   UNL     1       4.568   4.121  17.915  0.00  0.00    +0.000 A 
ATOM      2  C   UNL     1       4.793   3.496  19.129  0.00  0.00    +0.000 A 
ATOM      3  N   UNL     1       3.644   3.370  19.860  0.00  0.00    +0.000 NA
ATOM      4  C   UNL     1       2.705   3.942  19.135  0.00  0.00    +0.000 A 
ATOM      5  N   UNL     1       3.217   4.389  17.945  0.00  0.00    +0.000 N 
ATOM      6  H   UNL     1       2.702   4.859  17.210  0.00  0.00    +0.000 HD
ENDROOT
BRANCH   1  16
ATOM      7  C   UNL     1       6.462   5.414  16.825  0.00  0.00    +0.000 A 
ATOM      8  N   UNL     1       7.239   5.747  15.765  0.00  0.00    +0.000 NA
ATOM      9  C   UNL     1       7.043   5.106  14.603  0.00  0.00    +0.000 A 
ATOM     10  C   UNL     1       7.799   5.456  13.493  0.00  0.00    +0.000 A 
ATOM     11  C   UNL     1       7.636   4.816  12.260  0.00  0.00    +0.000 A 
ATOM     12  C   UNL     1       6.698   3.798  12.128  0.00  0.00    +0.000 A 
ATOM     13  C   UNL     1       5.922   3.433  13.226  0.00  0.00    +0.000 A 
ATOM     14  C   UNL     1       6.085   4.086  14.461  0.00  0.00    +0.000 A 
ATOM     15  C   UNL     1       5.300   3.761  15.575  0.00  0.00    +0.000 A 
ATOM     16  C   UNL     1       5.457   4.438  16.790  0.00  0.00    +0.000 A 
BRANCH   7  18
ATOM     17  C   UNL     1       7.804   5.630  18.742  0.00  0.00    +0.000 C 
ATOM     18  O   UNL     1       6.668   6.097  18.016  0.00  0.00    +0.000 OA
ENDBRANCH   7  18
ENDBRANCH   1  16
BRANCH   4  19
ATOM     19  C   UNL     1       1.273   4.149  19.535  0.00  0.00    +0.000 C 
BRANCH  19  20
ATOM     20  N   UNL     1       0.727   2.899  20.073  0.00  0.00    +0.000 NA
ATOM     21  H   UNL     1       0.516   2.298  19.272  0.00  0.00    +0.000 HD
ATOM     22  H   UNL     1      -0.182   3.096  20.489  0.00  0.00    +0.000 HD
ENDBRANCH  19  20
BRANCH  19  23
ATOM     23  C   UNL     1       1.182   5.250  20.608  0.00  0.00    +0.000 C 
BRANCH  23  24
ATOM     24  C   UNL     1       2.278   6.325  20.492  0.00  0.00    +0.000 C 
BRANCH  24  25
ATOM     25  C   UNL     1       1.761   7.730  20.168  0.00  0.00    +0.000 C 
BRANCH  25  26
ATOM     26  C   UNL     1       0.962   8.318  21.330  0.00  0.00    +0.000 C 
BRANCH  26  27
ATOM     27  C   UNL     1       0.886   9.837  21.265  0.00  0.00    +0.000 C 
BRANCH  27  28
ATOM     28  C   UNL     1       0.319  10.305  19.931  0.00  0.00    +0.000 C 
ATOM     29  O   UNL     1      -0.813   9.993  19.555  0.00  0.00    +0.000 OA
BRANCH  28  30
ATOM     30  C   UNL     1       1.181  11.152  19.100  0.00  0.00    +0.000 A 
ATOM     31  C   UNL     1       1.366  12.553  19.226  0.00  0.00    +0.000 A 
ATOM     32  C   UNL     1       2.263  12.889  18.244  0.00  0.00    +0.000 A 
ATOM     33  N   UNL     1       2.560  11.730  17.595  0.00  0.00    +0.000 N 
ATOM     34  N   UNL     1       1.920  10.659  18.090  0.00  0.00    +0.000 NA
ATOM     35  H   UNL     1       3.188  11.594  16.810  0.00  0.00    +0.000 HD
ENDBRANCH  28  30
ENDBRANCH  27  28
ENDBRANCH  26  27
ENDBRANCH  25  26
ENDBRANCH  24  25
ENDBRANCH  23  24
ENDBRANCH  19  23
ENDBRANCH   4  19
TORSDOF 11
ENDMDL
MODEL 5
REMARK VINA RESULT:      -8.0      1.507      1.820
REMARK  Name = 
REMARK  12 active torsions:
REMARK  status: ('A' for Active; 'I' for Inactive)
REMARK    1  A    between atoms: C_1  and  O_2
REMARK    2  A    between atoms: O_2  and  C_3
REMARK    3  A    between atoms: C_12  and  C_13
REMARK    4  A    between atoms: C_16  and  C_17
REMARK    5  A    between atoms: C_17  and  N_18
REMARK    6  A    between atoms: C_17  and  C_19
REMARK    7  A    between atoms: C_19  and  C_20
REMARK    8  A    between atoms: C_20  and  C_21
REMARK    9  A    between atoms: C_21  and  C_22
REMARK   10  A    between atoms: C_22  and  C_23
REMARK   11  A    between atoms: C_23  and  C_24
REMARK   12  A    between atoms: C_24  and  C_26
REMARK                            x       y       z     vdW  Elec       q    Type
REMARK                         _______ _______ _______ _____ _____    ______ ____
ROOT
ATOM      1  C   UNL     1       4.973   4.984  17.729  0.00  0.00    +0.000 A 
ATOM      2  C   UNL     1       5.189   4.447  18.986  0.00  0.00    +0.000 A 
ATOM      3  N   UNL     1       4.174   4.749  19.852  0.00  0.00    +0.000 NA
ATOM      4  C   UNL     1       3.340   5.502  19.164  0.00  0.00    +0.000 A 
ATOM      5  N   UNL     1       3.775   5.650  17.872  0.00  0.00    +0.000 N 
ATOM      6  H   UNL     1       3.313   6.176  17.142  0.00  0.00    +0.000 HD
ENDROOT
BRANCH   1  16
ATOM      7  C   UNL     1       6.976   5.524  16.265  0.00  0.00    +0.000 A 
ATOM      8  N   UNL     1       7.649   5.498  15.088  0.00  0.00    +0.000 NA
ATOM      9  C   UNL     1       7.105   4.836  14.055  0.00  0.00    +0.000 A 
ATOM     10  C   UNL     1       7.756   4.827  12.829  0.00  0.00    +0.000 A 
ATOM     11  C   UNL     1       7.233   4.150  11.723  0.00  0.00    +0.000 A 
ATOM     12  C   UNL     1       6.031   3.459  11.840  0.00  0.00    +0.000 A 
ATOM     13  C   UNL     1       5.356   3.459  13.059  0.00  0.00    +0.000 A 
ATOM     14  C   UNL     1       5.883   4.149  14.164  0.00  0.00    +0.000 A 
ATOM     15  C   UNL     1       5.213   4.190  15.394  0.00  0.00    +0.000 A 
ATOM     16  C   UNL     1       5.738   4.903  16.478  0.00  0.00    +0.000 A 
BRANCH   7  18
ATOM     17  C   UNL     1       7.304   7.630  17.253  0.00  0.00    +0.000 C 
ATOM     18  O   UNL     1       7.546   6.225  17.318  0.00  0.00    +0.000 OA
ENDBRANCH   7  18
ENDBRANCH   1  16
BRANCH   4  19
ATOM     19  C   UNL     1       2.104   6.170  19.688  0.00  0.00    +0.000 C 
BRANCH  19  20
ATOM     20  N   UNL     1       1.942   5.858  21.112  0.00  0.00    +0.000 NA
ATOM     21  H   UNL     1       2.145   4.862  21.223  0.00  0.00    +0.000 HD
ATOM     22  H   UNL     1       0.955   5.943  21.352  0.00  0.00    +0.000 HD
ENDBRANCH  19  20
BRANCH  19  23
ATOM     23  C   UNL     1       2.216   7.696  19.509  0.00  0.00    +0.000 C 
BRANCH  23  24
ATOM     24  C   UNL     1       2.015   8.169  18.058  0.00  0.00    +0.000 C 
BRANCH  24  25
ATOM     25  C   UNL     1       1.707   9.662  17.912  0.00  0.00    +0.000 C 
BRANCH  25  26
ATOM     26  C   UNL     1       0.609  10.108  18.876  0.00  0.00    +0.000 C 
BRANCH  26  27
ATOM     27  C   UNL     1      -0.757  10.163  18.208  0.00  0.00    +0.000 C 
BRANCH  27  28
ATOM     28  C   UNL     1      -1.695  11.110  18.945  0.00  0.00    +0.000 C 
ATOM     29  O   UNL     1      -1.412  11.585  20.047  0.00  0.00    +0.000 OA
BRANCH  28  30
ATOM     30  C   UNL     1      -2.963  11.438  18.287  0.00  0.00    +0.000 A 
ATOM     31  C   UNL     1      -3.297  11.205  16.928  0.00  0.00    +0.000 A 
ATOM     32  C   UNL     1      -4.581  11.667  16.786  0.00  0.00    +0.000 A 
ATOM     33  N   UNL     1      -4.946  12.142  18.008  0.00  0.00    +0.000 N 
ATOM     34  N   UNL     1      -3.987  12.018  18.939  0.00  0.00    +0.000 NA
ATOM     35  H   UNL     1      -5.829  12.561  18.280  0.00  0.00    +0.000 HD
ENDBRANCH  28  30
ENDBRANCH  27  28
ENDBRANCH  26  27
ENDBRANCH  25  26
ENDBRANCH  24  25
ENDBRANCH  23  24
ENDBRANCH  19  23
ENDBRANCH   4  19
TORSDOF 11
ENDMDL
MODEL 6
REMARK VINA RESULT:      -7.9      1.788      2.192
REMARK  Name = 
REMARK  12 active torsions:
REMARK  status: ('A' for Active; 'I' for Inactive)
REMARK    1  A    between atoms: C_1  and  O_2
REMARK    2  A    between atoms: O_2  and  C_3
REMARK    3  A    between atoms: C_12  and  C_13
REMARK    4  A    between atoms: C_16  and  C_17
REMARK    5  A    between atoms: C_17  and  N_18
REMARK    6  A    between atoms: C_17  and  C_19
REMARK    7  A    between atoms: C_19  and  C_20
REMARK    8  A    between atoms: C_20  and  C_21
REMARK    9  A    between atoms: C_21  and  C_22
REMARK   10  A    between atoms: C_22  and  C_23
REMARK   11  A    between atoms: C_23  and  C_24
REMARK   12  A    between atoms: C_24  and  C_26
REMARK                            x       y       z     vdW  Elec       q    Type
REMARK                         _______ _______ _______ _____ _____    ______ ____
ROOT
ATOM      1  C   UNL     1       4.397   5.445  17.796  0.00  0.00    +0.000 A 
ATOM      2  C   UNL     1       3.911   4.577  18.758  0.00  0.00    +0.000 A 
ATOM      3  N   UNL     1       3.045   5.198  19.616  0.00  0.00    +0.000 NA
ATOM      4  C   UNL     1       3.011   6.456  19.227  0.00  0.00    +0.000 A 
ATOM      5  N   UNL     1       3.796   6.642  18.119  0.00  0.00    +0.000 N 
ATOM      6  H   UNL     1       3.936   7.514  17.625  0.00  0.00    +0.000 HD
ENDROOT
BRANCH   1  16
ATOM      7  C   UNL     1       6.597   5.770  16.570  0.00  0.00    +0.000 A 
ATOM      8  N   UNL     1       7.404   5.636  15.489  0.00  0.00    +0.000 NA
ATOM      9  C   UNL     1       6.942   4.959  14.426  0.00  0.00    +0.000 A 
ATOM     10  C   UNL     1       7.734   4.841  13.293  0.00  0.00    +0.000 A 
ATOM     11  C   UNL     1       7.300   4.143  12.162  0.00  0.00    +0.000 A 
ATOM     12  C   UNL     1       6.046   3.542  12.158  0.00  0.00    +0.000 A 
ATOM     13  C   UNL     1       5.229   3.652  13.282  0.00  0.00    +0.000 A 
ATOM     14  C   UNL     1       5.668   4.363  14.413  0.00  0.00    +0.000 A 
ATOM     15  C   UNL     1       4.858   4.514  15.547  0.00  0.00    +0.000 A 
ATOM     16  C   UNL     1       5.300   5.246  16.655  0.00  0.00    +0.000 A 
BRANCH   7  18
ATOM     17  C   UNL     1       7.473   7.818  17.318  0.00  0.00    +0.000 C 
ATOM     18  O   UNL     1       7.085   6.486  17.654  0.00  0.00    +0.000 OA
ENDBRANCH   7  18
ENDBRANCH   1  16
BRANCH   4  19
ATOM     19  C   UNL     1       2.274   7.576  19.900  0.00  0.00    +0.000 C 
BRANCH  19  20
ATOM     20  N   UNL     1       1.657   8.438  18.887  0.00  0.00    +0.000 NA
ATOM     21  H   UNL     1       1.925   8.063  17.975  0.00  0.00    +0.000 HD
ATOM     22  H   UNL     1       2.103   9.354  18.926  0.00  0.00    +0.000 HD
ENDBRANCH  19  20
BRANCH  19  23
ATOM     23  C   UNL     1       1.178   7.005  20.821  0.00  0.00    +0.000 C 
BRANCH  23  24
ATOM     24  C   UNL     1       0.235   8.074  21.402  0.00  0.00    +0.000 C 
BRANCH  24  25
ATOM     25  C   UNL     1       0.925   9.125  22.276  0.00  0.00    +0.000 C 
BRANCH  25  26
ATOM     26  C   UNL     1      -0.057   9.796  23.234  0.00  0.00    +0.000 C 
BRANCH  26  27
ATOM     27  C   UNL     1      -1.006  10.744  22.514  0.00  0.00    +0.000 C 
BRANCH  27  28
ATOM     28  C   UNL     1      -0.252  11.667  21.566  0.00  0.00    +0.000 C 
ATOM     29  O   UNL     1       0.505  12.549  21.977  0.00  0.00    +0.000 OA
BRANCH  28  30
ATOM     30  C   UNL     1      -0.463  11.464  20.130  0.00  0.00    +0.000 A 
ATOM     31  C   UNL     1      -1.705  11.493  19.444  0.00  0.00    +0.000 A 
ATOM     32  C   UNL     1      -1.398  11.263  18.127  0.00  0.00    +0.000 A 
ATOM     33  N   UNL     1      -0.046  11.106  18.080  0.00  0.00    +0.000 N 
ATOM     34  N   UNL     1       0.549  11.222  19.277  0.00  0.00    +0.000 NA
ATOM     35  H   UNL     1       0.536  10.920  17.270  0.00  0.00    +0.000 HD
ENDBRANCH  28  30
ENDBRANCH  27  28
ENDBRANCH  26  27
ENDBRANCH  25  26
ENDBRANCH  24  25
ENDBRANCH  23  24
ENDBRANCH  19  23
ENDBRANCH   4  19
TORSDOF 11
ENDMDL
MODEL 7
REMARK VINA RESULT:      -7.9      2.504      3.084
REMARK  Name = 
REMARK  12 active torsions:
REMARK  status: ('A' for Active; 'I' for Inactive)
REMARK    1  A    between atoms: C_1  and  O_2
REMARK    2  A    between atoms: O_2  and  C_3
REMARK    3  A    between atoms: C_12  and  C_13
REMARK    4  A    between atoms: C_16  and  C_17
REMARK    5  A    between atoms: C_17  and  N_18
REMARK    6  A    between atoms: C_17  and  C_19
REMARK    7  A    between atoms: C_19  and  C_20
REMARK    8  A    between atoms: C_20  and  C_21
REMARK    9  A    between atoms: C_21  and  C_22
REMARK   10  A    between atoms: C_22  and  C_23
REMARK   11  A    between atoms: C_23  and  C_24
REMARK   12  A    between atoms: C_24  and  C_26
REMARK                            x       y       z     vdW  Elec       q    Type
REMARK                         _______ _______ _______ _____ _____    ______ ____
ROOT
ATOM      1  C   UNL     1       4.757   5.388  17.692  0.00  0.00    +0.000 A 
ATOM      2  C   UNL     1       4.819   4.867  18.973  0.00  0.00    +0.000 A 
ATOM      3  N   UNL     1       3.820   5.352  19.771  0.00  0.00    +0.000 NA
ATOM      4  C   UNL     1       3.152   6.202  19.017  0.00  0.00    +0.000 A 
ATOM      5  N   UNL     1       3.673   6.237  17.750  0.00  0.00    +0.000 N 
ATOM      6  H   UNL     1       3.339   6.804  16.981  0.00  0.00    +0.000 HD
ENDROOT
BRANCH   1  16
ATOM      7  C   UNL     1       6.879   5.600  16.314  0.00  0.00    +0.000 A 
ATOM      8  N   UNL     1       7.599   5.428  15.178  0.00  0.00    +0.000 NA
ATOM      9  C   UNL     1       7.027   4.782  14.150  0.00  0.00    +0.000 A 
ATOM     10  C   UNL     1       7.729   4.627  12.963  0.00  0.00    +0.000 A 
ATOM     11  C   UNL     1       7.180   3.959  11.865  0.00  0.00    +0.000 A 
ATOM     12  C   UNL     1       5.898   3.427  11.950  0.00  0.00    +0.000 A 
ATOM     13  C   UNL     1       5.170   3.575  13.129  0.00  0.00    +0.000 A 
ATOM     14  C   UNL     1       5.725   4.256  14.226  0.00  0.00    +0.000 A 
ATOM     15  C   UNL     1       5.007   4.445  15.415  0.00  0.00    +0.000 A 
ATOM     16  C   UNL     1       5.565   5.147  16.490  0.00  0.00    +0.000 A 
BRANCH   7  18
ATOM     17  C   UNL     1       7.286   7.696  17.295  0.00  0.00    +0.000 C 
ATOM     18  O   UNL     1       7.481   6.283  17.361  0.00  0.00    +0.000 OA
ENDBRANCH   7  18
ENDBRANCH   1  16
BRANCH   4  19
ATOM     19  C   UNL     1       2.011   7.072  19.453  0.00  0.00    +0.000 C 
BRANCH  19  20
ATOM     20  N   UNL     1       1.896   7.038  20.914  0.00  0.00    +0.000 NA
ATOM     21  H   UNL     1       2.287   6.145  21.222  0.00  0.00    +0.000 HD
ATOM     22  H   UNL     1       0.908   6.980  21.160  0.00  0.00    +0.000 HD
ENDBRANCH  19  20
BRANCH  19  23
ATOM     23  C   UNL     1       2.251   8.523  18.993  0.00  0.00    +0.000 C 
BRANCH  23  24
ATOM     24  C   UNL     1       1.084   9.122  18.188  0.00  0.00    +0.000 C 
BRANCH  24  25
ATOM     25  C   UNL     1       0.106   9.963  19.014  0.00  0.00    +0.000 C 
BRANCH  25  26
ATOM     26  C   UNL     1       0.557  10.085  20.469  0.00  0.00    +0.000 C 
BRANCH  26  27
ATOM     27  C   UNL     1      -0.521   9.637  21.445  0.00  0.00    +0.000 C 
BRANCH  27  28
ATOM     28  C   UNL     1      -0.364  10.324  22.796  0.00  0.00    +0.000 C 
ATOM     29  O   UNL     1       0.320   9.841  23.700  0.00  0.00    +0.000 OA
BRANCH  28  30
ATOM     30  C   UNL     1      -1.068  11.597  22.981  0.00  0.00    +0.000 A 
ATOM     31  C   UNL     1      -2.457  11.771  23.213  0.00  0.00    +0.000 A 
ATOM     32  C   UNL     1      -2.637  13.126  23.331  0.00  0.00    +0.000 A 
ATOM     33  N   UNL     1      -1.407  13.683  23.166  0.00  0.00    +0.000 N 
ATOM     34  N   UNL     1      -0.434  12.783  22.952  0.00  0.00    +0.000 NA
ATOM     35  H   UNL     1      -1.155  14.666  23.189  0.00  0.00    +0.000 HD
ENDBRANCH  28  30
ENDBRANCH  27  28
ENDBRANCH  26  27
ENDBRANCH  25  26
ENDBRANCH  24  25
ENDBRANCH  23  24
ENDBRANCH  19  23
ENDBRANCH   4  19
TORSDOF 11
ENDMDL
MODEL 8
REMARK VINA RESULT:      -7.8      2.453      8.588
REMARK  Name = 
REMARK  12 active torsions:
REMARK  status: ('A' for Active; 'I' for Inactive)
REMARK    1  A    between atoms: C_1  and  O_2
REMARK    2  A    between atoms: O_2  and  C_3
REMARK    3  A    between atoms: C_12  and  C_13
REMARK    4  A    between atoms: C_16  and  C_17
REMARK    5  A    between atoms: C_17  and  N_18
REMARK    6  A    between atoms: C_17  and  C_19
REMARK    7  A    between atoms: C_19  and  C_20
REMARK    8  A    between atoms: C_20  and  C_21
REMARK    9  A    between atoms: C_21  and  C_22
REMARK   10  A    between atoms: C_22  and  C_23
REMARK   11  A    between atoms: C_23  and  C_24
REMARK   12  A    between atoms: C_24  and  C_26
REMARK                            x       y       z     vdW  Elec       q    Type
REMARK                         _______ _______ _______ _____ _____    ______ ____
ROOT
ATOM      1  C   UNL     1       2.010   5.574  20.403  0.00  0.00    +0.000 A 
ATOM      2  C   UNL     1       1.484   4.395  20.901  0.00  0.00    +0.000 A 
ATOM      3  N   UNL     1       2.290   3.323  20.635  0.00  0.00    +0.000 NA
ATOM      4  C   UNL     1       3.300   3.809  19.942  0.00  0.00    +0.000 A 
ATOM      5  N   UNL     1       3.179   5.167  19.799  0.00  0.00    +0.000 N 
ATOM      6  H   UNL     1       3.825   5.778  19.314  0.00  0.00    +0.000 HD
ENDROOT
BRANCH   1  16
ATOM      7  C   UNL     1       1.829   7.943  19.507  0.00  0.00    +0.000 A 
ATOM      8  N   UNL     1       1.453   9.242  19.605  0.00  0.00    +0.000 NA
ATOM      9  C   UNL     1       0.762   9.628  20.689  0.00  0.00    +0.000 A 
ATOM     10  C   UNL     1       0.398  10.959  20.831  0.00  0.00    +0.000 A 
ATOM     11  C   UNL     1      -0.325  11.410  21.939  0.00  0.00    +0.000 A 
ATOM     12  C   UNL     1      -0.700  10.512  22.933  0.00  0.00    +0.000 A 
ATOM     13  C   UNL     1      -0.340   9.171  22.817  0.00  0.00    +0.000 A 
ATOM     14  C   UNL     1       0.394   8.726  21.704  0.00  0.00    +0.000 A 
ATOM     15  C   UNL     1       0.794   7.389  21.573  0.00  0.00    +0.000 A 
ATOM     16  C   UNL     1       1.547   6.966  20.471  0.00  0.00    +0.000 A 
BRANCH   7  18
ATOM     17  C   UNL     1       2.655   8.599  17.407  0.00  0.00    +0.000 C 
ATOM     18  O   UNL     1       2.556   7.566  18.387  0.00  0.00    +0.000 OA
ENDBRANCH   7  18
ENDBRANCH   1  16
BRANCH   4  19
ATOM     19  C   UNL     1       4.420   3.022  19.328  0.00  0.00    +0.000 C 
BRANCH  19  20
ATOM     20  N   UNL     1       4.928   2.049  20.301  0.00  0.00    +0.000 NA
ATOM     21  H   UNL     1       4.302   1.241  20.268  0.00  0.00    +0.000 HD
ATOM     22  H   UNL     1       4.800   2.431  21.238  0.00  0.00    +0.000 HD
ENDBRANCH  19  20
BRANCH  19  23
ATOM     23  C   UNL     1       3.915   2.278  18.077  0.00  0.00    +0.000 C 
BRANCH  23  24
ATOM     24  C   UNL     1       3.211   3.188  17.054  0.00  0.00    +0.000 C 
BRANCH  24  25
ATOM     25  C   UNL     1       4.146   4.137  16.298  0.00  0.00    +0.000 C 
BRANCH  25  26
ATOM     26  C   UNL     1       5.422   3.431  15.846  0.00  0.00    +0.000 C 
BRANCH  26  27
ATOM     27  C   UNL     1       6.485   4.411  15.370  0.00  0.00    +0.000 C 
BRANCH  27  28
ATOM     28  C   UNL     1       6.433   5.711  16.163  0.00  0.00    +0.000 C 
ATOM     29  O   UNL     1       5.820   6.701  15.758  0.00  0.00    +0.000 OA
BRANCH  28  30
ATOM     30  C   UNL     1       7.150   5.740  17.442  0.00  0.00    +0.000 A 
ATOM     31  C   UNL     1       7.663   6.888  18.099  0.00  0.00    +0.000 A 
ATOM     32  C   UNL     1       8.235   6.418  19.255  0.00  0.00    +0.000 A 
ATOM     33  N   UNL     1       8.056   5.069  19.240  0.00  0.00    +0.000 N 
ATOM     34  N   UNL     1       7.402   4.626  18.154  0.00  0.00    +0.000 NA
ATOM     35  H   UNL     1       8.350   4.389  19.933  0.00  0.00    +0.000 HD
ENDBRANCH  28  30
ENDBRANCH  27  28
ENDBRANCH  26  27
ENDBRANCH  25  26
ENDBRANCH  24  25
ENDBRANCH  23  24
ENDBRANCH  19  23
ENDBRANCH   4  19
TORSDOF 11
ENDMDL
MODEL 9
REMARK VINA RESULT:      -7.7      2.844      9.315
REMARK  Name = 
REMARK  12 active torsions:
REMARK  status: ('A' for Active; 'I' for Inactive)
REMARK    1  A    between atoms: C_1  and  O_2
REMARK    2  A    between atoms: O_2  and  C_3
REMARK    3  A    between atoms: C_12  and  C_13
REMARK    4  A    between atoms: C_16  and  C_17
REMARK    5  A    between atoms: C_17  and  N_18
REMARK    6  A    between atoms: C_17  and  C_19
REMARK    7  A    between atoms: C_19  and  C_20
REMARK    8  A    between atoms: C_20  and  C_21
REMARK    9  A    between atoms: C_21  and  C_22
REMARK   10  A    between atoms: C_22  and  C_23
REMARK   11  A    between atoms: C_23  and  C_24
REMARK   12  A    between atoms: C_24  and  C_26
REMARK                            x       y       z     vdW  Elec       q    Type
REMARK                         _______ _______ _______ _____ _____    ______ ____
ROOT
ATOM      1  C   UNL     1       0.882   9.513  20.323  0.00  0.00    +0.000 A 
ATOM      2  C   UNL     1       0.695   8.840  21.518  0.00  0.00    +0.000 A 
ATOM      3  N   UNL     1       1.180   7.562  21.467  0.00  0.00    +0.000 NA
ATOM      4  C   UNL     1       1.637   7.411  20.241  0.00  0.00    +0.000 A 
ATOM      5  N   UNL     1       1.496   8.572  19.525  0.00  0.00    +0.000 N 
ATOM      6  H   UNL     1       1.772   8.719  18.563  0.00  0.00    +0.000 HD
ENDROOT
BRANCH   1  16
ATOM      7  C   UNL     1      -0.272  11.225  18.846  0.00  0.00    +0.000 A 
ATOM      8  N   UNL     1      -0.501  12.494  18.427  0.00  0.00    +0.000 NA
ATOM      9  C   UNL     1       0.118  13.500  19.064  0.00  0.00    +0.000 A 
ATOM     10  C   UNL     1      -0.071  14.804  18.630  0.00  0.00    +0.000 A 
ATOM     11  C   UNL     1       0.549  15.887  19.261  0.00  0.00    +0.000 A 
ATOM     12  C   UNL     1       1.375  15.667  20.358  0.00  0.00    +0.000 A 
ATOM     13  C   UNL     1       1.586  14.366  20.809  0.00  0.00    +0.000 A 
ATOM     14  C   UNL     1       0.967  13.281  20.164  0.00  0.00    +0.000 A 
ATOM     15  C   UNL     1       1.181  11.959  20.577  0.00  0.00    +0.000 A 
ATOM     16  C   UNL     1       0.577  10.888  19.908  0.00  0.00    +0.000 A 
BRANCH   7  18
ATOM     17  C   UNL     1      -2.293  10.452  17.930  0.00  0.00    +0.000 C 
ATOM     18  O   UNL     1      -0.909  10.197  18.166  0.00  0.00    +0.000 OA
ENDBRANCH   7  18
ENDBRANCH   1  16
BRANCH   4  19
ATOM     19  C   UNL     1       2.194   6.151  19.647  0.00  0.00    +0.000 C 
BRANCH  19  20
ATOM     20  N   UNL     1       3.624   6.052  19.954  0.00  0.00    +0.000 NA
ATOM     21  H   UNL     1       3.857   6.852  20.547  0.00  0.00    +0.000 HD
ATOM     22  H   UNL     1       4.152   6.212  19.097  0.00  0.00    +0.000 HD
ENDBRANCH  19  20
BRANCH  19  23
ATOM     23  C   UNL     1       1.460   4.928  20.229  0.00  0.00    +0.000 C 
BRANCH  23  24
ATOM     24  C   UNL     1       2.268   4.168  21.297  0.00  0.00    +0.000 C 
BRANCH  24  25
ATOM     25  C   UNL     1       2.276   2.646  21.126  0.00  0.00    +0.000 C 
BRANCH  25  26
ATOM     26  C   UNL     1       1.680   2.226  19.784  0.00  0.00    +0.000 C 
BRANCH  26  27
ATOM     27  C   UNL     1       2.745   1.755  18.804  0.00  0.00    +0.000 C 
BRANCH  27  28
ATOM     28  C   UNL     1       3.073   2.836  17.781  0.00  0.00    +0.000 C 
ATOM     29  O   UNL     1       2.281   3.156  16.892  0.00  0.00    +0.000 OA
BRANCH  28  30
ATOM     30  C   UNL     1       4.381   3.488  17.896  0.00  0.00    +0.000 A 
ATOM     31  C   UNL     1       5.082   4.165  16.865  0.00  0.00    +0.000 A 
ATOM     32  C   UNL     1       6.242   4.611  17.449  0.00  0.00    +0.000 A 
ATOM     33  N   UNL     1       6.192   4.196  18.745  0.00  0.00    +0.000 N 
ATOM     34  N   UNL     1       5.077   3.513  19.047  0.00  0.00    +0.000 NA
ATOM     35  H   UNL     1       6.878   4.344  19.477  0.00  0.00    +0.000 HD
ENDBRANCH  28  30
ENDBRANCH  27  28
ENDBRANCH  26  27
ENDBRANCH  25  26
ENDBRANCH  24  25
ENDBRANCH  23  24
ENDBRANCH  19  23
ENDBRANCH   4  19
TORSDOF 11
ENDMDL
