MODEL 1
REMARK VINA RESULT:      -7.1      0.000      0.000
REMARK  Name = 
REMARK  15 active torsions:
REMARK  status: ('A' for Active; 'I' for Inactive)
REMARK    1  A    between atoms: C_1  and  O_2
REMARK    2  A    between atoms: O_2  and  C_3
REMARK    3  A    between atoms: C_9  and  N_10
REMARK    4  A    between atoms: C_13  and  O_14
REMARK    5  A    between atoms: O_14  and  C_15
REMARK    6  A    between atoms: C_18  and  C_19
REMARK    7  A    between atoms: C_19  and  N_20
REMARK    8  A    between atoms: N_20  and  C_21
REMARK    9  A    between atoms: C_21  and  C_22
REMARK   10  A    between atoms: C_22  and  O_23
REMARK   11  A    between atoms: O_23  and  C_24
REMARK   12  A    between atoms: C_25  and  O_26
REMARK   13  A    between atoms: O_26  and  C_27
REMARK   14  A    between atoms: C_31  and  O_32
REMARK   15  A    between atoms: O_32  and  C_33
REMARK                            x       y       z     vdW  Elec       q    Type
REMARK                         _______ _______ _______ _____ _____    ______ ____
ROOT
ATOM      1  C   UNL     1       4.686   5.704  17.189  0.00  0.00    +0.000 A 
ATOM      2  C   UNL     1       4.010   6.912  16.967  0.00  0.00    +0.000 A 
ATOM      3  C   UNL     1       3.149   7.472  17.901  0.00  0.00    +0.000 A 
ATOM      4  N   UNL     1       2.550   8.618  17.574  0.00  0.00    +0.000 NA
ATOM      5  C   UNL     1       1.675   9.170  18.443  0.00  0.00    +0.000 A 
ATOM      6  C   UNL     1       1.397   8.629  19.700  0.00  0.00    +0.000 A 
ATOM      7  C   UNL     1       2.049   7.433  20.058  0.00  0.00    +0.000 A 
ATOM      8  C   UNL     1       2.923   6.816  19.123  0.00  0.00    +0.000 A 
ATOM      9  C   UNL     1       3.589   5.588  19.336  0.00  0.00    +0.000 A 
ATOM     10  C   UNL     1       4.464   5.028  18.393  0.00  0.00    +0.000 A 
ATOM     11  C   UNL     1       0.395   9.290  20.615  0.00  0.00    +0.000 C 
ATOM     12  C   UNL     1       0.054  10.728  20.226  0.00  0.00    +0.000 C 
ATOM     13  C   UNL     1      -0.251  10.801  18.730  0.00  0.00    +0.000 C 
ATOM     14  C   UNL     1       1.025  10.438  17.956  0.00  0.00    +0.000 C 
ENDROOT
BRANCH   7  15
ATOM     15  N   UNL     1       1.650   6.745  21.228  0.00  0.00    +0.000 N 
ATOM     16  H   UNL     1       2.252   6.878  22.030  0.00  0.00    +0.000 HD
ATOM     17  H   UNL     1       1.453   5.763  21.079  0.00  0.00    +0.000 HD
ENDBRANCH   7  15
BRANCH   1  19
ATOM     18  C   UNL     1       6.902   5.469  16.346  0.00  0.00    +0.000 C 
ATOM     19  O   UNL     1       5.518   5.147  16.255  0.00  0.00    +0.000 OA
ENDBRANCH   1  19
BRANCH  10  20
ATOM     20  O   UNL     1       4.999   3.847  18.833  0.00  0.00    +0.000 OA
ATOM     21  C   UNL     1       4.124   2.798  19.213  0.00  0.00    +0.000 C 
ENDBRANCH  10  20
BRANCH  13  22
ATOM     22  C   UNL     1      -0.746  12.199  18.347  0.00  0.00    +0.000 C 
BRANCH  22  23
ATOM     23  N   UNL     1      -1.809  12.093  17.350  0.00  0.00    +0.000 NA
ATOM     24  H   UNL     1      -1.431  12.272  16.420  0.00  0.00    +0.000 HD
BRANCH  23  25
ATOM     25  C   UNL     1      -2.492  10.796  17.354  0.00  0.00    +0.000 C 
BRANCH  25  26
ATOM     26  C   UNL     1      -3.973  10.817  17.765  0.00  0.00    +0.000 C 
BRANCH  26  27
ATOM     27  O   UNL     1      -4.395  12.139  18.106  0.00  0.00    +0.000 OA
BRANCH  27  28
ATOM     28  C   UNL     1      -5.203  12.318  19.205  0.00  0.00    +0.000 A 
ATOM     29  C   UNL     1      -6.626  12.327  19.180  0.00  0.00    +0.000 A 
ATOM     30  C   UNL     1      -7.352  12.482  20.370  0.00  0.00    +0.000 A 
ATOM     31  C   UNL     1      -6.702  12.662  21.582  0.00  0.00    +0.000 A 
ATOM     32  C   UNL     1      -5.316  12.703  21.611  0.00  0.00    +0.000 A 
ATOM     33  C   UNL     1      -4.554  12.541  20.442  0.00  0.00    +0.000 A 
BRANCH  29  34
ATOM     34  O   UNL     1      -7.270  12.157  17.978  0.00  0.00    +0.000 OA
ATOM     35  C   UNL     1      -7.418  13.283  17.126  0.00  0.00    +0.000 C 
ENDBRANCH  29  34
BRANCH  33  36
ATOM     36  O   UNL     1      -3.217  12.639  20.728  0.00  0.00    +0.000 OA
ATOM     37  C   UNL     1      -2.674  13.856  21.207  0.00  0.00    +0.000 C 
ENDBRANCH  33  36
ENDBRANCH  27  28
ENDBRANCH  26  27
ENDBRANCH  25  26
ENDBRANCH  23  25
ENDBRANCH  22  23
ENDBRANCH  13  22
TORSDOF 11
ENDMDL
MODEL 2
REMARK VINA RESULT:      -6.8      0.983      2.454
REMARK  Name = 
REMARK  15 active torsions:
REMARK  status: ('A' for Active; 'I' for Inactive)
REMARK    1  A    between atoms: C_1  and  O_2
REMARK    2  A    between atoms: O_2  and  C_3
REMARK    3  A    between atoms: C_9  and  N_10
REMARK    4  A    between atoms: C_13  and  O_14
REMARK    5  A    between atoms: O_14  and  C_15
REMARK    6  A    between atoms: C_18  and  C_19
REMARK    7  A    between atoms: C_19  and  N_20
REMARK    8  A    between atoms: N_20  and  C_21
REMARK    9  A    between atoms: C_21  and  C_22
REMARK   10  A    between atoms: C_22  and  O_23
REMARK   11  A    between atoms: O_23  and  C_24
REMARK   12  A    between atoms: C_25  and  O_26
REMARK   13  A    between atoms: O_26  and  C_27
REMARK   14  A    between atoms: C_31  and  O_32
REMARK   15  A    between atoms: O_32  and  C_33
REMARK                            x       y       z     vdW  Elec       q    Type
REMARK                         _______ _______ _______ _____ _____    ______ ____
ROOT
ATOM      1  C   UNL     1       4.748   5.214  16.970  0.00  0.00    +0.000 A 
ATOM      2  C   UNL     1       4.204   6.501  16.866  0.00  0.00    +0.000 A 
ATOM      3  C   UNL     1       3.388   7.051  17.844  0.00  0.00    +0.000 A 
ATOM      4  N   UNL     1       2.915   8.281  17.631  0.00  0.00    +0.000 NA
ATOM      5  C   UNL     1       2.085   8.830  18.544  0.00  0.00    +0.000 A 
ATOM      6  C   UNL     1       1.730   8.198  19.737  0.00  0.00    +0.000 A 
ATOM      7  C   UNL     1       2.249   6.911  19.977  0.00  0.00    +0.000 A 
ATOM      8  C   UNL     1       3.073   6.304  18.991  0.00  0.00    +0.000 A 
ATOM      9  C   UNL     1       3.605   4.998  19.084  0.00  0.00    +0.000 A 
ATOM     10  C   UNL     1       4.436   4.447  18.096  0.00  0.00    +0.000 A 
ATOM     11  C   UNL     1       0.784   8.865  20.706  0.00  0.00    +0.000 C 
ATOM     12  C   UNL     1       0.600  10.362  20.461  0.00  0.00    +0.000 C 
ATOM     13  C   UNL     1       0.331  10.616  18.978  0.00  0.00    +0.000 C 
ATOM     14  C   UNL     1       1.578  10.201  18.183  0.00  0.00    +0.000 C 
ENDROOT
BRANCH   7  15
ATOM     15  N   UNL     1       1.759   6.155  21.068  0.00  0.00    +0.000 N 
ATOM     16  H   UNL     1       2.189   6.363  21.960  0.00  0.00    +0.000 HD
ATOM     17  H   UNL     1       1.738   5.157  20.898  0.00  0.00    +0.000 HD
ENDBRANCH   7  15
BRANCH   1  19
ATOM     18  C   UNL     1       6.945   4.807  16.142  0.00  0.00    +0.000 C 
ATOM     19  O   UNL     1       5.537   4.670  15.991  0.00  0.00    +0.000 OA
ENDBRANCH   1  19
BRANCH  10  20
ATOM     20  O   UNL     1       4.838   3.179  18.419  0.00  0.00    +0.000 OA
ATOM     21  C   UNL     1       4.252   2.537  19.539  0.00  0.00    +0.000 C 
ENDBRANCH  10  20
BRANCH  13  22
ATOM     22  C   UNL     1      -0.010  12.089  18.735  0.00  0.00    +0.000 C 
BRANCH  22  23
ATOM     23  N   UNL     1      -0.999  12.199  17.665  0.00  0.00    +0.000 NA
ATOM     24  H   UNL     1      -0.527  12.259  16.763  0.00  0.00    +0.000 HD
BRANCH  23  25
ATOM     25  C   UNL     1      -1.959  11.092  17.635  0.00  0.00    +0.000 C 
BRANCH  25  26
ATOM     26  C   UNL     1      -3.277  11.325  18.392  0.00  0.00    +0.000 C 
BRANCH  26  27
ATOM     27  O   UNL     1      -3.268  12.584  19.068  0.00  0.00    +0.000 OA
BRANCH  27  28
ATOM     28  C   UNL     1      -3.940  12.705  20.263  0.00  0.00    +0.000 A 
ATOM     29  C   UNL     1      -3.338  12.615  21.549  0.00  0.00    +0.000 A 
ATOM     30  C   UNL     1      -4.114  12.792  22.705  0.00  0.00    +0.000 A 
ATOM     31  C   UNL     1      -5.480  13.022  22.617  0.00  0.00    +0.000 A 
ATOM     32  C   UNL     1      -6.083  13.064  21.369  0.00  0.00    +0.000 A 
ATOM     33  C   UNL     1      -5.338  12.902  20.190  0.00  0.00    +0.000 A 
BRANCH  29  34
ATOM     34  O   UNL     1      -1.988  12.378  21.637  0.00  0.00    +0.000 OA
ATOM     35  C   UNL     1      -1.378  12.410  22.919  0.00  0.00    +0.000 C 
ENDBRANCH  29  34
BRANCH  33  36
ATOM     36  O   UNL     1      -6.161  12.966  19.095  0.00  0.00    +0.000 OA
ATOM     37  C   UNL     1      -7.468  12.425  19.149  0.00  0.00    +0.000 C 
ENDBRANCH  33  36
ENDBRANCH  27  28
ENDBRANCH  26  27
ENDBRANCH  25  26
ENDBRANCH  23  25
ENDBRANCH  22  23
ENDBRANCH  13  22
TORSDOF 11
ENDMDL
MODEL 3
REMARK VINA RESULT:      -6.8      1.458      2.922
REMARK  Name = 
REMARK  15 active torsions:
REMARK  status: ('A' for Active; 'I' for Inactive)
REMARK    1  A    between atoms: C_1  and  O_2
REMARK    2  A    between atoms: O_2  and  C_3
REMARK    3  A    between atoms: C_9  and  N_10
REMARK    4  A    between atoms: C_13  and  O_14
REMARK    5  A    between atoms: O_14  and  C_15
REMARK    6  A    between atoms: C_18  and  C_19
REMARK    7  A    between atoms: C_19  and  N_20
REMARK    8  A    between atoms: N_20  and  C_21
REMARK    9  A    between atoms: C_21  and  C_22
REMARK   10  A    between atoms: C_22  and  O_23
REMARK   11  A    between atoms: O_23  and  C_24
REMARK   12  A    between atoms: C_25  and  O_26
REMARK   13  A    between atoms: O_26  and  C_27
REMARK   14  A    between atoms: C_31  and  O_32
REMARK   15  A    between atoms: O_32  and  C_33
REMARK                            x       y       z     vdW  Elec       q    Type
REMARK                         _______ _______ _______ _____ _____    ______ ____
ROOT
ATOM      1  C   UNL     1       4.976   4.722  17.256  0.00  0.00    +0.000 A 
ATOM      2  C   UNL     1       4.389   5.979  17.055  0.00  0.00    +0.000 A 
ATOM      3  C   UNL     1       3.564   6.579  17.995  0.00  0.00    +0.000 A 
ATOM      4  N   UNL     1       3.050   7.772  17.689  0.00  0.00    +0.000 NA
ATOM      5  C   UNL     1       2.210   8.367  18.564  0.00  0.00    +0.000 A 
ATOM      6  C   UNL     1       1.885   7.821  19.808  0.00  0.00    +0.000 A 
ATOM      7  C   UNL     1       2.447   6.575  20.144  0.00  0.00    +0.000 A 
ATOM      8  C   UNL     1       3.282   5.917  19.201  0.00  0.00    +0.000 A 
ATOM      9  C   UNL     1       3.857   4.640  19.393  0.00  0.00    +0.000 A 
ATOM     10  C   UNL     1       4.697   4.039  18.443  0.00  0.00    +0.000 A 
ATOM     11  C   UNL     1       0.926   8.534  20.731  0.00  0.00    +0.000 C 
ATOM     12  C   UNL     1       0.691  10.000  20.369  0.00  0.00    +0.000 C 
ATOM     13  C   UNL     1       0.403  10.125  18.873  0.00  0.00    +0.000 C 
ATOM     14  C   UNL     1       1.656   9.688  18.100  0.00  0.00    +0.000 C 
ENDROOT
BRANCH   7  15
ATOM     15  N   UNL     1       1.992   5.894  21.298  0.00  0.00    +0.000 N 
ATOM     16  H   UNL     1       1.006   5.664  21.297  0.00  0.00    +0.000 HD
ATOM     17  H   UNL     1       2.262   6.336  22.168  0.00  0.00    +0.000 HD
ENDBRANCH   7  15
BRANCH   1  19
ATOM     18  C   UNL     1       7.041   4.723  16.069  0.00  0.00    +0.000 C 
ATOM     19  O   UNL     1       5.773   4.126  16.315  0.00  0.00    +0.000 OA
ENDBRANCH   1  19
BRANCH  10  20
ATOM     20  O   UNL     1       5.144   2.813  18.862  0.00  0.00    +0.000 OA
ATOM     21  C   UNL     1       4.512   2.196  19.971  0.00  0.00    +0.000 C 
ENDBRANCH  10  20
BRANCH  13  22
ATOM     22  C   UNL     1       0.011  11.563  18.517  0.00  0.00    +0.000 C 
BRANCH  22  23
ATOM     23  N   UNL     1      -1.276  11.569  17.826  0.00  0.00    +0.000 NA
ATOM     24  H   UNL     1      -1.518  10.622  17.536  0.00  0.00    +0.000 HD
BRANCH  23  25
ATOM     25  C   UNL     1      -2.371  12.124  18.627  0.00  0.00    +0.000 C 
BRANCH  25  26
ATOM     26  C   UNL     1      -2.116  12.220  20.141  0.00  0.00    +0.000 C 
BRANCH  26  27
ATOM     27  O   UNL     1      -2.808  13.332  20.711  0.00  0.00    +0.000 OA
BRANCH  27  28
ATOM     28  C   UNL     1      -3.578  13.133  21.834  0.00  0.00    +0.000 A 
ATOM     29  C   UNL     1      -3.074  13.016  23.160  0.00  0.00    +0.000 A 
ATOM     30  C   UNL     1      -3.955  12.852  24.238  0.00  0.00    +0.000 A 
ATOM     31  C   UNL     1      -5.325  12.768  24.031  0.00  0.00    +0.000 A 
ATOM     32  C   UNL     1      -5.823  12.833  22.739  0.00  0.00    +0.000 A 
ATOM     33  C   UNL     1      -4.973  13.008  21.635  0.00  0.00    +0.000 A 
BRANCH  29  34
ATOM     34  O   UNL     1      -1.717  13.091  23.364  0.00  0.00    +0.000 OA
ATOM     35  C   UNL     1      -1.147  14.359  23.652  0.00  0.00    +0.000 C 
ENDBRANCH  29  34
BRANCH  33  36
ATOM     36  O   UNL     1      -5.700  13.023  20.472  0.00  0.00    +0.000 OA
ATOM     37  C   UNL     1      -6.135  11.811  19.884  0.00  0.00    +0.000 C 
ENDBRANCH  33  36
ENDBRANCH  27  28
ENDBRANCH  26  27
ENDBRANCH  25  26
ENDBRANCH  23  25
ENDBRANCH  22  23
ENDBRANCH  13  22
TORSDOF 11
ENDMDL
MODEL 4
REMARK VINA RESULT:      -6.8      1.739      3.491
REMARK  Name = 
REMARK  15 active torsions:
REMARK  status: ('A' for Active; 'I' for Inactive)
REMARK    1  A    between atoms: C_1  and  O_2
REMARK    2  A    between atoms: O_2  and  C_3
REMARK    3  A    between atoms: C_9  and  N_10
REMARK    4  A    between atoms: C_13  and  O_14
REMARK    5  A    between atoms: O_14  and  C_15
REMARK    6  A    between atoms: C_18  and  C_19
REMARK    7  A    between atoms: C_19  and  N_20
REMARK    8  A    between atoms: N_20  and  C_21
REMARK    9  A    between atoms: C_21  and  C_22
REMARK   10  A    between atoms: C_22  and  O_23
REMARK   11  A    between atoms: O_23  and  C_24
REMARK   12  A    between atoms: C_25  and  O_26
REMARK   13  A    between atoms: O_26  and  C_27
REMARK   14  A    between atoms: C_31  and  O_32
REMARK   15  A    between atoms: O_32  and  C_33
REMARK                            x       y       z     vdW  Elec       q    Type
REMARK                         _______ _______ _______ _____ _____    ______ ____
ROOT
ATOM      1  C   UNL     1       3.066   4.745  19.697  0.00  0.00    +0.000 A 
ATOM      2  C   UNL     1       2.239   5.483  20.554  0.00  0.00    +0.000 A 
ATOM      3  C   UNL     1       1.830   6.779  20.271  0.00  0.00    +0.000 A 
ATOM      4  N   UNL     1       1.054   7.389  21.169  0.00  0.00    +0.000 NA
ATOM      5  C   UNL     1       0.671   8.665  20.943  0.00  0.00    +0.000 A 
ATOM      6  C   UNL     1       1.003   9.372  19.786  0.00  0.00    +0.000 A 
ATOM      7  C   UNL     1       1.799   8.721  18.825  0.00  0.00    +0.000 A 
ATOM      8  C   UNL     1       2.256   7.401  19.086  0.00  0.00    +0.000 A 
ATOM      9  C   UNL     1       3.107   6.664  18.232  0.00  0.00    +0.000 A 
ATOM     10  C   UNL     1       3.513   5.351  18.519  0.00  0.00    +0.000 A 
ATOM     11  C   UNL     1       0.554  10.802  19.607  0.00  0.00    +0.000 C 
ATOM     12  C   UNL     1      -0.565  11.225  20.558  0.00  0.00    +0.000 C 
ATOM     13  C   UNL     1      -0.218  10.803  21.986  0.00  0.00    +0.000 C 
ATOM     14  C   UNL     1      -0.166   9.269  22.039  0.00  0.00    +0.000 C 
ENDROOT
BRANCH   7  15
ATOM     15  N   UNL     1       2.325   9.461  17.740  0.00  0.00    +0.000 N 
ATOM     16  H   UNL     1       2.265  10.466  17.838  0.00  0.00    +0.000 HD
ATOM     17  H   UNL     1       1.981   9.162  16.835  0.00  0.00    +0.000 HD
ENDBRANCH   7  15
BRANCH   1  19
ATOM     18  C   UNL     1       2.656   2.403  19.549  0.00  0.00    +0.000 C 
ATOM     19  O   UNL     1       3.481   3.474  19.993  0.00  0.00    +0.000 OA
ENDBRANCH   1  19
BRANCH  10  20
ATOM     20  O   UNL     1       4.320   4.842  17.536  0.00  0.00    +0.000 OA
ATOM     21  C   UNL     1       5.000   5.739  16.674  0.00  0.00    +0.000 C 
ENDBRANCH  10  20
BRANCH  13  22
ATOM     22  C   UNL     1      -1.249  11.353  22.978  0.00  0.00    +0.000 C 
BRANCH  22  23
ATOM     23  N   UNL     1      -1.287  12.810  22.897  0.00  0.00    +0.000 NA
ATOM     24  H   UNL     1      -0.729  13.128  22.104  0.00  0.00    +0.000 HD
BRANCH  23  25
ATOM     25  C   UNL     1      -2.642  13.359  22.785  0.00  0.00    +0.000 C 
BRANCH  25  26
ATOM     26  C   UNL     1      -3.649  12.507  21.996  0.00  0.00    +0.000 C 
BRANCH  26  27
ATOM     27  O   UNL     1      -3.837  13.020  20.676  0.00  0.00    +0.000 OA
BRANCH  27  28
ATOM     28  C   UNL     1      -4.870  12.530  19.910  0.00  0.00    +0.000 A 
ATOM     29  C   UNL     1      -6.250  12.792  20.138  0.00  0.00    +0.000 A 
ATOM     30  C   UNL     1      -7.220  12.270  19.269  0.00  0.00    +0.000 A 
ATOM     31  C   UNL     1      -6.857  11.466  18.198  0.00  0.00    +0.000 A 
ATOM     32  C   UNL     1      -5.518  11.166  17.995  0.00  0.00    +0.000 A 
ATOM     33  C   UNL     1      -4.518  11.678  18.837  0.00  0.00    +0.000 A 
BRANCH  29  34
ATOM     34  O   UNL     1      -6.610  13.581  21.203  0.00  0.00    +0.000 OA
ATOM     35  C   UNL     1      -7.012  14.919  20.947  0.00  0.00    +0.000 C 
ENDBRANCH  29  34
BRANCH  33  36
ATOM     36  O   UNL     1      -3.285  11.225  18.442  0.00  0.00    +0.000 OA
ATOM     37  C   UNL     1      -2.882  11.336  17.090  0.00  0.00    +0.000 C 
ENDBRANCH  33  36
ENDBRANCH  27  28
ENDBRANCH  26  27
ENDBRANCH  25  26
ENDBRANCH  23  25
ENDBRANCH  22  23
ENDBRANCH  13  22
TORSDOF 11
ENDMDL
MODEL 5
REMARK VINA RESULT:      -6.7      2.391      4.012
REMARK  Name = 
REMARK  15 active torsions:
REMARK  status: ('A' for Active; 'I' for Inactive)
REMARK    1  A    between atoms: C_1  and  O_2
REMARK    2  A    between atoms: O_2  and  C_3
REMARK    3  A    between atoms: C_9  and  N_10
REMARK    4  A    between atoms: C_13  and  O_14
REMARK    5  A    between atoms: O_14  and  C_15
REMARK    6  A    between atoms: C_18  and  C_19
REMARK    7  A    between atoms: C_19  and  N_20
REMARK    8  A    between atoms: N_20  and  C_21
REMARK    9  A    between atoms: C_21  and  C_22
REMARK   10  A    between atoms: C_22  and  O_23
REMARK   11  A    between atoms: O_23  and  C_24
REMARK   12  A    between atoms: C_25  and  O_26
REMARK   13  A    between atoms: O_26  and  C_27
REMARK   14  A    between atoms: C_31  and  O_32
REMARK   15  A    between atoms: O_32  and  C_33
REMARK                            x       y       z     vdW  Elec       q    Type
REMARK                         _______ _______ _______ _____ _____    ______ ____
ROOT
ATOM      1  C   UNL     1       3.675   5.077  19.008  0.00  0.00    +0.000 A 
ATOM      2  C   UNL     1       2.856   5.646  19.992  0.00  0.00    +0.000 A 
ATOM      3  C   UNL     1       2.245   6.883  19.837  0.00  0.00    +0.000 A 
ATOM      4  N   UNL     1       1.498   7.331  20.847  0.00  0.00    +0.000 NA
ATOM      5  C   UNL     1       0.922   8.549  20.745  0.00  0.00    +0.000 A 
ATOM      6  C   UNL     1       1.024   9.353  19.609  0.00  0.00    +0.000 A 
ATOM      7  C   UNL     1       1.790   8.871  18.530  0.00  0.00    +0.000 A 
ATOM      8  C   UNL     1       2.449   7.618  18.657  0.00  0.00    +0.000 A 
ATOM      9  C   UNL     1       3.292   7.052  17.674  0.00  0.00    +0.000 A 
ATOM     10  C   UNL     1       3.903   5.798  17.832  0.00  0.00    +0.000 A 
ATOM     11  C   UNL     1       0.367  10.712  19.569  0.00  0.00    +0.000 C 
ATOM     12  C   UNL     1      -0.686  10.923  20.656  0.00  0.00    +0.000 C 
ATOM     13  C   UNL     1      -0.129  10.485  22.011  0.00  0.00    +0.000 C 
ATOM     14  C   UNL     1       0.138   8.973  21.958  0.00  0.00    +0.000 C 
ENDROOT
BRANCH   7  15
ATOM     15  N   UNL     1       2.087   9.731  17.447  0.00  0.00    +0.000 N 
ATOM     16  H   UNL     1       2.613  10.560  17.690  0.00  0.00    +0.000 HD
ATOM     17  H   UNL     1       1.282   9.964  16.877  0.00  0.00    +0.000 HD
ENDBRANCH   7  15
BRANCH   1  19
ATOM     18  C   UNL     1       3.659   2.934  20.048  0.00  0.00    +0.000 C 
ATOM     19  O   UNL     1       4.290   3.865  19.177  0.00  0.00    +0.000 OA
ENDBRANCH   1  19
BRANCH  10  20
ATOM     20  O   UNL     1       4.657   5.458  16.741  0.00  0.00    +0.000 OA
ATOM     21  C   UNL     1       6.067   5.400  16.873  0.00  0.00    +0.000 C 
ENDBRANCH  10  20
BRANCH  13  22
ATOM     22  C   UNL     1      -1.108  10.832  23.136  0.00  0.00    +0.000 C 
BRANCH  22  23
ATOM     23  N   UNL     1      -1.882  12.016  22.773  0.00  0.00    +0.000 NA
ATOM     24  H   UNL     1      -2.841  11.919  23.105  0.00  0.00    +0.000 HD
BRANCH  23  25
ATOM     25  C   UNL     1      -1.316  13.268  23.285  0.00  0.00    +0.000 C 
BRANCH  25  26
ATOM     26  C   UNL     1      -2.333  14.331  23.733  0.00  0.00    +0.000 C 
BRANCH  26  27
ATOM     27  O   UNL     1      -3.287  14.599  22.704  0.00  0.00    +0.000 OA
BRANCH  27  28
ATOM     28  C   UNL     1      -4.627  14.587  23.015  0.00  0.00    +0.000 A 
ATOM     29  C   UNL     1      -5.509  13.496  22.781  0.00  0.00    +0.000 A 
ATOM     30  C   UNL     1      -6.853  13.577  23.174  0.00  0.00    +0.000 A 
ATOM     31  C   UNL     1      -7.353  14.730  23.764  0.00  0.00    +0.000 A 
ATOM     32  C   UNL     1      -6.513  15.817  23.954  0.00  0.00    +0.000 A 
ATOM     33  C   UNL     1      -5.159  15.768  23.583  0.00  0.00    +0.000 A 
BRANCH  29  34
ATOM     34  O   UNL     1      -5.017  12.358  22.189  0.00  0.00    +0.000 OA
ATOM     35  C   UNL     1      -5.092  12.245  20.775  0.00  0.00    +0.000 C 
ENDBRANCH  29  34
BRANCH  33  36
ATOM     36  O   UNL     1      -4.548  16.966  23.854  0.00  0.00    +0.000 OA
ATOM     37  C   UNL     1      -4.232  17.322  25.187  0.00  0.00    +0.000 C 
ENDBRANCH  33  36
ENDBRANCH  27  28
ENDBRANCH  26  27
ENDBRANCH  25  26
ENDBRANCH  23  25
ENDBRANCH  22  23
ENDBRANCH  13  22
TORSDOF 11
ENDMDL
MODEL 6
REMARK VINA RESULT:      -6.7      1.160      2.057
REMARK  Name = 
REMARK  15 active torsions:
REMARK  status: ('A' for Active; 'I' for Inactive)
REMARK    1  A    between atoms: C_1  and  O_2
REMARK    2  A    between atoms: O_2  and  C_3
REMARK    3  A    between atoms: C_9  and  N_10
REMARK    4  A    between atoms: C_13  and  O_14
REMARK    5  A    between atoms: O_14  and  C_15
REMARK    6  A    between atoms: C_18  and  C_19
REMARK    7  A    between atoms: C_19  and  N_20
REMARK    8  A    between atoms: N_20  and  C_21
REMARK    9  A    between atoms: C_21  and  C_22
REMARK   10  A    between atoms: C_22  and  O_23
REMARK   11  A    between atoms: O_23  and  C_24
REMARK   12  A    between atoms: C_25  and  O_26
REMARK   13  A    between atoms: O_26  and  C_27
REMARK   14  A    between atoms: C_31  and  O_32
REMARK   15  A    between atoms: O_32  and  C_33
REMARK                            x       y       z     vdW  Elec       q    Type
REMARK                         _______ _______ _______ _____ _____    ______ ____
ROOT
ATOM      1  C   UNL     1       4.847   4.799  17.159  0.00  0.00    +0.000 A 
ATOM      2  C   UNL     1       4.284   6.074  17.017  0.00  0.00    +0.000 A 
ATOM      3  C   UNL     1       3.464   6.643  17.981  0.00  0.00    +0.000 A 
ATOM      4  N   UNL     1       2.973   7.859  17.731  0.00  0.00    +0.000 NA
ATOM      5  C   UNL     1       2.138   8.425  18.630  0.00  0.00    +0.000 A 
ATOM      6  C   UNL     1       1.796   7.825  19.843  0.00  0.00    +0.000 A 
ATOM      7  C   UNL     1       2.334   6.554  20.121  0.00  0.00    +0.000 A 
ATOM      8  C   UNL     1       3.163   5.928  19.152  0.00  0.00    +0.000 A 
ATOM      9  C   UNL     1       3.714   4.633  19.284  0.00  0.00    +0.000 A 
ATOM     10  C   UNL     1       4.549   4.063  18.310  0.00  0.00    +0.000 A 
ATOM     11  C   UNL     1       0.844   8.509  20.794  0.00  0.00    +0.000 C 
ATOM     12  C   UNL     1       0.638   9.995  20.504  0.00  0.00    +0.000 C 
ATOM     13  C   UNL     1       0.361  10.199  19.014  0.00  0.00    +0.000 C 
ATOM     14  C   UNL     1       1.611   9.777  18.228  0.00  0.00    +0.000 C 
ENDROOT
BRANCH   7  15
ATOM     15  N   UNL     1       1.859   5.826  21.237  0.00  0.00    +0.000 N 
ATOM     16  H   UNL     1       1.105   5.181  21.038  0.00  0.00    +0.000 HD
ATOM     17  H   UNL     1       1.641   6.403  22.040  0.00  0.00    +0.000 HD
ENDBRANCH   7  15
BRANCH   1  19
ATOM     18  C   UNL     1       5.517   4.750  14.873  0.00  0.00    +0.000 C 
ATOM     19  O   UNL     1       5.640   4.236  16.195  0.00  0.00    +0.000 OA
ENDBRANCH   1  19
BRANCH  10  20
ATOM     20  O   UNL     1       4.971   2.811  18.671  0.00  0.00    +0.000 OA
ATOM     21  C   UNL     1       4.449   2.227  19.853  0.00  0.00    +0.000 C 
ENDBRANCH  10  20
BRANCH  13  22
ATOM     22  C   UNL     1      -0.002  11.659  18.727  0.00  0.00    +0.000 C 
BRANCH  22  23
ATOM     23  N   UNL     1      -1.202  12.027  19.474  0.00  0.00    +0.000 NA
ATOM     24  H   UNL     1      -1.294  11.432  20.297  0.00  0.00    +0.000 HD
BRANCH  23  25
ATOM     25  C   UNL     1      -1.229  13.434  19.888  0.00  0.00    +0.000 C 
BRANCH  25  26
ATOM     26  C   UNL     1      -2.482  13.884  20.658  0.00  0.00    +0.000 C 
BRANCH  26  27
ATOM     27  O   UNL     1      -3.281  12.764  21.042  0.00  0.00    +0.000 OA
BRANCH  27  28
ATOM     28  C   UNL     1      -4.583  12.691  20.604  0.00  0.00    +0.000 A 
ATOM     29  C   UNL     1      -4.985  12.256  19.310  0.00  0.00    +0.000 A 
ATOM     30  C   UNL     1      -6.347  12.186  18.980  0.00  0.00    +0.000 A 
ATOM     31  C   UNL     1      -7.320  12.569  19.892  0.00  0.00    +0.000 A 
ATOM     32  C   UNL     1      -6.937  13.039  21.139  0.00  0.00    +0.000 A 
ATOM     33  C   UNL     1      -5.584  13.114  21.509  0.00  0.00    +0.000 A 
BRANCH  29  34
ATOM     34  O   UNL     1      -4.021  11.885  18.404  0.00  0.00    +0.000 OA
ATOM     35  C   UNL     1      -4.339  10.879  17.454  0.00  0.00    +0.000 C 
ENDBRANCH  29  34
BRANCH  33  36
ATOM     36  O   UNL     1      -5.465  13.625  22.776  0.00  0.00    +0.000 OA
ATOM     37  C   UNL     1      -6.039  12.948  23.878  0.00  0.00    +0.000 C 
ENDBRANCH  33  36
ENDBRANCH  27  28
ENDBRANCH  26  27
ENDBRANCH  25  26
ENDBRANCH  23  25
ENDBRANCH  22  23
ENDBRANCH  13  22
TORSDOF 11
ENDMDL
MODEL 7
REMARK VINA RESULT:      -6.7      1.047      2.404
REMARK  Name = 
REMARK  15 active torsions:
REMARK  status: ('A' for Active; 'I' for Inactive)
REMARK    1  A    between atoms: C_1  and  O_2
REMARK    2  A    between atoms: O_2  and  C_3
REMARK    3  A    between atoms: C_9  and  N_10
REMARK    4  A    between atoms: C_13  and  O_14
REMARK    5  A    between atoms: O_14  and  C_15
REMARK    6  A    between atoms: C_18  and  C_19
REMARK    7  A    between atoms: C_19  and  N_20
REMARK    8  A    between atoms: N_20  and  C_21
REMARK    9  A    between atoms: C_21  and  C_22
REMARK   10  A    between atoms: C_22  and  O_23
REMARK   11  A    between atoms: O_23  and  C_24
REMARK   12  A    between atoms: C_25  and  O_26
REMARK   13  A    between atoms: O_26  and  C_27
REMARK   14  A    between atoms: C_31  and  O_32
REMARK   15  A    between atoms: O_32  and  C_33
REMARK                            x       y       z     vdW  Elec       q    Type
REMARK                         _______ _______ _______ _____ _____    ______ ____
ROOT
ATOM      1  C   UNL     1       4.632   5.355  17.250  0.00  0.00    +0.000 A 
ATOM      2  C   UNL     1       4.057   6.617  17.048  0.00  0.00    +0.000 A 
ATOM      3  C   UNL     1       3.222   7.218  17.979  0.00  0.00    +0.000 A 
ATOM      4  N   UNL     1       2.721   8.416  17.673  0.00  0.00    +0.000 NA
ATOM      5  C   UNL     1       1.872   9.011  18.539  0.00  0.00    +0.000 A 
ATOM      6  C   UNL     1       1.525   8.460  19.774  0.00  0.00    +0.000 A 
ATOM      7  C   UNL     1       2.073   7.208  20.111  0.00  0.00    +0.000 A 
ATOM      8  C   UNL     1       2.918   6.550  19.177  0.00  0.00    +0.000 A 
ATOM      9  C   UNL     1       3.481   5.268  19.370  0.00  0.00    +0.000 A 
ATOM     10  C   UNL     1       4.331   4.666  18.429  0.00  0.00    +0.000 A 
ATOM     11  C   UNL     1       0.557   9.174  20.687  0.00  0.00    +0.000 C 
ATOM     12  C   UNL     1       0.337  10.643  20.331  0.00  0.00    +0.000 C 
ATOM     13  C   UNL     1       0.072  10.780  18.832  0.00  0.00    +0.000 C 
ATOM     14  C   UNL     1       1.334  10.338  18.075  0.00  0.00    +0.000 C 
ENDROOT
BRANCH   7  15
ATOM     15  N   UNL     1       1.596   6.523  21.254  0.00  0.00    +0.000 N 
ATOM     16  H   UNL     1       1.555   5.516  21.163  0.00  0.00    +0.000 HD
ATOM     17  H   UNL     1       0.725   6.891  21.617  0.00  0.00    +0.000 HD
ENDBRANCH   7  15
BRANCH   1  19
ATOM     18  C   UNL     1       6.757   5.278  16.176  0.00  0.00    +0.000 C 
ATOM     19  O   UNL     1       5.439   4.759  16.317  0.00  0.00    +0.000 OA
ENDBRANCH   1  19
BRANCH  10  20
ATOM     20  O   UNL     1       4.763   3.436  18.847  0.00  0.00    +0.000 OA
ATOM     21  C   UNL     1       3.817   2.388  18.983  0.00  0.00    +0.000 C 
ENDBRANCH  10  20
BRANCH  13  22
ATOM     22  C   UNL     1      -0.304  12.222  18.478  0.00  0.00    +0.000 C 
BRANCH  22  23
ATOM     23  N   UNL     1      -1.578  12.242  17.765  0.00  0.00    +0.000 NA
ATOM     24  H   UNL     1      -1.519  11.654  16.933  0.00  0.00    +0.000 HD
BRANCH  23  25
ATOM     25  C   UNL     1      -2.717  11.809  18.582  0.00  0.00    +0.000 C 
BRANCH  25  26
ATOM     26  C   UNL     1      -3.116  12.751  19.730  0.00  0.00    +0.000 C 
BRANCH  26  27
ATOM     27  O   UNL     1      -3.820  12.047  20.754  0.00  0.00    +0.000 OA
BRANCH  27  28
ATOM     28  C   UNL     1      -5.057  12.503  21.148  0.00  0.00    +0.000 A 
ATOM     29  C   UNL     1      -5.294  13.368  22.253  0.00  0.00    +0.000 A 
ATOM     30  C   UNL     1      -6.595  13.802  22.544  0.00  0.00    +0.000 A 
ATOM     31  C   UNL     1      -7.675  13.372  21.785  0.00  0.00    +0.000 A 
ATOM     32  C   UNL     1      -7.461  12.491  20.736  0.00  0.00    +0.000 A 
ATOM     33  C   UNL     1      -6.171  12.043  20.408  0.00  0.00    +0.000 A 
BRANCH  29  34
ATOM     34  O   UNL     1      -4.226  13.787  23.010  0.00  0.00    +0.000 OA
ATOM     35  C   UNL     1      -3.976  13.134  24.245  0.00  0.00    +0.000 C 
ENDBRANCH  29  34
BRANCH  33  36
ATOM     36  O   UNL     1      -6.224  11.171  19.351  0.00  0.00    +0.000 OA
ATOM     37  C   UNL     1      -6.530  11.639  18.051  0.00  0.00    +0.000 C 
ENDBRANCH  33  36
ENDBRANCH  27  28
ENDBRANCH  26  27
ENDBRANCH  25  26
ENDBRANCH  23  25
ENDBRANCH  22  23
ENDBRANCH  13  22
TORSDOF 11
ENDMDL
MODEL 8
REMARK VINA RESULT:      -6.6      3.299     10.934
REMARK  Name = 
REMARK  15 active torsions:
REMARK  status: ('A' for Active; 'I' for Inactive)
REMARK    1  A    between atoms: C_1  and  O_2
REMARK    2  A    between atoms: O_2  and  C_3
REMARK    3  A    between atoms: C_9  and  N_10
REMARK    4  A    between atoms: C_13  and  O_14
REMARK    5  A    between atoms: O_14  and  C_15
REMARK    6  A    between atoms: C_18  and  C_19
REMARK    7  A    between atoms: C_19  and  N_20
REMARK    8  A    between atoms: N_20  and  C_21
REMARK    9  A    between atoms: C_21  and  C_22
REMARK   10  A    between atoms: C_22  and  O_23
REMARK   11  A    between atoms: O_23  and  C_24
REMARK   12  A    between atoms: C_25  and  O_26
REMARK   13  A    between atoms: O_26  and  C_27
REMARK   14  A    between atoms: C_31  and  O_32
REMARK   15  A    between atoms: O_32  and  C_33
REMARK                            x       y       z     vdW  Elec       q    Type
REMARK                         _______ _______ _______ _____ _____    ______ ____
ROOT
ATOM      1  C   UNL     1      -0.770  11.508  22.485  0.00  0.00    +0.000 A 
ATOM      2  C   UNL     1      -0.244  10.209  22.463  0.00  0.00    +0.000 A 
ATOM      3  C   UNL     1       0.423   9.688  21.363  0.00  0.00    +0.000 A 
ATOM      4  N   UNL     1       0.869   8.434  21.451  0.00  0.00    +0.000 NA
ATOM      5  C   UNL     1       1.486   7.882  20.384  0.00  0.00    +0.000 A 
ATOM      6  C   UNL     1       1.733   8.575  19.197  0.00  0.00    +0.000 A 
ATOM      7  C   UNL     1       1.287   9.908  19.111  0.00  0.00    +0.000 A 
ATOM      8  C   UNL     1       0.583  10.473  20.208  0.00  0.00    +0.000 A 
ATOM      9  C   UNL     1       0.033  11.774  20.224  0.00  0.00    +0.000 A 
ATOM     10  C   UNL     1      -0.635  12.300  21.341  0.00  0.00    +0.000 A 
ATOM     11  C   UNL     1       2.415   7.891  18.037  0.00  0.00    +0.000 C 
ATOM     12  C   UNL     1       3.125   6.591  18.415  0.00  0.00    +0.000 C 
ATOM     13  C   UNL     1       2.197   5.718  19.258  0.00  0.00    +0.000 C 
ATOM     14  C   UNL     1       1.910   6.450  20.578  0.00  0.00    +0.000 C 
ENDROOT
BRANCH   7  15
ATOM     15  N   UNL     1       1.334  10.579  17.867  0.00  0.00    +0.000 N 
ATOM     16  H   UNL     1       0.546  11.184  17.676  0.00  0.00    +0.000 HD
ATOM     17  H   UNL     1       1.524   9.970  17.080  0.00  0.00    +0.000 HD
ENDBRANCH   7  15
BRANCH   1  19
ATOM     18  C   UNL     1      -2.851  12.174  23.434  0.00  0.00    +0.000 C 
ATOM     19  O   UNL     1      -1.444  12.008  23.567  0.00  0.00    +0.000 OA
ENDBRANCH   1  19
BRANCH  10  20
ATOM     20  O   UNL     1      -1.061  13.583  21.122  0.00  0.00    +0.000 OA
ATOM     21  C   UNL     1      -0.273  14.438  20.309  0.00  0.00    +0.000 C 
ENDBRANCH  10  20
BRANCH  13  22
ATOM     22  C   UNL     1       2.830   4.347  19.516  0.00  0.00    +0.000 C 
BRANCH  22  23
ATOM     23  N   UNL     1       1.974   3.296  18.973  0.00  0.00    +0.000 NA
ATOM     24  H   UNL     1       1.103   3.701  18.629  0.00  0.00    +0.000 HD
BRANCH  23  25
ATOM     25  C   UNL     1       2.603   2.521  17.899  0.00  0.00    +0.000 C 
BRANCH  25  26
ATOM     26  C   UNL     1       3.322   3.339  16.812  0.00  0.00    +0.000 C 
BRANCH  26  27
ATOM     27  O   UNL     1       4.710   3.007  16.749  0.00  0.00    +0.000 OA
BRANCH  27  28
ATOM     28  C   UNL     1       5.612   3.977  16.382  0.00  0.00    +0.000 A 
ATOM     29  C   UNL     1       6.253   4.877  17.279  0.00  0.00    +0.000 A 
ATOM     30  C   UNL     1       7.189   5.806  16.799  0.00  0.00    +0.000 A 
ATOM     31  C   UNL     1       7.479   5.888  15.444  0.00  0.00    +0.000 A 
ATOM     32  C   UNL     1       6.824   5.048  14.556  0.00  0.00    +0.000 A 
ATOM     33  C   UNL     1       5.890   4.098  15.000  0.00  0.00    +0.000 A 
BRANCH  29  34
ATOM     34  O   UNL     1       5.960   4.802  18.619  0.00  0.00    +0.000 OA
ATOM     35  C   UNL     1       6.841   5.428  19.540  0.00  0.00    +0.000 C 
ENDBRANCH  29  34
BRANCH  33  36
ATOM     36  O   UNL     1       5.371   3.407  13.936  0.00  0.00    +0.000 OA
ATOM     37  C   UNL     1       5.989   3.481  12.664  0.00  0.00    +0.000 C 
ENDBRANCH  33  36
ENDBRANCH  27  28
ENDBRANCH  26  27
ENDBRANCH  25  26
ENDBRANCH  23  25
ENDBRANCH  22  23
ENDBRANCH  13  22
TORSDOF 11
ENDMDL
MODEL 9
REMARK VINA RESULT:      -6.6      1.218      2.400
REMARK  Name = 
REMARK  15 active torsions:
REMARK  status: ('A' for Active; 'I' for Inactive)
REMARK    1  A    between atoms: C_1  and  O_2
REMARK    2  A    between atoms: O_2  and  C_3
REMARK    3  A    between atoms: C_9  and  N_10
REMARK    4  A    between atoms: C_13  and  O_14
REMARK    5  A    between atoms: O_14  and  C_15
REMARK    6  A    between atoms: C_18  and  C_19
REMARK    7  A    between atoms: C_19  and  N_20
REMARK    8  A    between atoms: N_20  and  C_21
REMARK    9  A    between atoms: C_21  and  C_22
REMARK   10  A    between atoms: C_22  and  O_23
REMARK   11  A    between atoms: O_23  and  C_24
REMARK   12  A    between atoms: C_25  and  O_26
REMARK   13  A    between atoms: O_26  and  C_27
REMARK   14  A    between atoms: C_31  and  O_32
REMARK   15  A    between atoms: O_32  and  C_33
REMARK                            x       y       z     vdW  Elec       q    Type
REMARK                         _______ _______ _______ _____ _____    ______ ____
ROOT
ATOM      1  C   UNL     1       4.512   5.422  16.872  0.00  0.00    +0.000 A 
ATOM      2  C   UNL     1       4.005   6.728  16.835  0.00  0.00    +0.000 A 
ATOM      3  C   UNL     1       3.228   7.259  17.855  0.00  0.00    +0.000 A 
ATOM      4  N   UNL     1       2.788   8.510  17.705  0.00  0.00    +0.000 NA
ATOM      5  C   UNL     1       1.995   9.044  18.660  0.00  0.00    +0.000 A 
ATOM      6  C   UNL     1       1.648   8.371  19.833  0.00  0.00    +0.000 A 
ATOM      7  C   UNL     1       2.133   7.061  20.006  0.00  0.00    +0.000 A 
ATOM      8  C   UNL     1       2.916   6.472  18.977  0.00  0.00    +0.000 A 
ATOM      9  C   UNL     1       3.410   5.149  19.002  0.00  0.00    +0.000 A 
ATOM     10  C   UNL     1       4.202   4.617  17.972  0.00  0.00    +0.000 A 
ATOM     11  C   UNL     1       0.745   9.023  20.852  0.00  0.00    +0.000 C 
ATOM     12  C   UNL     1       0.600  10.534  20.676  0.00  0.00    +0.000 C 
ATOM     13  C   UNL     1       0.307  10.860  19.211  0.00  0.00    +0.000 C 
ATOM     14  C   UNL     1       1.522  10.443  18.370  0.00  0.00    +0.000 C 
ENDROOT
BRANCH   7  15
ATOM     15  N   UNL     1       1.645   6.273  21.076  0.00  0.00    +0.000 N 
ATOM     16  H   UNL     1       1.416   6.787  21.916  0.00  0.00    +0.000 HD
ATOM     17  H   UNL     1       2.222   5.468  21.287  0.00  0.00    +0.000 HD
ENDBRANCH   7  15
BRANCH   1  19
ATOM     18  C   UNL     1       6.676   4.995  15.972  0.00  0.00    +0.000 C 
ATOM     19  O   UNL     1       5.261   4.898  15.852  0.00  0.00    +0.000 OA
ENDBRANCH   1  19
BRANCH  10  20
ATOM     20  O   UNL     1       4.573   3.325  18.231  0.00  0.00    +0.000 OA
ATOM     21  C   UNL     1       4.581   2.870  19.574  0.00  0.00    +0.000 C 
ENDBRANCH  10  20
BRANCH  13  22
ATOM     22  C   UNL     1       0.004  12.352  19.039  0.00  0.00    +0.000 C 
BRANCH  22  23
ATOM     23  N   UNL     1      -0.506  12.902  20.292  0.00  0.00    +0.000 NA
ATOM     24  H   UNL     1       0.199  13.505  20.718  0.00  0.00    +0.000 HD
BRANCH  23  25
ATOM     25  C   UNL     1      -1.756  13.652  20.140  0.00  0.00    +0.000 C 
BRANCH  25  26
ATOM     26  C   UNL     1      -2.921  13.207  21.040  0.00  0.00    +0.000 C 
BRANCH  26  27
ATOM     27  O   UNL     1      -4.170  13.696  20.548  0.00  0.00    +0.000 OA
BRANCH  27  28
ATOM     28  C   UNL     1      -5.241  12.836  20.474  0.00  0.00    +0.000 A 
ATOM     29  C   UNL     1      -6.225  12.669  21.488  0.00  0.00    +0.000 A 
ATOM     30  C   UNL     1      -7.299  11.789  21.290  0.00  0.00    +0.000 A 
ATOM     31  C   UNL     1      -7.403  11.043  20.124  0.00  0.00    +0.000 A 
ATOM     32  C   UNL     1      -6.423  11.163  19.151  0.00  0.00    +0.000 A 
ATOM     33  C   UNL     1      -5.339  12.042  19.308  0.00  0.00    +0.000 A 
BRANCH  29  34
ATOM     34  O   UNL     1      -6.118  13.401  22.645  0.00  0.00    +0.000 OA
ATOM     35  C   UNL     1      -6.019  12.703  23.878  0.00  0.00    +0.000 C 
ENDBRANCH  29  34
BRANCH  33  36
ATOM     36  O   UNL     1      -4.504  11.965  18.223  0.00  0.00    +0.000 OA
ATOM     37  C   UNL     1      -4.949  11.372  17.017  0.00  0.00    +0.000 C 
ENDBRANCH  33  36
ENDBRANCH  27  28
ENDBRANCH  26  27
ENDBRANCH  25  26
ENDBRANCH  23  25
ENDBRANCH  22  23
ENDBRANCH  13  22
TORSDOF 11
ENDMDL
