MODEL 1
REMARK VINA RESULT:      -8.6      0.000      0.000
REMARK  Name = 
REMARK  5 active torsions:
REMARK  status: ('A' for Active; 'I' for Inactive)
REMARK    1  A    between atoms: S_2  and  N_4
REMARK    2  A    between atoms: S_2  and  C_10
REMARK    3  A    between atoms: C_13  and  O_14
REMARK    4  A    between atoms: O_14  and  C_15
REMARK    5  A    between atoms: C_21  and  C_22
REMARK                            x       y       z     vdW  Elec       q    Type
REMARK                         _______ _______ _______ _____ _____    ______ ____
ROOT
ATOM      1  C   UNL     1       0.880   8.807  20.754  0.00  0.00    +0.000 A 
ATOM      2  C   UNL     1       1.465   7.551  20.945  0.00  0.00    +0.000 A 
ATOM      3  C   UNL     1       2.230   6.982  19.924  0.00  0.00    +0.000 A 
ATOM      4  C   UNL     1       2.395   7.660  18.715  0.00  0.00    +0.000 A 
ATOM      5  C   UNL     1       1.698   8.858  18.501  0.00  0.00    +0.000 A 
ATOM      6  F   UNL     1       1.734   9.478  17.314  0.00  0.00    +0.000 F 
ATOM      7  C   UNL     1       0.976   9.458  19.525  0.00  0.00    +0.000 A 
ENDROOT
BRANCH   1   9
ATOM      8  O   UNL     1       0.959  10.103  23.009  0.00  0.00    +0.000 OA
ATOM      9  S   UNL     1      -0.007   9.556  22.091  0.00  0.00    +0.000 S 
ATOM     10  O   UNL     1      -1.010   8.605  22.535  0.00  0.00    +0.000 OA
BRANCH   9  11
ATOM     11  N   UNL     1      -0.897  10.760  21.305  0.00  0.00    +0.000 N 
ATOM     12  C   UNL     1      -0.528  12.053  21.735  0.00  0.00    +0.000 A 
ATOM     13  N   UNL     1       0.445  12.698  21.142  0.00  0.00    +0.000 NA
ATOM     14  C   UNL     1       0.526  13.973  21.672  0.00  0.00    +0.000 A 
ATOM     15  C   UNL     1      -0.382  14.263  22.669  0.00  0.00    +0.000 A 
ATOM     16  S   UNL     1      -1.420  12.917  22.907  0.00  0.00    +0.000 S 
ATOM     17  H   UNL     1      -1.877  10.559  21.512  0.00  0.00    +0.000 HD
ENDBRANCH   9  11
ENDBRANCH   1   9
BRANCH   4  18
ATOM     18  O   UNL     1       3.229   7.049  17.805  0.00  0.00    +0.000 OA
BRANCH  18  19
ATOM     19  C   UNL     1       3.343   5.670  17.781  0.00  0.00    +0.000 A 
ATOM     20  C   UNL     1       2.224   4.830  17.668  0.00  0.00    +0.000 A 
ATOM     21  C   UNL     1       2.361   3.449  17.780  0.00  0.00    +0.000 A 
ATOM     22  C   UNL     1       3.628   2.898  17.914  0.00  0.00    +0.000 A 
ATOM     23 CL   UNL     1       3.799   1.197  18.100  0.00  0.00    +0.000 Cl
ATOM     24  C   UNL     1       4.761   3.715  17.900  0.00  0.00    +0.000 A 
ATOM     25  C   UNL     1       4.640   5.114  17.831  0.00  0.00    +0.000 A 
BRANCH  25  26
ATOM     26  C   UNL     1       5.865   5.926  17.810  0.00  0.00    +0.000 A 
ATOM     27  C   UNL     1       7.000   5.898  18.602  0.00  0.00    +0.000 A 
ATOM     28  C   UNL     1       7.833   6.917  18.107  0.00  0.00    +0.000 A 
ATOM     29  N   UNL     1       7.286   7.557  17.075  0.00  0.00    +0.000 NA
ATOM     30  N   UNL     1       6.102   6.941  16.915  0.00  0.00    +0.000 N 
ATOM     31  H   UNL     1       5.491   7.253  16.167  0.00  0.00    +0.000 HD
ENDBRANCH  25  26
ENDBRANCH  18  19
ENDBRANCH   4  18
TORSDOF 5
ENDMDL
MODEL 2
REMARK VINA RESULT:      -8.5      4.166      8.708
REMARK  Name = 
REMARK  5 active torsions:
REMARK  status: ('A' for Active; 'I' for Inactive)
REMARK    1  A    between atoms: S_2  and  N_4
REMARK    2  A    between atoms: S_2  and  C_10
REMARK    3  A    between atoms: C_13  and  O_14
REMARK    4  A    between atoms: O_14  and  C_15
REMARK    5  A    between atoms: C_21  and  C_22
REMARK                            x       y       z     vdW  Elec       q    Type
REMARK                         _______ _______ _______ _____ _____    ______ ____
ROOT
ATOM      1  C   UNL     1       2.881   7.225  18.676  0.00  0.00    +0.000 A 
ATOM      2  C   UNL     1       2.707   8.215  17.702  0.00  0.00    +0.000 A 
ATOM      3  C   UNL     1       1.891   9.316  17.974  0.00  0.00    +0.000 A 
ATOM      4  C   UNL     1       1.242   9.418  19.206  0.00  0.00    +0.000 A 
ATOM      5  C   UNL     1       1.333   8.354  20.117  0.00  0.00    +0.000 A 
ATOM      6  F   UNL     1       0.631   8.359  21.257  0.00  0.00    +0.000 F 
ATOM      7  C   UNL     1       2.179   7.279  19.880  0.00  0.00    +0.000 A 
ENDROOT
BRANCH   1   9
ATOM      8  O   UNL     1       4.329   5.277  19.614  0.00  0.00    +0.000 OA
ATOM      9  S   UNL     1       3.993   5.886  18.353  0.00  0.00    +0.000 S 
ATOM     10  O   UNL     1       5.024   6.383  17.459  0.00  0.00    +0.000 OA
BRANCH   9  11
ATOM     11  N   UNL     1       3.057   4.867  17.379  0.00  0.00    +0.000 N 
ATOM     12  C   UNL     1       2.481   3.814  18.121  0.00  0.00    +0.000 A 
ATOM     13  N   UNL     1       1.315   3.966  18.695  0.00  0.00    +0.000 NA
ATOM     14  C   UNL     1       0.928   2.761  19.253  0.00  0.00    +0.000 A 
ATOM     15  C   UNL     1       1.821   1.720  19.101  0.00  0.00    +0.000 A 
ATOM     16  S   UNL     1       3.161   2.248  18.169  0.00  0.00    +0.000 S 
ATOM     17  H   UNL     1       3.690   4.518  16.657  0.00  0.00    +0.000 HD
ENDBRANCH   9  11
ENDBRANCH   1   9
BRANCH   4  18
ATOM     18  O   UNL     1       0.524  10.576  19.401  0.00  0.00    +0.000 OA
BRANCH  18  19
ATOM     19  C   UNL     1      -0.736  10.717  18.848  0.00  0.00    +0.000 A 
ATOM     20  C   UNL     1      -1.112  10.053  17.670  0.00  0.00    +0.000 A 
ATOM     21  C   UNL     1      -2.339  10.318  17.068  0.00  0.00    +0.000 A 
ATOM     22  C   UNL     1      -3.232  11.179  17.692  0.00  0.00    +0.000 A 
ATOM     23 CL   UNL     1      -4.730  11.547  16.930  0.00  0.00    +0.000 Cl
ATOM     24  C   UNL     1      -2.922  11.748  18.929  0.00  0.00    +0.000 A 
ATOM     25  C   UNL     1      -1.670  11.526  19.530  0.00  0.00    +0.000 A 
BRANCH  25  26
ATOM     26  C   UNL     1      -1.399  12.142  20.837  0.00  0.00    +0.000 A 
ATOM     27  C   UNL     1      -1.614  13.424  21.312  0.00  0.00    +0.000 A 
ATOM     28  C   UNL     1      -1.149  13.421  22.639  0.00  0.00    +0.000 A 
ATOM     29  N   UNL     1      -0.670  12.231  23.001  0.00  0.00    +0.000 NA
ATOM     30  N   UNL     1      -0.833  11.479  21.899  0.00  0.00    +0.000 N 
ATOM     31  H   UNL     1      -0.543  10.507  21.930  0.00  0.00    +0.000 HD
ENDBRANCH  25  26
ENDBRANCH  18  19
ENDBRANCH   4  18
TORSDOF 5
ENDMDL
MODEL 3
REMARK VINA RESULT:      -8.4      3.066      3.998
REMARK  Name = 
REMARK  5 active torsions:
REMARK  status: ('A' for Active; 'I' for Inactive)
REMARK    1  A    between atoms: S_2  and  N_4
REMARK    2  A    between atoms: S_2  and  C_10
REMARK    3  A    between atoms: C_13  and  O_14
REMARK    4  A    between atoms: O_14  and  C_15
REMARK    5  A    between atoms: C_21  and  C_22
REMARK                            x       y       z     vdW  Elec       q    Type
REMARK                         _______ _______ _______ _____ _____    ______ ____
ROOT
ATOM      1  C   UNL     1       1.092  10.110  19.584  0.00  0.00    +0.000 A 
ATOM      2  C   UNL     1       1.451  10.013  18.235  0.00  0.00    +0.000 A 
ATOM      3  C   UNL     1       1.872   8.786  17.718  0.00  0.00    +0.000 A 
ATOM      4  C   UNL     1       1.947   7.666  18.549  0.00  0.00    +0.000 A 
ATOM      5  C   UNL     1       1.703   7.816  19.922  0.00  0.00    +0.000 A 
ATOM      6  F   UNL     1       1.881   6.797  20.773  0.00  0.00    +0.000 F 
ATOM      7  C   UNL     1       1.236   9.018  20.439  0.00  0.00    +0.000 A 
ENDROOT
BRANCH   1   9
ATOM      8  O   UNL     1       1.468  12.210  21.074  0.00  0.00    +0.000 OA
ATOM      9  S   UNL     1       0.470  11.648  20.201  0.00  0.00    +0.000 S 
ATOM     10  O   UNL     1      -0.886  11.414  20.663  0.00  0.00    +0.000 OA
BRANCH   9  11
ATOM     11  N   UNL     1       0.275  12.553  18.786  0.00  0.00    +0.000 N 
ATOM     12  C   UNL     1       1.190  13.625  18.715  0.00  0.00    +0.000 A 
ATOM     13  N   UNL     1       2.371  13.456  18.179  0.00  0.00    +0.000 NA
ATOM     14  C   UNL     1       3.021  14.677  18.130  0.00  0.00    +0.000 A 
ATOM     15  C   UNL     1       2.319  15.746  18.647  0.00  0.00    +0.000 A 
ATOM     16  S   UNL     1       0.765  15.221  19.150  0.00  0.00    +0.000 S 
ATOM     17  H   UNL     1      -0.692  12.883  18.799  0.00  0.00    +0.000 HD
ENDBRANCH   9  11
ENDBRANCH   1   9
BRANCH   4  18
ATOM     18  O   UNL     1       2.300   6.490  17.925  0.00  0.00    +0.000 OA
BRANCH  18  19
ATOM     19  C   UNL     1       3.615   6.060  17.940  0.00  0.00    +0.000 A 
ATOM     20  C   UNL     1       4.666   6.858  17.460  0.00  0.00    +0.000 A 
ATOM     21  C   UNL     1       5.958   6.346  17.368  0.00  0.00    +0.000 A 
ATOM     22  C   UNL     1       6.220   5.067  17.840  0.00  0.00    +0.000 A 
ATOM     23 CL   UNL     1       7.803   4.412  17.684  0.00  0.00    +0.000 Cl
ATOM     24  C   UNL     1       5.208   4.311  18.436  0.00  0.00    +0.000 A 
ATOM     25  C   UNL     1       3.889   4.794  18.500  0.00  0.00    +0.000 A 
BRANCH  25  26
ATOM     26  C   UNL     1       2.866   3.961  19.146  0.00  0.00    +0.000 A 
ATOM     27  C   UNL     1       2.691   3.575  20.464  0.00  0.00    +0.000 A 
ATOM     28  C   UNL     1       1.534   2.776  20.477  0.00  0.00    +0.000 A 
ATOM     29  N   UNL     1       0.997   2.651  19.264  0.00  0.00    +0.000 NA
ATOM     30  N   UNL     1       1.816   3.375  18.481  0.00  0.00    +0.000 N 
ATOM     31  H   UNL     1       1.605   3.440  17.491  0.00  0.00    +0.000 HD
ENDBRANCH  25  26
ENDBRANCH  18  19
ENDBRANCH   4  18
TORSDOF 5
ENDMDL
MODEL 4
REMARK VINA RESULT:      -8.4      4.113      8.918
REMARK  Name = 
REMARK  5 active torsions:
REMARK  status: ('A' for Active; 'I' for Inactive)
REMARK    1  A    between atoms: S_2  and  N_4
REMARK    2  A    between atoms: S_2  and  C_10
REMARK    3  A    between atoms: C_13  and  O_14
REMARK    4  A    between atoms: O_14  and  C_15
REMARK    5  A    between atoms: C_21  and  C_22
REMARK                            x       y       z     vdW  Elec       q    Type
REMARK                         _______ _______ _______ _____ _____    ______ ____
ROOT
ATOM      1  C   UNL     1       2.763   7.203  18.713  0.00  0.00    +0.000 A 
ATOM      2  C   UNL     1       2.635   8.162  17.703  0.00  0.00    +0.000 A 
ATOM      3  C   UNL     1       1.856   9.300  17.926  0.00  0.00    +0.000 A 
ATOM      4  C   UNL     1       1.197   9.468  19.146  0.00  0.00    +0.000 A 
ATOM      5  C   UNL     1       1.239   8.435  20.094  0.00  0.00    +0.000 A 
ATOM      6  F   UNL     1       0.525   8.505  21.225  0.00  0.00    +0.000 F 
ATOM      7  C   UNL     1       2.050   7.324  19.905  0.00  0.00    +0.000 A 
ENDROOT
BRANCH   1   9
ATOM      8  O   UNL     1       3.178   4.925  17.525  0.00  0.00    +0.000 OA
ATOM      9  S   UNL     1       3.830   5.815  18.451  0.00  0.00    +0.000 S 
ATOM     10  O   UNL     1       4.268   5.351  19.755  0.00  0.00    +0.000 OA
BRANCH   9  11
ATOM     11  N   UNL     1       5.206   6.537  17.785  0.00  0.00    +0.000 N 
ATOM     12  C   UNL     1       5.735   5.780  16.718  0.00  0.00    +0.000 A 
ATOM     13  N   UNL     1       5.314   5.973  15.494  0.00  0.00    +0.000 NA
ATOM     14  C   UNL     1       6.066   5.194  14.632  0.00  0.00    +0.000 A 
ATOM     15  C   UNL     1       7.035   4.414  15.227  0.00  0.00    +0.000 A 
ATOM     16  S   UNL     1       7.054   4.714  16.917  0.00  0.00    +0.000 S 
ATOM     17  H   UNL     1       5.873   6.623  18.553  0.00  0.00    +0.000 HD
ENDBRANCH   9  11
ENDBRANCH   1   9
BRANCH   4  18
ATOM     18  O   UNL     1       0.518  10.658  19.291  0.00  0.00    +0.000 OA
BRANCH  18  19
ATOM     19  C   UNL     1      -0.762  10.797  18.782  0.00  0.00    +0.000 A 
ATOM     20  C   UNL     1      -1.160  10.179  17.587  0.00  0.00    +0.000 A 
ATOM     21  C   UNL     1      -2.411  10.445  17.035  0.00  0.00    +0.000 A 
ATOM     22  C   UNL     1      -3.301  11.257  17.725  0.00  0.00    +0.000 A 
ATOM     23 CL   UNL     1      -4.828  11.628  17.026  0.00  0.00    +0.000 Cl
ATOM     24  C   UNL     1      -2.964  11.776  18.977  0.00  0.00    +0.000 A 
ATOM     25  C   UNL     1      -1.690  11.553  19.530  0.00  0.00    +0.000 A 
BRANCH  25  26
ATOM     26  C   UNL     1      -1.390  12.114  20.855  0.00  0.00    +0.000 A 
ATOM     27  C   UNL     1      -1.649  13.356  21.408  0.00  0.00    +0.000 A 
ATOM     28  C   UNL     1      -1.124  13.309  22.711  0.00  0.00    +0.000 A 
ATOM     29  N   UNL     1      -0.568  12.130  22.986  0.00  0.00    +0.000 NA
ATOM     30  N   UNL     1      -0.743  11.428  21.854  0.00  0.00    +0.000 N 
ATOM     31  H   UNL     1      -0.402  10.473  21.819  0.00  0.00    +0.000 HD
ENDBRANCH  25  26
ENDBRANCH  18  19
ENDBRANCH   4  18
TORSDOF 5
ENDMDL
MODEL 5
REMARK VINA RESULT:      -8.4      4.584      8.905
REMARK  Name = 
REMARK  5 active torsions:
REMARK  status: ('A' for Active; 'I' for Inactive)
REMARK    1  A    between atoms: S_2  and  N_4
REMARK    2  A    between atoms: S_2  and  C_10
REMARK    3  A    between atoms: C_13  and  O_14
REMARK    4  A    between atoms: O_14  and  C_15
REMARK    5  A    between atoms: C_21  and  C_22
REMARK                            x       y       z     vdW  Elec       q    Type
REMARK                         _______ _______ _______ _____ _____    ______ ____
ROOT
ATOM      1  C   UNL     1       2.466   7.462  18.884  0.00  0.00    +0.000 A 
ATOM      2  C   UNL     1       1.951   8.358  17.940  0.00  0.00    +0.000 A 
ATOM      3  C   UNL     1       1.089   9.376  18.352  0.00  0.00    +0.000 A 
ATOM      4  C   UNL     1       0.733   9.489  19.698  0.00  0.00    +0.000 A 
ATOM      5  C   UNL     1       1.161   8.506  20.603  0.00  0.00    +0.000 A 
ATOM      6  F   UNL     1       0.744   8.510  21.876  0.00  0.00    +0.000 F 
ATOM      7  C   UNL     1       2.058   7.519  20.216  0.00  0.00    +0.000 A 
ENDROOT
BRANCH   1   9
ATOM      8  O   UNL     1       4.204   5.640  19.541  0.00  0.00    +0.000 OA
ATOM      9  S   UNL     1       3.632   6.236  18.361  0.00  0.00    +0.000 S 
ATOM     10  O   UNL     1       4.471   6.841  17.342  0.00  0.00    +0.000 OA
BRANCH   9  11
ATOM     11  N   UNL     1       2.657   5.153  17.504  0.00  0.00    +0.000 N 
ATOM     12  C   UNL     1       2.305   4.030  18.285  0.00  0.00    +0.000 A 
ATOM     13  N   UNL     1       1.234   4.053  19.036  0.00  0.00    +0.000 NA
ATOM     14  C   UNL     1       1.055   2.803  19.601  0.00  0.00    +0.000 A 
ATOM     15  C   UNL     1       2.007   1.860  19.274  0.00  0.00    +0.000 A 
ATOM     16  S   UNL     1       3.129   2.539  18.169  0.00  0.00    +0.000 S 
ATOM     17  H   UNL     1       3.198   4.884  16.681  0.00  0.00    +0.000 HD
ENDBRANCH   9  11
ENDBRANCH   1   9
BRANCH   4  18
ATOM     18  O   UNL     1      -0.060  10.571  20.010  0.00  0.00    +0.000 OA
BRANCH  18  19
ATOM     19  C   UNL     1       0.340  11.850  19.664  0.00  0.00    +0.000 A 
ATOM     20  C   UNL     1       1.542  12.407  20.126  0.00  0.00    +0.000 A 
ATOM     21  C   UNL     1       1.850  13.740  19.867  0.00  0.00    +0.000 A 
ATOM     22  C   UNL     1       1.001  14.494  19.069  0.00  0.00    +0.000 A 
ATOM     23 CL   UNL     1       1.352  16.153  18.785  0.00  0.00    +0.000 Cl
ATOM     24  C   UNL     1      -0.134  13.914  18.498  0.00  0.00    +0.000 A 
ATOM     25  C   UNL     1      -0.484  12.582  18.782  0.00  0.00    +0.000 A 
BRANCH  25  26
ATOM     26  C   UNL     1      -1.685  12.019  18.147  0.00  0.00    +0.000 A 
ATOM     27  C   UNL     1      -2.938  11.721  18.653  0.00  0.00    +0.000 A 
ATOM     28  C   UNL     1      -3.671  11.202  17.570  0.00  0.00    +0.000 A 
ATOM     29  N   UNL     1      -2.953  11.166  16.449  0.00  0.00    +0.000 NA
ATOM     30  N   UNL     1      -1.761  11.665  16.822  0.00  0.00    +0.000 N 
ATOM     31  H   UNL     1      -1.031  11.748  16.123  0.00  0.00    +0.000 HD
ENDBRANCH  25  26
ENDBRANCH  18  19
ENDBRANCH   4  18
TORSDOF 5
ENDMDL
MODEL 6
REMARK VINA RESULT:      -8.4      3.306      3.970
REMARK  Name = 
REMARK  5 active torsions:
REMARK  status: ('A' for Active; 'I' for Inactive)
REMARK    1  A    between atoms: S_2  and  N_4
REMARK    2  A    between atoms: S_2  and  C_10
REMARK    3  A    between atoms: C_13  and  O_14
REMARK    4  A    between atoms: O_14  and  C_15
REMARK    5  A    between atoms: C_21  and  C_22
REMARK                            x       y       z     vdW  Elec       q    Type
REMARK                         _______ _______ _______ _____ _____    ______ ____
ROOT
ATOM      1  C   UNL     1      -0.047  10.127  19.272  0.00  0.00    +0.000 A 
ATOM      2  C   UNL     1       0.764   9.750  18.196  0.00  0.00    +0.000 A 
ATOM      3  C   UNL     1       1.759   8.788  18.386  0.00  0.00    +0.000 A 
ATOM      4  C   UNL     1       1.952   8.220  19.646  0.00  0.00    +0.000 A 
ATOM      5  C   UNL     1       1.211   8.704  20.735  0.00  0.00    +0.000 A 
ATOM      6  F   UNL     1       1.448   8.271  21.980  0.00  0.00    +0.000 F 
ATOM      7  C   UNL     1       0.185   9.622  20.551  0.00  0.00    +0.000 A 
ENDROOT
BRANCH   1   9
ATOM      8  O   UNL     1      -0.959  12.168  17.940  0.00  0.00    +0.000 OA
ATOM      9  S   UNL     1      -1.365  11.276  18.995  0.00  0.00    +0.000 S 
ATOM     10  O   UNL     1      -1.779  11.784  20.290  0.00  0.00    +0.000 OA
BRANCH   9  11
ATOM     11  N   UNL     1      -2.634  10.262  18.523  0.00  0.00    +0.000 N 
ATOM     12  C   UNL     1      -2.949  10.413  17.156  0.00  0.00    +0.000 A 
ATOM     13  N   UNL     1      -2.334   9.695  16.250  0.00  0.00    +0.000 NA
ATOM     14  C   UNL     1      -2.903   9.949  15.015  0.00  0.00    +0.000 A 
ATOM     15  C   UNL     1      -3.931  10.869  15.010  0.00  0.00    +0.000 A 
ATOM     16  S   UNL     1      -4.244  11.386  16.616  0.00  0.00    +0.000 S 
ATOM     17  H   UNL     1      -3.424  10.511  19.121  0.00  0.00    +0.000 HD
ENDBRANCH   9  11
ENDBRANCH   1   9
BRANCH   4  18
ATOM     18  O   UNL     1       2.906   7.229  19.708  0.00  0.00    +0.000 OA
BRANCH  18  19
ATOM     19  C   UNL     1       2.548   5.904  19.526  0.00  0.00    +0.000 A 
ATOM     20  C   UNL     1       1.401   5.353  20.119  0.00  0.00    +0.000 A 
ATOM     21  C   UNL     1       1.141   3.989  20.025  0.00  0.00    +0.000 A 
ATOM     22  C   UNL     1       1.978   3.187  19.260  0.00  0.00    +0.000 A 
ATOM     23 CL   UNL     1       1.689   1.493  19.179  0.00  0.00    +0.000 Cl
ATOM     24  C   UNL     1       3.050   3.745  18.561  0.00  0.00    +0.000 A 
ATOM     25  C   UNL     1       3.353   5.113  18.679  0.00  0.00    +0.000 A 
BRANCH  25  26
ATOM     26  C   UNL     1       4.487   5.651  17.914  0.00  0.00    +0.000 A 
ATOM     27  C   UNL     1       5.841   5.364  17.952  0.00  0.00    +0.000 A 
ATOM     28  C   UNL     1       6.434   6.199  16.988  0.00  0.00    +0.000 A 
ATOM     29  N   UNL     1       5.538   6.968  16.371  0.00  0.00    +0.000 NA
ATOM     30  N   UNL     1       4.374   6.618  16.945  0.00  0.00    +0.000 N 
ATOM     31  H   UNL     1       3.523   7.071  16.628  0.00  0.00    +0.000 HD
ENDBRANCH  25  26
ENDBRANCH  18  19
ENDBRANCH   4  18
TORSDOF 5
ENDMDL
MODEL 7
REMARK VINA RESULT:      -8.3      2.774      3.757
REMARK  Name = 
REMARK  5 active torsions:
REMARK  status: ('A' for Active; 'I' for Inactive)
REMARK    1  A    between atoms: S_2  and  N_4
REMARK    2  A    between atoms: S_2  and  C_10
REMARK    3  A    between atoms: C_13  and  O_14
REMARK    4  A    between atoms: O_14  and  C_15
REMARK    5  A    between atoms: C_21  and  C_22
REMARK                            x       y       z     vdW  Elec       q    Type
REMARK                         _______ _______ _______ _____ _____    ______ ____
ROOT
ATOM      1  C   UNL     1       1.045  10.002  19.752  0.00  0.00    +0.000 A 
ATOM      2  C   UNL     1       1.405   9.993  18.400  0.00  0.00    +0.000 A 
ATOM      3  C   UNL     1       1.852   8.807  17.812  0.00  0.00    +0.000 A 
ATOM      4  C   UNL     1       1.952   7.642  18.576  0.00  0.00    +0.000 A 
ATOM      5  C   UNL     1       1.705   7.706  19.956  0.00  0.00    +0.000 A 
ATOM      6  F   UNL     1       1.905   6.642  20.744  0.00  0.00    +0.000 F 
ATOM      7  C   UNL     1       1.212   8.865  20.541  0.00  0.00    +0.000 A 
ENDROOT
BRANCH   1   9
ATOM      8  O   UNL     1       0.663  11.463  21.871  0.00  0.00    +0.000 OA
ATOM      9  S   UNL     1       0.390  11.488  20.458  0.00  0.00    +0.000 S 
ATOM     10  O   UNL     1      -0.963  11.647  19.957  0.00  0.00    +0.000 OA
BRANCH   9  11
ATOM     11  N   UNL     1       1.272  12.688  19.656  0.00  0.00    +0.000 N 
ATOM     12  C   UNL     1       1.721  13.692  20.541  0.00  0.00    +0.000 A 
ATOM     13  N   UNL     1       2.870  13.570  21.155  0.00  0.00    +0.000 NA
ATOM     14  C   UNL     1       3.124  14.730  21.866  0.00  0.00    +0.000 A 
ATOM     15  C   UNL     1       2.150  15.703  21.785  0.00  0.00    +0.000 A 
ATOM     16  S   UNL     1       0.902  15.179  20.730  0.00  0.00    +0.000 S 
ATOM     17  H   UNL     1       0.643  13.066  18.946  0.00  0.00    +0.000 HD
ENDBRANCH   9  11
ENDBRANCH   1   9
BRANCH   4  18
ATOM     18  O   UNL     1       2.329   6.513  17.885  0.00  0.00    +0.000 OA
BRANCH  18  19
ATOM     19  C   UNL     1       3.646   6.086  17.913  0.00  0.00    +0.000 A 
ATOM     20  C   UNL     1       4.696   6.873  17.415  0.00  0.00    +0.000 A 
ATOM     21  C   UNL     1       5.989   6.361  17.338  0.00  0.00    +0.000 A 
ATOM     22  C   UNL     1       6.252   5.094  17.842  0.00  0.00    +0.000 A 
ATOM     23 CL   UNL     1       7.836   4.438  17.706  0.00  0.00    +0.000 Cl
ATOM     24  C   UNL     1       5.240   4.352  18.455  0.00  0.00    +0.000 A 
ATOM     25  C   UNL     1       3.921   4.834  18.504  0.00  0.00    +0.000 A 
BRANCH  25  26
ATOM     26  C   UNL     1       2.897   4.016  19.169  0.00  0.00    +0.000 A 
ATOM     27  C   UNL     1       2.880   3.388  20.403  0.00  0.00    +0.000 A 
ATOM     28  C   UNL     1       1.629   2.751  20.488  0.00  0.00    +0.000 A 
ATOM     29  N   UNL     1       0.889   2.949  19.398  0.00  0.00    +0.000 NA
ATOM     30  N   UNL     1       1.674   3.714  18.620  0.00  0.00    +0.000 N 
ATOM     31  H   UNL     1       1.319   4.011  17.717  0.00  0.00    +0.000 HD
ENDBRANCH  25  26
ENDBRANCH  18  19
ENDBRANCH   4  18
TORSDOF 5
ENDMDL
MODEL 8
REMARK VINA RESULT:      -8.3      1.386      1.651
REMARK  Name = 
REMARK  5 active torsions:
REMARK  status: ('A' for Active; 'I' for Inactive)
REMARK    1  A    between atoms: S_2  and  N_4
REMARK    2  A    between atoms: S_2  and  C_10
REMARK    3  A    between atoms: C_13  and  O_14
REMARK    4  A    between atoms: O_14  and  C_15
REMARK    5  A    between atoms: C_21  and  C_22
REMARK                            x       y       z     vdW  Elec       q    Type
REMARK                         _______ _______ _______ _____ _____    ______ ____
ROOT
ATOM      1  C   UNL     1       1.036   9.329  20.154  0.00  0.00    +0.000 A 
ATOM      2  C   UNL     1       1.281   9.746  18.841  0.00  0.00    +0.000 A 
ATOM      3  C   UNL     1       1.996   8.916  17.974  0.00  0.00    +0.000 A 
ATOM      4  C   UNL     1       2.475   7.683  18.423  0.00  0.00    +0.000 A 
ATOM      5  C   UNL     1       2.324   7.343  19.775  0.00  0.00    +0.000 A 
ATOM      6  F   UNL     1       2.873   6.226  20.273  0.00  0.00    +0.000 F 
ATOM      7  C   UNL     1       1.574   8.135  20.634  0.00  0.00    +0.000 A 
ENDROOT
BRANCH   1   9
ATOM      8  O   UNL     1       0.907  11.351  21.787  0.00  0.00    +0.000 OA
ATOM      9  S   UNL     1       0.048  10.349  21.211  0.00  0.00    +0.000 S 
ATOM     10  O   UNL     1      -0.744   9.466  22.049  0.00  0.00    +0.000 OA
BRANCH   9  11
ATOM     11  N   UNL     1      -1.073  11.010  20.130  0.00  0.00    +0.000 N 
ATOM     12  C   UNL     1      -0.997  12.419  20.089  0.00  0.00    +0.000 A 
ATOM     13  N   UNL     1      -0.179  13.016  19.259  0.00  0.00    +0.000 NA
ATOM     14  C   UNL     1      -0.381  14.382  19.337  0.00  0.00    +0.000 A 
ATOM     15  C   UNL     1      -1.341  14.793  20.238  0.00  0.00    +0.000 A 
ATOM     16  S   UNL     1      -2.066  13.419  20.967  0.00  0.00    +0.000 S 
ATOM     17  H   UNL     1      -1.988  10.691  20.452  0.00  0.00    +0.000 HD
ENDBRANCH   9  11
ENDBRANCH   1   9
BRANCH   4  18
ATOM     18  O   UNL     1       3.099   6.910  17.470  0.00  0.00    +0.000 OA
BRANCH  18  19
ATOM     19  C   UNL     1       3.206   5.541  17.643  0.00  0.00    +0.000 A 
ATOM     20  C   UNL     1       2.087   4.694  17.601  0.00  0.00    +0.000 A 
ATOM     21  C   UNL     1       2.211   3.342  17.909  0.00  0.00    +0.000 A 
ATOM     22  C   UNL     1       3.468   2.815  18.171  0.00  0.00    +0.000 A 
ATOM     23 CL   UNL     1       3.622   1.156  18.599  0.00  0.00    +0.000 Cl
ATOM     24  C   UNL     1       4.606   3.622  18.091  0.00  0.00    +0.000 A 
ATOM     25  C   UNL     1       4.496   4.998  17.823  0.00  0.00    +0.000 A 
BRANCH  25  26
ATOM     26  C   UNL     1       5.726   5.799  17.741  0.00  0.00    +0.000 A 
ATOM     27  C   UNL     1       6.860   5.827  18.535  0.00  0.00    +0.000 A 
ATOM     28  C   UNL     1       7.700   6.799  17.963  0.00  0.00    +0.000 A 
ATOM     29  N   UNL     1       7.157   7.359  16.882  0.00  0.00    +0.000 NA
ATOM     30  N   UNL     1       5.970   6.738  16.769  0.00  0.00    +0.000 N 
ATOM     31  H   UNL     1       5.363   6.994  15.998  0.00  0.00    +0.000 HD
ENDBRANCH  25  26
ENDBRANCH  18  19
ENDBRANCH   4  18
TORSDOF 5
ENDMDL
MODEL 9
REMARK VINA RESULT:      -8.2      3.103      4.144
REMARK  Name = 
REMARK  5 active torsions:
REMARK  status: ('A' for Active; 'I' for Inactive)
REMARK    1  A    between atoms: S_2  and  N_4
REMARK    2  A    between atoms: S_2  and  C_10
REMARK    3  A    between atoms: C_13  and  O_14
REMARK    4  A    between atoms: O_14  and  C_15
REMARK    5  A    between atoms: C_21  and  C_22
REMARK                            x       y       z     vdW  Elec       q    Type
REMARK                         _______ _______ _______ _____ _____    ______ ____
ROOT
ATOM      1  C   UNL     1       1.086   9.981  19.565  0.00  0.00    +0.000 A 
ATOM      2  C   UNL     1       1.530   9.937  18.239  0.00  0.00    +0.000 A 
ATOM      3  C   UNL     1       1.998   8.733  17.707  0.00  0.00    +0.000 A 
ATOM      4  C   UNL     1       2.035   7.585  18.500  0.00  0.00    +0.000 A 
ATOM      5  C   UNL     1       1.702   7.682  19.859  0.00  0.00    +0.000 A 
ATOM      6  F   UNL     1       1.838   6.634  20.682  0.00  0.00    +0.000 F 
ATOM      7  C   UNL     1       1.188   8.859  20.388  0.00  0.00    +0.000 A 
ENDROOT
BRANCH   1   9
ATOM      8  O   UNL     1       1.496  12.291  20.691  0.00  0.00    +0.000 OA
ATOM      9  S   UNL     1       0.407  11.489  20.196  0.00  0.00    +0.000 S 
ATOM     10  O   UNL     1      -0.714  11.138  21.049  0.00  0.00    +0.000 OA
BRANCH   9  11
ATOM     11  N   UNL     1      -0.313  12.164  18.823  0.00  0.00    +0.000 N 
ATOM     12  C   UNL     1      -1.643  11.722  18.655  0.00  0.00    +0.000 A 
ATOM     13  N   UNL     1      -2.633  12.367  19.218  0.00  0.00    +0.000 NA
ATOM     14  C   UNL     1      -3.828  11.803  18.806  0.00  0.00    +0.000 A 
ATOM     15  C   UNL     1      -3.715  10.730  17.948  0.00  0.00    +0.000 A 
ATOM     16  S   UNL     1      -2.060  10.456  17.588  0.00  0.00    +0.000 S 
ATOM     17  H   UNL     1       0.277  11.888  18.037  0.00  0.00    +0.000 HD
ENDBRANCH   9  11
ENDBRANCH   1   9
BRANCH   4  18
ATOM     18  O   UNL     1       2.440   6.437  17.858  0.00  0.00    +0.000 OA
BRANCH  18  19
ATOM     19  C   UNL     1       3.759   6.023  17.935  0.00  0.00    +0.000 A 
ATOM     20  C   UNL     1       4.821   6.831  17.498  0.00  0.00    +0.000 A 
ATOM     21  C   UNL     1       6.121   6.335  17.467  0.00  0.00    +0.000 A 
ATOM     22  C   UNL     1       6.378   5.063  17.959  0.00  0.00    +0.000 A 
ATOM     23 CL   UNL     1       7.974   4.427  17.880  0.00  0.00    +0.000 Cl
ATOM     24  C   UNL     1       5.350   4.297  18.515  0.00  0.00    +0.000 A 
ATOM     25  C   UNL     1       4.023   4.764  18.516  0.00  0.00    +0.000 A 
BRANCH  25  26
ATOM     26  C   UNL     1       2.982   3.922  19.121  0.00  0.00    +0.000 A 
ATOM     27  C   UNL     1       2.869   3.363  20.382  0.00  0.00    +0.000 A 
ATOM     28  C   UNL     1       1.653   2.656  20.377  0.00  0.00    +0.000 A 
ATOM     29  N   UNL     1       1.023   2.749  19.207  0.00  0.00    +0.000 NA
ATOM     30  N   UNL     1       1.842   3.517  18.469  0.00  0.00    +0.000 N 
ATOM     31  H   UNL     1       1.568   3.741  17.518  0.00  0.00    +0.000 HD
ENDBRANCH  25  26
ENDBRANCH  18  19
ENDBRANCH   4  18
TORSDOF 5
ENDMDL
