MODEL 1
REMARK VINA RESULT:      -8.0      0.000      0.000
REMARK  Name = 
REMARK  5 active torsions:
REMARK  status: ('A' for Active; 'I' for Inactive)
REMARK    1  A    between atoms: O_1  and  N_2
REMARK    2  A    between atoms: C_3  and  C_12
REMARK    3  A    between atoms: N_4  and  C_5
REMARK    4  A    between atoms: C_5  and  C_6
REMARK    5  A    between atoms: C_17  and  C_18
REMARK                            x       y       z     vdW  Elec       q    Type
REMARK                         _______ _______ _______ _____ _____    ______ ____
ROOT
ATOM      1  N   UNL     1       2.497   7.859  17.808  0.00  0.00    +0.000 NA
ATOM      2  C   UNL     1       2.471   7.009  18.792  0.00  0.00    +0.000 C 
ATOM      3  N   UNL     1       2.297   7.270  20.146  0.00  0.00    +0.000 N 
ATOM      4  H   UNL     1       2.921   6.772  20.765  0.00  0.00    +0.000 HD
ENDROOT
BRANCH   2   5
ATOM      5  C   UNL     1       2.642   5.551  18.405  0.00  0.00    +0.000 A 
ATOM      6  C   UNL     1       1.445   4.807  18.317  0.00  0.00    +0.000 A 
ATOM      7  C   UNL     1       1.452   3.482  17.895  0.00  0.00    +0.000 A 
ATOM      8  C   UNL     1       2.660   2.882  17.552  0.00  0.00    +0.000 A 
ATOM      9  C   UNL     1       3.851   3.604  17.661  0.00  0.00    +0.000 A 
ATOM     10  C   UNL     1       3.894   4.954  18.089  0.00  0.00    +0.000 A 
BRANCH  10  11
ATOM     11  C   UNL     1       5.229   5.626  18.180  0.00  0.00    +0.000 A 
ATOM     12  C   UNL     1       6.156   5.281  19.186  0.00  0.00    +0.000 A 
ATOM     13  C   UNL     1       7.426   5.868  19.256  0.00  0.00    +0.000 A 
ATOM     14  C   UNL     1       7.820   6.792  18.296  0.00  0.00    +0.000 A 
ATOM     15  C   UNL     1       6.925   7.168  17.302  0.00  0.00    +0.000 A 
ATOM     16  C   UNL     1       5.634   6.626  17.278  0.00  0.00    +0.000 A 
ENDBRANCH  10  11
ENDBRANCH   2   5
BRANCH   1  17
ATOM     17  O   UNL     1       2.610   9.189  18.211  0.00  0.00    +0.000 OA
ATOM     18  H   UNL     1       1.674   9.461  18.253  0.00  0.00    +0.000 HD
ENDBRANCH   1  17
BRANCH   3  19
ATOM     19  C   UNL     1       1.775   8.524  20.654  0.00  0.00    +0.000 C 
BRANCH  19  20
ATOM     20  C   UNL     1       0.234   8.556  20.681  0.00  0.00    +0.000 C 
ATOM     21  C   UNL     1      -0.374   8.363  22.078  0.00  0.00    +0.000 C 
ATOM     22  C   UNL     1      -0.071   9.529  23.016  0.00  0.00    +0.000 C 
ATOM     23  C   UNL     1      -0.488  10.871  22.414  0.00  0.00    +0.000 C 
ATOM     24  C   UNL     1       0.056  11.080  21.004  0.00  0.00    +0.000 C 
ATOM     25  C   UNL     1      -0.259   9.893  20.093  0.00  0.00    +0.000 C 
ENDBRANCH  19  20
ENDBRANCH   3  19
TORSDOF 5
ENDMDL
MODEL 2
REMARK VINA RESULT:      -7.9      1.198      1.580
REMARK  Name = 
REMARK  5 active torsions:
REMARK  status: ('A' for Active; 'I' for Inactive)
REMARK    1  A    between atoms: O_1  and  N_2
REMARK    2  A    between atoms: C_3  and  C_12
REMARK    3  A    between atoms: N_4  and  C_5
REMARK    4  A    between atoms: C_5  and  C_6
REMARK    5  A    between atoms: C_17  and  C_18
REMARK                            x       y       z     vdW  Elec       q    Type
REMARK                         _______ _______ _______ _____ _____    ______ ____
ROOT
ATOM      1  N   UNL     1       2.316   7.120  18.368  0.00  0.00    +0.000 NA
ATOM      2  C   UNL     1       2.218   6.620  19.565  0.00  0.00    +0.000 C 
ATOM      3  N   UNL     1       2.035   7.297  20.765  0.00  0.00    +0.000 N 
ATOM      4  H   UNL     1       2.616   6.982  21.530  0.00  0.00    +0.000 HD
ENDROOT
BRANCH   2   5
ATOM      5  C   UNL     1       2.305   5.106  19.653  0.00  0.00    +0.000 A 
ATOM      6  C   UNL     1       1.225   4.479  20.312  0.00  0.00    +0.000 A 
ATOM      7  C   UNL     1       1.140   3.093  20.393  0.00  0.00    +0.000 A 
ATOM      8  C   UNL     1       2.136   2.313  19.813  0.00  0.00    +0.000 A 
ATOM      9  C   UNL     1       3.220   2.928  19.182  0.00  0.00    +0.000 A 
ATOM     10  C   UNL     1       3.352   4.335  19.077  0.00  0.00    +0.000 A 
BRANCH  10  11
ATOM     11  C   UNL     1       4.563   4.884  18.389  0.00  0.00    +0.000 A 
ATOM     12  C   UNL     1       4.614   5.009  16.984  0.00  0.00    +0.000 A 
ATOM     13  C   UNL     1       5.721   5.563  16.329  0.00  0.00    +0.000 A 
ATOM     14  C   UNL     1       6.796   6.046  17.066  0.00  0.00    +0.000 A 
ATOM     15  C   UNL     1       6.786   5.923  18.450  0.00  0.00    +0.000 A 
ATOM     16  C   UNL     1       5.705   5.308  19.092  0.00  0.00    +0.000 A 
ENDBRANCH  10  11
ENDBRANCH   2   5
BRANCH   1  17
ATOM     17  O   UNL     1       2.504   8.501  18.345  0.00  0.00    +0.000 OA
ATOM     18  H   UNL     1       2.371   8.732  19.283  0.00  0.00    +0.000 HD
ENDBRANCH   1  17
BRANCH   3  19
ATOM     19  C   UNL     1       1.583   8.673  20.841  0.00  0.00    +0.000 C 
BRANCH  19  20
ATOM     20  C   UNL     1       0.047   8.791  20.843  0.00  0.00    +0.000 C 
ATOM     21  C   UNL     1      -0.595   8.621  22.228  0.00  0.00    +0.000 C 
ATOM     22  C   UNL     1      -0.243   9.759  23.182  0.00  0.00    +0.000 C 
ATOM     23  C   UNL     1      -0.573  11.128  22.586  0.00  0.00    +0.000 C 
ATOM     24  C   UNL     1       0.006  11.318  21.187  0.00  0.00    +0.000 C 
ATOM     25  C   UNL     1      -0.359  10.159  20.259  0.00  0.00    +0.000 C 
ENDBRANCH  19  20
ENDBRANCH   3  19
TORSDOF 5
ENDMDL
MODEL 3
REMARK VINA RESULT:      -7.9      3.904      5.196
REMARK  Name = 
REMARK  5 active torsions:
REMARK  status: ('A' for Active; 'I' for Inactive)
REMARK    1  A    between atoms: O_1  and  N_2
REMARK    2  A    between atoms: C_3  and  C_12
REMARK    3  A    between atoms: N_4  and  C_5
REMARK    4  A    between atoms: C_5  and  C_6
REMARK    5  A    between atoms: C_17  and  C_18
REMARK                            x       y       z     vdW  Elec       q    Type
REMARK                         _______ _______ _______ _____ _____    ______ ____
ROOT
ATOM      1  N   UNL     1       4.126   5.983  17.183  0.00  0.00    +0.000 NA
ATOM      2  C   UNL     1       4.217   4.800  16.649  0.00  0.00    +0.000 C 
ATOM      3  N   UNL     1       3.452   3.674  16.926  0.00  0.00    +0.000 N 
ATOM      4  H   UNL     1       3.972   2.812  17.020  0.00  0.00    +0.000 HD
ENDROOT
BRANCH   2   5
ATOM      5  C   UNL     1       5.289   4.640  15.586  0.00  0.00    +0.000 A 
ATOM      6  C   UNL     1       4.876   3.976  14.410  0.00  0.00    +0.000 A 
ATOM      7  C   UNL     1       5.735   3.832  13.326  0.00  0.00    +0.000 A 
ATOM      8  C   UNL     1       7.023   4.356  13.402  0.00  0.00    +0.000 A 
ATOM      9  C   UNL     1       7.446   4.992  14.571  0.00  0.00    +0.000 A 
ATOM     10  C   UNL     1       6.609   5.159  15.702  0.00  0.00    +0.000 A 
BRANCH  10  11
ATOM     11  C   UNL     1       7.172   5.847  16.907  0.00  0.00    +0.000 A 
ATOM     12  C   UNL     1       7.517   5.125  18.068  0.00  0.00    +0.000 A 
ATOM     13  C   UNL     1       8.087   5.747  19.186  0.00  0.00    +0.000 A 
ATOM     14  C   UNL     1       8.367   7.108  19.158  0.00  0.00    +0.000 A 
ATOM     15  C   UNL     1       8.024   7.853  18.036  0.00  0.00    +0.000 A 
ATOM     16  C   UNL     1       7.394   7.235  16.949  0.00  0.00    +0.000 A 
ENDBRANCH  10  11
ENDBRANCH   2   5
BRANCH   1  17
ATOM     17  O   UNL     1       3.333   6.028  18.329  0.00  0.00    +0.000 OA
ATOM     18  H   UNL     1       3.095   5.089  18.439  0.00  0.00    +0.000 HD
ENDBRANCH   1  17
BRANCH   3  19
ATOM     19  C   UNL     1       2.185   3.726  17.630  0.00  0.00    +0.000 C 
BRANCH  19  20
ATOM     20  C   UNL     1       1.869   2.415  18.376  0.00  0.00    +0.000 C 
ATOM     21  C   UNL     1       3.065   1.816  19.130  0.00  0.00    +0.000 C 
ATOM     22  C   UNL     1       3.515   2.683  20.302  0.00  0.00    +0.000 C 
ATOM     23  C   UNL     1       2.363   2.996  21.257  0.00  0.00    +0.000 C 
ATOM     24  C   UNL     1       1.134   3.548  20.541  0.00  0.00    +0.000 C 
ATOM     25  C   UNL     1       0.714   2.659  19.369  0.00  0.00    +0.000 C 
ENDBRANCH  19  20
ENDBRANCH   3  19
TORSDOF 5
ENDMDL
MODEL 4
REMARK VINA RESULT:      -7.9      1.330      1.458
REMARK  Name = 
REMARK  5 active torsions:
REMARK  status: ('A' for Active; 'I' for Inactive)
REMARK    1  A    between atoms: O_1  and  N_2
REMARK    2  A    between atoms: C_3  and  C_12
REMARK    3  A    between atoms: N_4  and  C_5
REMARK    4  A    between atoms: C_5  and  C_6
REMARK    5  A    between atoms: C_17  and  C_18
REMARK                            x       y       z     vdW  Elec       q    Type
REMARK                         _______ _______ _______ _____ _____    ______ ____
ROOT
ATOM      1  N   UNL     1       2.386   6.958  18.355  0.00  0.00    +0.000 NA
ATOM      2  C   UNL     1       2.247   6.531  19.576  0.00  0.00    +0.000 C 
ATOM      3  N   UNL     1       2.044   7.281  20.728  0.00  0.00    +0.000 N 
ATOM      4  H   UNL     1       2.598   7.003  21.526  0.00  0.00    +0.000 HD
ENDROOT
BRANCH   2   5
ATOM      5  C   UNL     1       2.306   5.024  19.755  0.00  0.00    +0.000 A 
ATOM      6  C   UNL     1       1.201   4.455  20.425  0.00  0.00    +0.000 A 
ATOM      7  C   UNL     1       1.090   3.078  20.586  0.00  0.00    +0.000 A 
ATOM      8  C   UNL     1       2.085   2.249  20.075  0.00  0.00    +0.000 A 
ATOM      9  C   UNL     1       3.193   2.807  19.434  0.00  0.00    +0.000 A 
ATOM     10  C   UNL     1       3.352   4.203  19.249  0.00  0.00    +0.000 A 
BRANCH  10  11
ATOM     11  C   UNL     1       4.587   4.691  18.557  0.00  0.00    +0.000 A 
ATOM     12  C   UNL     1       5.636   5.301  19.276  0.00  0.00    +0.000 A 
ATOM     13  C   UNL     1       6.817   5.721  18.650  0.00  0.00    +0.000 A 
ATOM     14  C   UNL     1       6.998   5.507  17.289  0.00  0.00    +0.000 A 
ATOM     15  C   UNL     1       5.977   4.925  16.548  0.00  0.00    +0.000 A 
ATOM     16  C   UNL     1       4.774   4.568  17.169  0.00  0.00    +0.000 A 
ENDBRANCH  10  11
ENDBRANCH   2   5
BRANCH   1  17
ATOM     17  O   UNL     1       2.599   8.332  18.255  0.00  0.00    +0.000 OA
ATOM     18  H   UNL     1       2.661   8.451  17.289  0.00  0.00    +0.000 HD
ENDBRANCH   1  17
BRANCH   3  19
ATOM     19  C   UNL     1       1.614   8.665  20.710  0.00  0.00    +0.000 C 
BRANCH  19  20
ATOM     20  C   UNL     1       0.080   8.809  20.715  0.00  0.00    +0.000 C 
ATOM     21  C   UNL     1      -0.569   8.576  22.088  0.00  0.00    +0.000 C 
ATOM     22  C   UNL     1      -0.202   9.658  23.101  0.00  0.00    +0.000 C 
ATOM     23  C   UNL     1      -0.508  11.060  22.577  0.00  0.00    +0.000 C 
ATOM     24  C   UNL     1       0.077  11.314  21.191  0.00  0.00    +0.000 C 
ATOM     25  C   UNL     1      -0.304  10.211  20.203  0.00  0.00    +0.000 C 
ENDBRANCH  19  20
ENDBRANCH   3  19
TORSDOF 5
ENDMDL
MODEL 5
REMARK VINA RESULT:      -7.9      3.925      5.294
REMARK  Name = 
REMARK  5 active torsions:
REMARK  status: ('A' for Active; 'I' for Inactive)
REMARK    1  A    between atoms: O_1  and  N_2
REMARK    2  A    between atoms: C_3  and  C_12
REMARK    3  A    between atoms: N_4  and  C_5
REMARK    4  A    between atoms: C_5  and  C_6
REMARK    5  A    between atoms: C_17  and  C_18
REMARK                            x       y       z     vdW  Elec       q    Type
REMARK                         _______ _______ _______ _____ _____    ______ ____
ROOT
ATOM      1  N   UNL     1       4.166   5.882  17.194  0.00  0.00    +0.000 NA
ATOM      2  C   UNL     1       4.220   4.712  16.628  0.00  0.00    +0.000 C 
ATOM      3  N   UNL     1       3.438   3.594  16.894  0.00  0.00    +0.000 N 
ATOM      4  H   UNL     1       3.942   2.720  16.954  0.00  0.00    +0.000 HD
ENDROOT
BRANCH   2   5
ATOM      5  C   UNL     1       5.263   4.559  15.535  0.00  0.00    +0.000 A 
ATOM      6  C   UNL     1       4.808   3.936  14.353  0.00  0.00    +0.000 A 
ATOM      7  C   UNL     1       5.638   3.804  13.245  0.00  0.00    +0.000 A 
ATOM      8  C   UNL     1       6.939   4.298  13.305  0.00  0.00    +0.000 A 
ATOM      9  C   UNL     1       7.403   4.893  14.480  0.00  0.00    +0.000 A 
ATOM     10  C   UNL     1       6.596   5.047  15.635  0.00  0.00    +0.000 A 
BRANCH  10  11
ATOM     11  C   UNL     1       7.202   5.689  16.843  0.00  0.00    +0.000 A 
ATOM     12  C   UNL     1       7.430   7.080  16.896  0.00  0.00    +0.000 A 
ATOM     13  C   UNL     1       7.954   7.702  18.037  0.00  0.00    +0.000 A 
ATOM     14  C   UNL     1       8.229   6.953  19.175  0.00  0.00    +0.000 A 
ATOM     15  C   UNL     1       8.034   5.578  19.150  0.00  0.00    +0.000 A 
ATOM     16  C   UNL     1       7.572   4.955  17.984  0.00  0.00    +0.000 A 
ENDBRANCH  10  11
ENDBRANCH   2   5
BRANCH   1  17
ATOM     17  O   UNL     1       3.401   5.914  18.359  0.00  0.00    +0.000 OA
ATOM     18  H   UNL     1       4.048   5.616  19.026  0.00  0.00    +0.000 HD
ENDBRANCH   1  17
BRANCH   3  19
ATOM     19  C   UNL     1       2.190   3.654  17.629  0.00  0.00    +0.000 C 
BRANCH  19  20
ATOM     20  C   UNL     1       1.906   2.361  18.418  0.00  0.00    +0.000 C 
ATOM     21  C   UNL     1       3.116   1.819  19.194  0.00  0.00    +0.000 C 
ATOM     22  C   UNL     1       3.538   2.737  20.338  0.00  0.00    +0.000 C 
ATOM     23  C   UNL     1       2.375   3.050  21.279  0.00  0.00    +0.000 C 
ATOM     24  C   UNL     1       1.134   3.544  20.542  0.00  0.00    +0.000 C 
ATOM     25  C   UNL     1       0.742   2.606  19.399  0.00  0.00    +0.000 C 
ENDBRANCH  19  20
ENDBRANCH   3  19
TORSDOF 5
ENDMDL
MODEL 6
REMARK VINA RESULT:      -7.8      0.110      1.005
REMARK  Name = 
REMARK  5 active torsions:
REMARK  status: ('A' for Active; 'I' for Inactive)
REMARK    1  A    between atoms: O_1  and  N_2
REMARK    2  A    between atoms: C_3  and  C_12
REMARK    3  A    between atoms: N_4  and  C_5
REMARK    4  A    between atoms: C_5  and  C_6
REMARK    5  A    between atoms: C_17  and  C_18
REMARK                            x       y       z     vdW  Elec       q    Type
REMARK                         _______ _______ _______ _____ _____    ______ ____
ROOT
ATOM      1  N   UNL     1       2.577   7.766  17.790  0.00  0.00    +0.000 NA
ATOM      2  C   UNL     1       2.517   6.926  18.782  0.00  0.00    +0.000 C 
ATOM      3  N   UNL     1       2.327   7.204  20.131  0.00  0.00    +0.000 N 
ATOM      4  H   UNL     1       2.932   6.700  20.764  0.00  0.00    +0.000 HD
ENDROOT
BRANCH   2   5
ATOM      5  C   UNL     1       2.665   5.461  18.412  0.00  0.00    +0.000 A 
ATOM      6  C   UNL     1       1.460   4.727  18.368  0.00  0.00    +0.000 A 
ATOM      7  C   UNL     1       1.443   3.396  17.965  0.00  0.00    +0.000 A 
ATOM      8  C   UNL     1       2.636   2.779  17.599  0.00  0.00    +0.000 A 
ATOM      9  C   UNL     1       3.836   3.492  17.665  0.00  0.00    +0.000 A 
ATOM     10  C   UNL     1       3.903   4.848  18.072  0.00  0.00    +0.000 A 
BRANCH  10  11
ATOM     11  C   UNL     1       5.246   5.509  18.117  0.00  0.00    +0.000 A 
ATOM     12  C   UNL     1       5.616   6.480  17.163  0.00  0.00    +0.000 A 
ATOM     13  C   UNL     1       6.850   7.140  17.219  0.00  0.00    +0.000 A 
ATOM     14  C   UNL     1       7.736   6.875  18.256  0.00  0.00    +0.000 A 
ATOM     15  C   UNL     1       7.410   5.911  19.202  0.00  0.00    +0.000 A 
ATOM     16  C   UNL     1       6.203   5.208  19.102  0.00  0.00    +0.000 A 
ENDBRANCH  10  11
ENDBRANCH   2   5
BRANCH   1  17
ATOM     17  O   UNL     1       2.710   9.097  18.182  0.00  0.00    +0.000 OA
ATOM     18  H   UNL     1       3.249   9.462  17.455  0.00  0.00    +0.000 HD
ENDBRANCH   1  17
BRANCH   3  19
ATOM     19  C   UNL     1       1.823   8.474  20.618  0.00  0.00    +0.000 C 
BRANCH  19  20
ATOM     20  C   UNL     1       0.283   8.540  20.612  0.00  0.00    +0.000 C 
ATOM     21  C   UNL     1      -0.359   8.342  21.993  0.00  0.00    +0.000 C 
ATOM     22  C   UNL     1      -0.051   9.488  22.953  0.00  0.00    +0.000 C 
ATOM     23  C   UNL     1      -0.424  10.847  22.362  0.00  0.00    +0.000 C 
ATOM     24  C   UNL     1       0.154  11.063  20.966  0.00  0.00    +0.000 C 
ATOM     25  C   UNL     1      -0.167   9.895  20.032  0.00  0.00    +0.000 C 
ENDBRANCH  19  20
ENDBRANCH   3  19
TORSDOF 5
ENDMDL
MODEL 7
REMARK VINA RESULT:      -7.6      1.707      2.134
REMARK  Name = 
REMARK  5 active torsions:
REMARK  status: ('A' for Active; 'I' for Inactive)
REMARK    1  A    between atoms: O_1  and  N_2
REMARK    2  A    between atoms: C_3  and  C_12
REMARK    3  A    between atoms: N_4  and  C_5
REMARK    4  A    between atoms: C_5  and  C_6
REMARK    5  A    between atoms: C_17  and  C_18
REMARK                            x       y       z     vdW  Elec       q    Type
REMARK                         _______ _______ _______ _____ _____    ______ ____
ROOT
ATOM      1  N   UNL     1       2.271   6.311  20.662  0.00  0.00    +0.000 NA
ATOM      2  C   UNL     1       2.309   6.246  19.363  0.00  0.00    +0.000 C 
ATOM      3  N   UNL     1       2.153   7.280  18.448  0.00  0.00    +0.000 N 
ATOM      4  H   UNL     1       1.558   7.070  17.658  0.00  0.00    +0.000 HD
ENDROOT
BRANCH   2   5
ATOM      5  C   UNL     1       2.568   4.867  18.782  0.00  0.00    +0.000 A 
ATOM      6  C   UNL     1       1.458   3.994  18.788  0.00  0.00    +0.000 A 
ATOM      7  C   UNL     1       1.536   2.729  18.214  0.00  0.00    +0.000 A 
ATOM      8  C   UNL     1       2.729   2.320  17.624  0.00  0.00    +0.000 A 
ATOM      9  C   UNL     1       3.838   3.169  17.637  0.00  0.00    +0.000 A 
ATOM     10  C   UNL     1       3.808   4.464  18.212  0.00  0.00    +0.000 A 
BRANCH  10  11
ATOM     11  C   UNL     1       5.061   5.283  18.181  0.00  0.00    +0.000 A 
ATOM     12  C   UNL     1       6.087   5.088  19.128  0.00  0.00    +0.000 A 
ATOM     13  C   UNL     1       7.284   5.814  19.084  0.00  0.00    +0.000 A 
ATOM     14  C   UNL     1       7.505   6.732  18.064  0.00  0.00    +0.000 A 
ATOM     15  C   UNL     1       6.507   6.961  17.124  0.00  0.00    +0.000 A 
ATOM     16  C   UNL     1       5.288   6.279  17.214  0.00  0.00    +0.000 A 
ENDBRANCH  10  11
ENDBRANCH   2   5
BRANCH   1  17
ATOM     17  O   UNL     1       1.770   7.515  21.154  0.00  0.00    +0.000 OA
ATOM     18  H   UNL     1       0.952   7.615  20.631  0.00  0.00    +0.000 HD
ENDBRANCH   1  17
BRANCH   3  19
ATOM     19  C   UNL     1       2.253   8.681  18.806  0.00  0.00    +0.000 C 
BRANCH  19  20
ATOM     20  C   UNL     1       1.526   9.601  17.807  0.00  0.00    +0.000 C 
ATOM     21  C   UNL     1      -0.005   9.580  17.932  0.00  0.00    +0.000 C 
ATOM     22  C   UNL     1      -0.495  10.181  19.247  0.00  0.00    +0.000 C 
ATOM     23  C   UNL     1       0.057  11.589  19.473  0.00  0.00    +0.000 C 
ATOM     24  C   UNL     1       1.572  11.663  19.307  0.00  0.00    +0.000 C 
ATOM     25  C   UNL     1       2.030  11.047  17.984  0.00  0.00    +0.000 C 
ENDBRANCH  19  20
ENDBRANCH   3  19
TORSDOF 5
ENDMDL
MODEL 8
REMARK VINA RESULT:      -7.5      3.948      4.994
REMARK  Name = 
REMARK  5 active torsions:
REMARK  status: ('A' for Active; 'I' for Inactive)
REMARK    1  A    between atoms: O_1  and  N_2
REMARK    2  A    between atoms: C_3  and  C_12
REMARK    3  A    between atoms: N_4  and  C_5
REMARK    4  A    between atoms: C_5  and  C_6
REMARK    5  A    between atoms: C_17  and  C_18
REMARK                            x       y       z     vdW  Elec       q    Type
REMARK                         _______ _______ _______ _____ _____    ______ ____
ROOT
ATOM      1  N   UNL     1       3.468   6.131  17.515  0.00  0.00    +0.000 NA
ATOM      2  C   UNL     1       4.362   5.204  17.695  0.00  0.00    +0.000 C 
ATOM      3  N   UNL     1       4.594   4.445  18.836  0.00  0.00    +0.000 N 
ATOM      4  H   UNL     1       5.566   4.336  19.091  0.00  0.00    +0.000 HD
ENDROOT
BRANCH   2   5
ATOM      5  C   UNL     1       5.254   4.912  16.501  0.00  0.00    +0.000 A 
ATOM      6  C   UNL     1       4.725   3.998  15.564  0.00  0.00    +0.000 A 
ATOM      7  C   UNL     1       5.403   3.703  14.386  0.00  0.00    +0.000 A 
ATOM      8  C   UNL     1       6.623   4.323  14.128  0.00  0.00    +0.000 A 
ATOM      9  C   UNL     1       7.164   5.209  15.062  0.00  0.00    +0.000 A 
ATOM     10  C   UNL     1       6.512   5.538  16.277  0.00  0.00    +0.000 A 
BRANCH  10  11
ATOM     11  C   UNL     1       7.191   6.491  17.210  0.00  0.00    +0.000 A 
ATOM     12  C   UNL     1       7.788   6.043  18.407  0.00  0.00    +0.000 A 
ATOM     13  C   UNL     1       8.466   6.916  19.268  0.00  0.00    +0.000 A 
ATOM     14  C   UNL     1       8.601   8.258  18.935  0.00  0.00    +0.000 A 
ATOM     15  C   UNL     1       8.010   8.736  17.772  0.00  0.00    +0.000 A 
ATOM     16  C   UNL     1       7.278   7.870  16.950  0.00  0.00    +0.000 A 
ENDBRANCH  10  11
ENDBRANCH   2   5
BRANCH   1  17
ATOM     17  O   UNL     1       2.854   6.562  18.691  0.00  0.00    +0.000 OA
ATOM     18  H   UNL     1       3.622   6.672  19.283  0.00  0.00    +0.000 HD
ENDBRANCH   1  17
BRANCH   3  19
ATOM     19  C   UNL     1       3.640   4.332  19.923  0.00  0.00    +0.000 C 
BRANCH  19  20
ATOM     20  C   UNL     1       3.278   2.868  20.242  0.00  0.00    +0.000 C 
ATOM     21  C   UNL     1       1.973   2.702  21.034  0.00  0.00    +0.000 C 
ATOM     22  C   UNL     1       0.742   3.107  20.228  0.00  0.00    +0.000 C 
ATOM     23  C   UNL     1       0.670   2.376  18.887  0.00  0.00    +0.000 C 
ATOM     24  C   UNL     1       1.967   2.475  18.090  0.00  0.00    +0.000 C 
ATOM     25  C   UNL     1       3.180   2.069  18.927  0.00  0.00    +0.000 C 
ENDBRANCH  19  20
ENDBRANCH   3  19
TORSDOF 5
ENDMDL
MODEL 9
REMARK VINA RESULT:      -7.5      2.684      6.225
REMARK  Name = 
REMARK  5 active torsions:
REMARK  status: ('A' for Active; 'I' for Inactive)
REMARK    1  A    between atoms: O_1  and  N_2
REMARK    2  A    between atoms: C_3  and  C_12
REMARK    3  A    between atoms: N_4  and  C_5
REMARK    4  A    between atoms: C_5  and  C_6
REMARK    5  A    between atoms: C_17  and  C_18
REMARK                            x       y       z     vdW  Elec       q    Type
REMARK                         _______ _______ _______ _____ _____    ______ ____
ROOT
ATOM      1  N   UNL     1       5.354   4.560  19.943  0.00  0.00    +0.000 NA
ATOM      2  C   UNL     1       4.983   4.102  18.783  0.00  0.00    +0.000 C 
ATOM      3  N   UNL     1       5.702   4.096  17.594  0.00  0.00    +0.000 N 
ATOM      4  H   UNL     1       5.181   4.374  16.774  0.00  0.00    +0.000 HD
ENDROOT
BRANCH   2   5
ATOM      5  C   UNL     1       3.595   3.489  18.734  0.00  0.00    +0.000 A 
ATOM      6  C   UNL     1       3.561   2.086  18.586  0.00  0.00    +0.000 A 
ATOM      7  C   UNL     1       2.357   1.389  18.605  0.00  0.00    +0.000 A 
ATOM      8  C   UNL     1       1.167   2.091  18.775  0.00  0.00    +0.000 A 
ATOM      9  C   UNL     1       1.191   3.482  18.896  0.00  0.00    +0.000 A 
ATOM     10  C   UNL     1       2.391   4.235  18.879  0.00  0.00    +0.000 A 
BRANCH  10  11
ATOM     11  C   UNL     1       2.297   5.724  19.004  0.00  0.00    +0.000 A 
ATOM     12  C   UNL     1       2.429   6.563  17.879  0.00  0.00    +0.000 A 
ATOM     13  C   UNL     1       2.298   7.955  17.973  0.00  0.00    +0.000 A 
ATOM     14  C   UNL     1       1.990   8.544  19.193  0.00  0.00    +0.000 A 
ATOM     15  C   UNL     1       1.871   7.748  20.326  0.00  0.00    +0.000 A 
ATOM     16  C   UNL     1       2.069   6.365  20.235  0.00  0.00    +0.000 A 
ENDBRANCH  10  11
ENDBRANCH   2   5
BRANCH   1  17
ATOM     17  O   UNL     1       6.503   5.349  19.899  0.00  0.00    +0.000 OA
ATOM     18  H   UNL     1       6.564   5.657  20.823  0.00  0.00    +0.000 HD
ENDBRANCH   1  17
BRANCH   3  19
ATOM     19  C   UNL     1       7.136   4.303  17.530  0.00  0.00    +0.000 C 
BRANCH  19  20
ATOM     20  C   UNL     1       7.547   5.240  16.378  0.00  0.00    +0.000 C 
ATOM     21  C   UNL     1       6.807   4.975  15.058  0.00  0.00    +0.000 C 
ATOM     22  C   UNL     1       5.319   5.303  15.143  0.00  0.00    +0.000 C 
ATOM     23  C   UNL     1       5.075   6.729  15.636  0.00  0.00    +0.000 C 
ATOM     24  C   UNL     1       5.834   7.049  16.920  0.00  0.00    +0.000 C 
ATOM     25  C   UNL     1       7.319   6.704  16.803  0.00  0.00    +0.000 C 
ENDBRANCH  19  20
ENDBRANCH   3  19
TORSDOF 5
ENDMDL
