MODEL 1
REMARK VINA RESULT:      -6.9      0.000      0.000
REMARK  Name = 
REMARK  5 active torsions:
REMARK  status: ('A' for Active; 'I' for Inactive)
REMARK    1  A    between atoms: N_1  and  C_2
REMARK    2  A    between atoms: C_5  and  C_6
REMARK    3  A    between atoms: N_8  and  N_9
REMARK    4  A    between atoms: C_14  and  C_15
REMARK    5  A    between atoms: C_21  and  O_22
REMARK                            x       y       z     vdW  Elec       q    Type
REMARK                         _______ _______ _______ _____ _____    ______ ____
ROOT
ATOM      1  N   UNL     1       7.391   5.521  16.716  0.00  0.00    +0.000 N 
ATOM      2  C   UNL     1       7.308   5.061  15.430  0.00  0.00    +0.000 C 
ATOM      3  O   UNL     1       7.914   5.390  14.435  0.00  0.00    +0.000 OA
ATOM      4  C   UNL     1       6.160   4.092  15.801  0.00  0.00    +0.000 C 
ATOM      5 CL   UNL     1       4.764   4.074  14.670  0.00  0.00    +0.000 Cl
ATOM      6  C   UNL     1       6.131   4.871  17.155  0.00  0.00    +0.000 C 
ENDROOT
BRANCH   6   7
ATOM      7  C   UNL     1       4.853   5.713  17.616  0.00  0.00    +0.000 A 
ATOM      8  C   UNL     1       4.125   5.290  18.756  0.00  0.00    +0.000 A 
ATOM      9  C   UNL     1       2.967   5.938  19.191  0.00  0.00    +0.000 A 
ATOM     10 BR   UNL     1       2.045   5.290  20.710  0.00  0.00    +0.000 Br
ATOM     11  C   UNL     1       2.487   7.045  18.509  0.00  0.00    +0.000 A 
ATOM     12  C   UNL     1       3.180   7.509  17.393  0.00  0.00    +0.000 A 
ATOM     13  C   UNL     1       4.342   6.848  16.967  0.00  0.00    +0.000 A 
BRANCH  13  14
ATOM     14  O   UNL     1       5.006   7.327  15.867  0.00  0.00    +0.000 OA
ATOM     15  H   UNL     1       4.466   8.027  15.459  0.00  0.00    +0.000 HD
ENDBRANCH  13  14
ENDBRANCH   6   7
BRANCH   1  18
ATOM     16  C   UNL     1       8.048   7.297  18.155  0.00  0.00    +0.000 C 
ATOM     17  O   UNL     1       8.217   6.520  19.094  0.00  0.00    +0.000 OA
ATOM     18  N   UNL     1       7.563   6.886  16.930  0.00  0.00    +0.000 N 
ATOM     19  H   UNL     1       7.509   7.477  16.109  0.00  0.00    +0.000 HD
BRANCH  16  23
ATOM     20  C   UNL     1       8.922  11.519  18.464  0.00  0.00    +0.000 A 
ATOM     21  C   UNL     1       8.042  11.018  17.506  0.00  0.00    +0.000 A 
ATOM     22  C   UNL     1       7.783   9.646  17.425  0.00  0.00    +0.000 A 
ATOM     23  C   UNL     1       8.367   8.749  18.331  0.00  0.00    +0.000 A 
ATOM     24  C   UNL     1       9.200   9.257  19.333  0.00  0.00    +0.000 A 
ATOM     25  C   UNL     1       9.453  10.638  19.408  0.00  0.00    +0.000 A 
BRANCH  20  26
ATOM     26  N   UNL     1       9.076  12.902  18.618  0.00  0.00    +0.000 N 
ATOM     27  H   UNL     1       8.910  13.431  17.767  0.00  0.00    +0.000 HD
ATOM     28  H   UNL     1       9.938  13.177  19.076  0.00  0.00    +0.000 HD
ENDBRANCH  20  26
ENDBRANCH  16  23
ENDBRANCH   1  18
TORSDOF 5
ENDMDL
MODEL 2
REMARK VINA RESULT:      -6.3      4.558      6.221
REMARK  Name = 
REMARK  5 active torsions:
REMARK  status: ('A' for Active; 'I' for Inactive)
REMARK    1  A    between atoms: N_1  and  C_2
REMARK    2  A    between atoms: C_5  and  C_6
REMARK    3  A    between atoms: N_8  and  N_9
REMARK    4  A    between atoms: C_14  and  C_15
REMARK    5  A    between atoms: C_21  and  O_22
REMARK                            x       y       z     vdW  Elec       q    Type
REMARK                         _______ _______ _______ _____ _____    ______ ____
ROOT
ATOM      1  N   UNL     1       2.414   3.865  19.597  0.00  0.00    +0.000 N 
ATOM      2  C   UNL     1       2.752   3.141  20.707  0.00  0.00    +0.000 C 
ATOM      3  O   UNL     1       2.498   3.327  21.877  0.00  0.00    +0.000 OA
ATOM      4  C   UNL     1       3.574   2.140  19.861  0.00  0.00    +0.000 C 
ATOM      5 CL   UNL     1       5.193   1.718  20.514  0.00  0.00    +0.000 Cl
ATOM      6  C   UNL     1       3.380   3.174  18.706  0.00  0.00    +0.000 C 
ENDROOT
BRANCH   6   7
ATOM      7  C   UNL     1       4.618   3.933  18.038  0.00  0.00    +0.000 A 
ATOM      8  C   UNL     1       4.865   3.758  16.654  0.00  0.00    +0.000 A 
ATOM      9  C   UNL     1       5.957   4.341  16.006  0.00  0.00    +0.000 A 
ATOM     10 BR   UNL     1       6.224   4.035  14.159  0.00  0.00    +0.000 Br
ATOM     11  C   UNL     1       6.847   5.135  16.713  0.00  0.00    +0.000 A 
ATOM     12  C   UNL     1       6.634   5.350  18.073  0.00  0.00    +0.000 A 
ATOM     13  C   UNL     1       5.533   4.757  18.711  0.00  0.00    +0.000 A 
BRANCH  13  14
ATOM     14  O   UNL     1       5.346   4.988  20.049  0.00  0.00    +0.000 OA
ATOM     15  H   UNL     1       6.216   5.013  20.485  0.00  0.00    +0.000 HD
ENDBRANCH  13  14
ENDBRANCH   6   7
BRANCH   1  18
ATOM     16  C   UNL     1       1.950   5.973  18.596  0.00  0.00    +0.000 C 
ATOM     17  O   UNL     1       1.619   5.437  17.539  0.00  0.00    +0.000 OA
ATOM     18  N   UNL     1       2.433   5.256  19.672  0.00  0.00    +0.000 N 
ATOM     19  H   UNL     1       2.617   5.652  20.586  0.00  0.00    +0.000 HD
BRANCH  16  23
ATOM     20  C   UNL     1       1.501  10.234  19.167  0.00  0.00    +0.000 A 
ATOM     21  C   UNL     1       1.323   9.329  20.212  0.00  0.00    +0.000 A 
ATOM     22  C   UNL     1       1.469   7.955  19.997  0.00  0.00    +0.000 A 
ATOM     23  C   UNL     1       1.838   7.459  18.738  0.00  0.00    +0.000 A 
ATOM     24  C   UNL     1       2.078   8.369  17.704  0.00  0.00    +0.000 A 
ATOM     25  C   UNL     1       1.931   9.749  17.931  0.00  0.00    +0.000 A 
BRANCH  20  26
ATOM     26  N   UNL     1       1.477  11.610  19.421  0.00  0.00    +0.000 N 
ATOM     27  H   UNL     1       2.392  12.051  19.383  0.00  0.00    +0.000 HD
ATOM     28  H   UNL     1       0.962  11.872  20.255  0.00  0.00    +0.000 HD
ENDBRANCH  20  26
ENDBRANCH  16  23
ENDBRANCH   1  18
TORSDOF 5
ENDMDL
MODEL 3
REMARK VINA RESULT:      -6.3      7.460      9.927
REMARK  Name = 
REMARK  5 active torsions:
REMARK  status: ('A' for Active; 'I' for Inactive)
REMARK    1  A    between atoms: N_1  and  C_2
REMARK    2  A    between atoms: C_5  and  C_6
REMARK    3  A    between atoms: N_8  and  N_9
REMARK    4  A    between atoms: C_14  and  C_15
REMARK    5  A    between atoms: C_21  and  O_22
REMARK                            x       y       z     vdW  Elec       q    Type
REMARK                         _______ _______ _______ _____ _____    ______ ____
ROOT
ATOM      1  N   UNL     1      -0.911  11.923  21.115  0.00  0.00    +0.000 N 
ATOM      2  C   UNL     1      -1.647  11.890  22.268  0.00  0.00    +0.000 C 
ATOM      3  O   UNL     1      -1.524  11.209  23.262  0.00  0.00    +0.000 OA
ATOM      4  C   UNL     1      -2.630  12.956  21.727  0.00  0.00    +0.000 C 
ATOM      5 CL   UNL     1      -4.373  12.600  21.973  0.00  0.00    +0.000 Cl
ATOM      6  C   UNL     1      -1.911  12.718  20.360  0.00  0.00    +0.000 C 
ENDROOT
BRANCH   6   7
ATOM      7  C   UNL     1      -2.687  12.131  19.091  0.00  0.00    +0.000 A 
ATOM      8  C   UNL     1      -4.076  11.872  19.195  0.00  0.00    +0.000 A 
ATOM      9  C   UNL     1      -4.815  11.308  18.151  0.00  0.00    +0.000 A 
ATOM     10 BR   UNL     1      -6.662  10.975  18.384  0.00  0.00    +0.000 Br
ATOM     11  C   UNL     1      -4.198  10.984  16.953  0.00  0.00    +0.000 A 
ATOM     12  C   UNL     1      -2.836  11.237  16.799  0.00  0.00    +0.000 A 
ATOM     13  C   UNL     1      -2.106  11.804  17.856  0.00  0.00    +0.000 A 
BRANCH  13  14
ATOM     14  O   UNL     1      -0.769  12.045  17.677  0.00  0.00    +0.000 OA
ATOM     15  H   UNL     1      -0.541  11.857  16.749  0.00  0.00    +0.000 HD
ENDBRANCH  13  14
ENDBRANCH   6   7
BRANCH   1  18
ATOM     16  C   UNL     1       0.780  10.716  19.956  0.00  0.00    +0.000 C 
ATOM     17  O   UNL     1       1.424  11.745  19.754  0.00  0.00    +0.000 OA
ATOM     18  N   UNL     1      -0.452  10.722  20.579  0.00  0.00    +0.000 N 
ATOM     19  H   UNL     1      -0.959   9.888  20.851  0.00  0.00    +0.000 HD
BRANCH  16  23
ATOM     20  C   UNL     1       2.429   6.873  18.866  0.00  0.00    +0.000 A 
ATOM     21  C   UNL     1       1.951   7.131  20.149  0.00  0.00    +0.000 A 
ATOM     22  C   UNL     1       1.428   8.387  20.476  0.00  0.00    +0.000 A 
ATOM     23  C   UNL     1       1.334   9.400  19.510  0.00  0.00    +0.000 A 
ATOM     24  C   UNL     1       1.754   9.122  18.206  0.00  0.00    +0.000 A 
ATOM     25  C   UNL     1       2.276   7.856  17.887  0.00  0.00    +0.000 A 
BRANCH  20  26
ATOM     26  N   UNL     1       2.832   5.579  18.516  0.00  0.00    +0.000 N 
ATOM     27  H   UNL     1       2.218   5.124  17.846  0.00  0.00    +0.000 HD
ATOM     28  H   UNL     1       3.043   4.979  19.306  0.00  0.00    +0.000 HD
ENDBRANCH  20  26
ENDBRANCH  16  23
ENDBRANCH   1  18
TORSDOF 5
ENDMDL
MODEL 4
REMARK VINA RESULT:      -6.0      9.110     11.513
REMARK  Name = 
REMARK  5 active torsions:
REMARK  status: ('A' for Active; 'I' for Inactive)
REMARK    1  A    between atoms: N_1  and  C_2
REMARK    2  A    between atoms: C_5  and  C_6
REMARK    3  A    between atoms: N_8  and  N_9
REMARK    4  A    between atoms: C_14  and  C_15
REMARK    5  A    between atoms: C_21  and  O_22
REMARK                            x       y       z     vdW  Elec       q    Type
REMARK                         _______ _______ _______ _____ _____    ______ ____
ROOT
ATOM      1  N   UNL     1      -0.073  12.315  21.260  0.00  0.00    +0.000 N 
ATOM      2  C   UNL     1       0.732  13.351  20.870  0.00  0.00    +0.000 C 
ATOM      3  O   UNL     1       0.784  14.497  21.258  0.00  0.00    +0.000 OA
ATOM      4  C   UNL     1       1.405  12.480  19.783  0.00  0.00    +0.000 C 
ATOM      5 CL   UNL     1       1.590  13.255  18.173  0.00  0.00    +0.000 Cl
ATOM      6  C   UNL     1       0.265  11.459  20.096  0.00  0.00    +0.000 C 
ENDROOT
BRANCH   6   7
ATOM      7  C   UNL     1      -0.821  11.046  18.997  0.00  0.00    +0.000 A 
ATOM      8  C   UNL     1      -2.140  11.549  19.113  0.00  0.00    +0.000 A 
ATOM      9  C   UNL     1      -3.161  11.192  18.227  0.00  0.00    +0.000 A 
ATOM     10 BR   UNL     1      -4.900  11.894  18.470  0.00  0.00    +0.000 Br
ATOM     11  C   UNL     1      -2.904  10.321  17.180  0.00  0.00    +0.000 A 
ATOM     12  C   UNL     1      -1.616   9.815  17.016  0.00  0.00    +0.000 A 
ATOM     13  C   UNL     1      -0.602  10.182  17.913  0.00  0.00    +0.000 A 
BRANCH  13  14
ATOM     14  O   UNL     1       0.657   9.671  17.728  0.00  0.00    +0.000 OA
ATOM     15  H   UNL     1       1.306  10.316  18.062  0.00  0.00    +0.000 HD
ENDBRANCH  13  14
ENDBRANCH   6   7
BRANCH   1  18
ATOM     16  C   UNL     1      -1.943  12.049  22.706  0.00  0.00    +0.000 C 
ATOM     17  O   UNL     1      -1.321  11.267  23.423  0.00  0.00    +0.000 OA
ATOM     18  N   UNL     1      -1.411  12.577  21.547  0.00  0.00    +0.000 N 
ATOM     19  H   UNL     1      -1.854  13.298  20.991  0.00  0.00    +0.000 HD
BRANCH  16  23
ATOM     20  C   UNL     1      -5.958  13.064  23.946  0.00  0.00    +0.000 A 
ATOM     21  C   UNL     1      -5.045  12.472  24.819  0.00  0.00    +0.000 A 
ATOM     22  C   UNL     1      -3.754  12.149  24.388  0.00  0.00    +0.000 A 
ATOM     23  C   UNL     1      -3.335  12.450  23.084  0.00  0.00    +0.000 A 
ATOM     24  C   UNL     1      -4.228  13.101  22.227  0.00  0.00    +0.000 A 
ATOM     25  C   UNL     1      -5.522  13.424  22.669  0.00  0.00    +0.000 A 
BRANCH  20  26
ATOM     26  N   UNL     1      -7.201  13.497  24.421  0.00  0.00    +0.000 N 
ATOM     27  H   UNL     1      -7.205  13.725  25.411  0.00  0.00    +0.000 HD
ATOM     28  H   UNL     1      -7.978  12.898  24.165  0.00  0.00    +0.000 HD
ENDBRANCH  20  26
ENDBRANCH  16  23
ENDBRANCH   1  18
TORSDOF 5
ENDMDL
MODEL 5
REMARK VINA RESULT:      -6.0      7.089      9.481
REMARK  Name = 
REMARK  5 active torsions:
REMARK  status: ('A' for Active; 'I' for Inactive)
REMARK    1  A    between atoms: N_1  and  C_2
REMARK    2  A    between atoms: C_5  and  C_6
REMARK    3  A    between atoms: N_8  and  N_9
REMARK    4  A    between atoms: C_14  and  C_15
REMARK    5  A    between atoms: C_21  and  O_22
REMARK                            x       y       z     vdW  Elec       q    Type
REMARK                         _______ _______ _______ _____ _____    ______ ____
ROOT
ATOM      1  N   UNL     1       0.950  12.899  18.453  0.00  0.00    +0.000 N 
ATOM      2  C   UNL     1       1.762  13.993  18.581  0.00  0.00    +0.000 C 
ATOM      3  O   UNL     1       2.968  14.087  18.540  0.00  0.00    +0.000 OA
ATOM      4  C   UNL     1       0.550  14.919  18.843  0.00  0.00    +0.000 C 
ATOM      5 CL   UNL     1       0.734  16.065  20.214  0.00  0.00    +0.000 Cl
ATOM      6  C   UNL     1      -0.260  13.589  18.967  0.00  0.00    +0.000 C 
ENDROOT
BRANCH   6   7
ATOM      7  C   UNL     1      -0.971  13.159  20.332  0.00  0.00    +0.000 A 
ATOM      8  C   UNL     1      -2.386  13.093  20.378  0.00  0.00    +0.000 A 
ATOM      9  C   UNL     1      -3.086  12.780  21.546  0.00  0.00    +0.000 A 
ATOM     10 BR   UNL     1      -4.976  12.738  21.523  0.00  0.00    +0.000 Br
ATOM     11  C   UNL     1      -2.401  12.510  22.721  0.00  0.00    +0.000 A 
ATOM     12  C   UNL     1      -1.008  12.545  22.719  0.00  0.00    +0.000 A 
ATOM     13  C   UNL     1      -0.318  12.862  21.538  0.00  0.00    +0.000 A 
BRANCH  13  14
ATOM     14  O   UNL     1       1.052  12.887  21.563  0.00  0.00    +0.000 OA
ATOM     15  H   UNL     1       1.343  13.085  22.471  0.00  0.00    +0.000 HD
ENDBRANCH  13  14
ENDBRANCH   6   7
BRANCH   1  18
ATOM     16  C   UNL     1       0.759  10.531  18.589  0.00  0.00    +0.000 C 
ATOM     17  O   UNL     1      -0.178  10.527  17.791  0.00  0.00    +0.000 OA
ATOM     18  N   UNL     1       1.347  11.697  19.036  0.00  0.00    +0.000 N 
ATOM     19  H   UNL     1       2.181  11.733  19.610  0.00  0.00    +0.000 HD
BRANCH  16  23
ATOM     20  C   UNL     1       2.293   6.711  19.907  0.00  0.00    +0.000 A 
ATOM     21  C   UNL     1       2.499   7.180  18.610  0.00  0.00    +0.000 A 
ATOM     22  C   UNL     1       1.985   8.417  18.209  0.00  0.00    +0.000 A 
ATOM     23  C   UNL     1       1.289   9.234  19.112  0.00  0.00    +0.000 A 
ATOM     24  C   UNL     1       1.135   8.794  20.431  0.00  0.00    +0.000 A 
ATOM     25  C   UNL     1       1.657   7.549  20.825  0.00  0.00    +0.000 A 
BRANCH  20  26
ATOM     26  N   UNL     1       2.916   5.533  20.333  0.00  0.00    +0.000 N 
ATOM     27  H   UNL     1       3.204   4.923  19.574  0.00  0.00    +0.000 HD
ATOM     28  H   UNL     1       2.412   5.031  21.055  0.00  0.00    +0.000 HD
ENDBRANCH  20  26
ENDBRANCH  16  23
ENDBRANCH   1  18
TORSDOF 5
ENDMDL
MODEL 6
REMARK VINA RESULT:      -6.0      8.044     10.694
REMARK  Name = 
REMARK  5 active torsions:
REMARK  status: ('A' for Active; 'I' for Inactive)
REMARK    1  A    between atoms: N_1  and  C_2
REMARK    2  A    between atoms: C_5  and  C_6
REMARK    3  A    between atoms: N_8  and  N_9
REMARK    4  A    between atoms: C_14  and  C_15
REMARK    5  A    between atoms: C_21  and  O_22
REMARK                            x       y       z     vdW  Elec       q    Type
REMARK                         _______ _______ _______ _____ _____    ______ ____
ROOT
ATOM      1  N   UNL     1      -0.710  13.382  20.259  0.00  0.00    +0.000 N 
ATOM      2  C   UNL     1       0.303  14.289  20.107  0.00  0.00    +0.000 C 
ATOM      3  O   UNL     1       0.513  15.096  19.228  0.00  0.00    +0.000 OA
ATOM      4  C   UNL     1       1.001  13.797  21.397  0.00  0.00    +0.000 C 
ATOM      5 CL   UNL     1       2.774  13.537  21.270  0.00  0.00    +0.000 Cl
ATOM      6  C   UNL     1      -0.025  12.621  21.334  0.00  0.00    +0.000 C 
ENDROOT
BRANCH   6   7
ATOM      7  C   UNL     1       0.442  11.105  21.141  0.00  0.00    +0.000 A 
ATOM      8  C   UNL     1       0.937  10.694  19.879  0.00  0.00    +0.000 A 
ATOM      9  C   UNL     1       1.314   9.375  19.612  0.00  0.00    +0.000 A 
ATOM     10 BR   UNL     1       1.943   8.910  17.891  0.00  0.00    +0.000 Br
ATOM     11  C   UNL     1       1.219   8.407  20.601  0.00  0.00    +0.000 A 
ATOM     12  C   UNL     1       0.754   8.769  21.864  0.00  0.00    +0.000 A 
ATOM     13  C   UNL     1       0.379  10.097  22.117  0.00  0.00    +0.000 A 
BRANCH  13  14
ATOM     14  O   UNL     1      -0.073  10.427  23.369  0.00  0.00    +0.000 OA
ATOM     15  H   UNL     1       0.673  10.784  23.883  0.00  0.00    +0.000 HD
ENDBRANCH  13  14
ENDBRANCH   6   7
BRANCH   1  18
ATOM     16  C   UNL     1      -2.479  12.248  19.144  0.00  0.00    +0.000 C 
ATOM     17  O   UNL     1      -3.196  12.314  20.142  0.00  0.00    +0.000 OA
ATOM     18  N   UNL     1      -1.176  12.703  19.136  0.00  0.00    +0.000 N 
ATOM     19  H   UNL     1      -0.594  12.757  18.308  0.00  0.00    +0.000 HD
BRANCH  16  23
ATOM     20  C   UNL     1      -3.849  10.513  15.430  0.00  0.00    +0.000 A 
ATOM     21  C   UNL     1      -2.538  10.353  15.878  0.00  0.00    +0.000 A 
ATOM     22  C   UNL     1      -2.121  10.931  17.081  0.00  0.00    +0.000 A 
ATOM     23  C   UNL     1      -3.020  11.648  17.885  0.00  0.00    +0.000 A 
ATOM     24  C   UNL     1      -4.350  11.756  17.468  0.00  0.00    +0.000 A 
ATOM     25  C   UNL     1      -4.761  11.170  16.258  0.00  0.00    +0.000 A 
BRANCH  20  26
ATOM     26  N   UNL     1      -4.288   9.827  14.292  0.00  0.00    +0.000 N 
ATOM     27  H   UNL     1      -4.349   8.821  14.416  0.00  0.00    +0.000 HD
ATOM     28  H   UNL     1      -3.799  10.076  13.439  0.00  0.00    +0.000 HD
ENDBRANCH  20  26
ENDBRANCH  16  23
ENDBRANCH   1  18
TORSDOF 5
ENDMDL
MODEL 7
REMARK VINA RESULT:      -5.9      7.505      9.910
REMARK  Name = 
REMARK  5 active torsions:
REMARK  status: ('A' for Active; 'I' for Inactive)
REMARK    1  A    between atoms: N_1  and  C_2
REMARK    2  A    between atoms: C_5  and  C_6
REMARK    3  A    between atoms: N_8  and  N_9
REMARK    4  A    between atoms: C_14  and  C_15
REMARK    5  A    between atoms: C_21  and  O_22
REMARK                            x       y       z     vdW  Elec       q    Type
REMARK                         _______ _______ _______ _____ _____    ______ ____
ROOT
ATOM      1  N   UNL     1       0.498  13.356  18.690  0.00  0.00    +0.000 N 
ATOM      2  C   UNL     1       1.275  14.470  18.852  0.00  0.00    +0.000 C 
ATOM      3  O   UNL     1       2.473  14.616  18.755  0.00  0.00    +0.000 OA
ATOM      4  C   UNL     1       0.047  15.327  19.242  0.00  0.00    +0.000 C 
ATOM      5 CL   UNL     1       0.263  16.384  20.678  0.00  0.00    +0.000 Cl
ATOM      6  C   UNL     1      -0.706  13.960  19.314  0.00  0.00    +0.000 C 
ENDROOT
BRANCH   6   7
ATOM      7  C   UNL     1      -1.326  13.410  20.681  0.00  0.00    +0.000 A 
ATOM      8  C   UNL     1      -2.733  13.286  20.796  0.00  0.00    +0.000 A 
ATOM      9  C   UNL     1      -3.356  12.866  21.974  0.00  0.00    +0.000 A 
ATOM     10 BR   UNL     1      -5.242  12.750  22.047  0.00  0.00    +0.000 Br
ATOM     11  C   UNL     1      -2.598  12.544  23.089  0.00  0.00    +0.000 A 
ATOM     12  C   UNL     1      -1.209  12.634  23.017  0.00  0.00    +0.000 A 
ATOM     13  C   UNL     1      -0.597  13.057  21.827  0.00  0.00    +0.000 A 
BRANCH  13  14
ATOM     14  O   UNL     1       0.771  13.135  21.782  0.00  0.00    +0.000 OA
ATOM     15  H   UNL     1       1.138  12.250  21.958  0.00  0.00    +0.000 HD
ENDBRANCH  13  14
ENDBRANCH   6   7
BRANCH   1  18
ATOM     16  C   UNL     1       0.408  10.979  18.663  0.00  0.00    +0.000 C 
ATOM     17  O   UNL     1      -0.565  10.990  17.909  0.00  0.00    +0.000 OA
ATOM     18  N   UNL     1       0.970  12.135  19.166  0.00  0.00    +0.000 N 
ATOM     19  H   UNL     1       1.828  12.166  19.703  0.00  0.00    +0.000 HD
BRANCH  16  23
ATOM     20  C   UNL     1       2.149   7.265  20.025  0.00  0.00    +0.000 A 
ATOM     21  C   UNL     1       1.347   8.049  20.853  0.00  0.00    +0.000 A 
ATOM     22  C   UNL     1       0.802   9.250  20.387  0.00  0.00    +0.000 A 
ATOM     23  C   UNL     1       1.013   9.671  19.066  0.00  0.00    +0.000 A 
ATOM     24  C   UNL     1       1.766   8.855  18.215  0.00  0.00    +0.000 A 
ATOM     25  C   UNL     1       2.308   7.649  18.692  0.00  0.00    +0.000 A 
BRANCH  20  26
ATOM     26  N   UNL     1       2.585   6.008  20.459  0.00  0.00    +0.000 N 
ATOM     27  H   UNL     1       1.900   5.505  21.016  0.00  0.00    +0.000 HD
ATOM     28  H   UNL     1       3.501   6.010  20.894  0.00  0.00    +0.000 HD
ENDBRANCH  20  26
ENDBRANCH  16  23
ENDBRANCH   1  18
TORSDOF 5
ENDMDL
MODEL 8
REMARK VINA RESULT:      -5.9      9.386     11.761
REMARK  Name = 
REMARK  5 active torsions:
REMARK  status: ('A' for Active; 'I' for Inactive)
REMARK    1  A    between atoms: N_1  and  C_2
REMARK    2  A    between atoms: C_5  and  C_6
REMARK    3  A    between atoms: N_8  and  N_9
REMARK    4  A    between atoms: C_14  and  C_15
REMARK    5  A    between atoms: C_21  and  O_22
REMARK                            x       y       z     vdW  Elec       q    Type
REMARK                         _______ _______ _______ _____ _____    ______ ____
ROOT
ATOM      1  N   UNL     1      -1.549  12.048  21.402  0.00  0.00    +0.000 N 
ATOM      2  C   UNL     1      -2.284  12.564  22.434  0.00  0.00    +0.000 C 
ATOM      3  O   UNL     1      -3.456  12.432  22.709  0.00  0.00    +0.000 OA
ATOM      4  C   UNL     1      -1.066  13.354  22.969  0.00  0.00    +0.000 C 
ATOM      5 CL   UNL     1      -1.388  15.064  23.416  0.00  0.00    +0.000 Cl
ATOM      6  C   UNL     1      -0.393  12.954  21.618  0.00  0.00    +0.000 C 
ENDROOT
BRANCH   6   7
ATOM      7  C   UNL     1       0.047  14.048  20.539  0.00  0.00    +0.000 A 
ATOM      8  C   UNL     1       1.419  14.178  20.211  0.00  0.00    +0.000 A 
ATOM      9  C   UNL     1       1.891  15.146  19.320  0.00  0.00    +0.000 A 
ATOM     10 BR   UNL     1       3.743  15.262  18.958  0.00  0.00    +0.000 Br
ATOM     11  C   UNL     1       1.008  16.024  18.710  0.00  0.00    +0.000 A 
ATOM     12  C   UNL     1      -0.353  15.922  18.988  0.00  0.00    +0.000 A 
ATOM     13  C   UNL     1      -0.813  14.946  19.885  0.00  0.00    +0.000 A 
BRANCH  13  14
ATOM     14  O   UNL     1      -2.158  14.866  20.139  0.00  0.00    +0.000 OA
ATOM     15  H   UNL     1      -2.348  13.995  20.531  0.00  0.00    +0.000 HD
ENDBRANCH  13  14
ENDBRANCH   6   7
BRANCH   1  18
ATOM     16  C   UNL     1      -1.690  10.988  19.277  0.00  0.00    +0.000 C 
ATOM     17  O   UNL     1      -0.735  10.258  19.540  0.00  0.00    +0.000 OA
ATOM     18  N   UNL     1      -2.128  11.975  20.137  0.00  0.00    +0.000 N 
ATOM     19  H   UNL     1      -2.969  12.522  19.999  0.00  0.00    +0.000 HD
BRANCH  16  23
ATOM     20  C   UNL     1      -3.599  10.440  15.438  0.00  0.00    +0.000 A 
ATOM     21  C   UNL     1      -2.441   9.747  15.790  0.00  0.00    +0.000 A 
ATOM     22  C   UNL     1      -1.841   9.950  17.037  0.00  0.00    +0.000 A 
ATOM     23  C   UNL     1      -2.413  10.819  17.978  0.00  0.00    +0.000 A 
ATOM     24  C   UNL     1      -3.608  11.467  17.651  0.00  0.00    +0.000 A 
ATOM     25  C   UNL     1      -4.204  11.256  16.395  0.00  0.00    +0.000 A 
BRANCH  20  26
ATOM     26  N   UNL     1      -4.259  10.138  14.242  0.00  0.00    +0.000 N 
ATOM     27  H   UNL     1      -5.261  10.297  14.274  0.00  0.00    +0.000 HD
ATOM     28  H   UNL     1      -4.030   9.228  13.857  0.00  0.00    +0.000 HD
ENDBRANCH  20  26
ENDBRANCH  16  23
ENDBRANCH   1  18
TORSDOF 5
ENDMDL
MODEL 9
REMARK VINA RESULT:      -5.9     10.245     12.590
REMARK  Name = 
REMARK  5 active torsions:
REMARK  status: ('A' for Active; 'I' for Inactive)
REMARK    1  A    between atoms: N_1  and  C_2
REMARK    2  A    between atoms: C_5  and  C_6
REMARK    3  A    between atoms: N_8  and  N_9
REMARK    4  A    between atoms: C_14  and  C_15
REMARK    5  A    between atoms: C_21  and  O_22
REMARK                            x       y       z     vdW  Elec       q    Type
REMARK                         _______ _______ _______ _____ _____    ______ ____
ROOT
ATOM      1  N   UNL     1      -4.347  13.389  22.251  0.00  0.00    +0.000 N 
ATOM      2  C   UNL     1      -5.329  12.962  23.104  0.00  0.00    +0.000 C 
ATOM      3  O   UNL     1      -5.266  12.259  24.088  0.00  0.00    +0.000 OA
ATOM      4  C   UNL     1      -6.426  13.661  22.266  0.00  0.00    +0.000 C 
ATOM      5 CL   UNL     1      -7.894  12.679  21.936  0.00  0.00    +0.000 Cl
ATOM      6  C   UNL     1      -5.294  13.857  21.207  0.00  0.00    +0.000 C 
ENDROOT
BRANCH   6   7
ATOM      7  C   UNL     1      -5.368  13.183  19.760  0.00  0.00    +0.000 A 
ATOM      8  C   UNL     1      -4.405  12.205  19.407  0.00  0.00    +0.000 A 
ATOM      9  C   UNL     1      -4.367  11.609  18.144  0.00  0.00    +0.000 A 
ATOM     10 BR   UNL     1      -3.031  10.329  17.751  0.00  0.00    +0.000 Br
ATOM     11  C   UNL     1      -5.297  11.959  17.177  0.00  0.00    +0.000 A 
ATOM     12  C   UNL     1      -6.275  12.903  17.485  0.00  0.00    +0.000 A 
ATOM     13  C   UNL     1      -6.301  13.494  18.758  0.00  0.00    +0.000 A 
BRANCH  13  14
ATOM     14  O   UNL     1      -7.274  14.418  19.035  0.00  0.00    +0.000 OA
ATOM     15  H   UNL     1      -6.879  15.138  19.558  0.00  0.00    +0.000 HD
ENDBRANCH  13  14
ENDBRANCH   6   7
BRANCH   1  18
ATOM     16  C   UNL     1      -2.141  12.570  22.595  0.00  0.00    +0.000 C 
ATOM     17  O   UNL     1      -1.905  13.451  23.421  0.00  0.00    +0.000 OA
ATOM     18  N   UNL     1      -3.332  12.503  21.900  0.00  0.00    +0.000 N 
ATOM     19  H   UNL     1      -3.597  11.737  21.293  0.00  0.00    +0.000 HD
BRANCH  16  23
ATOM     20  C   UNL     1       0.840   9.499  21.988  0.00  0.00    +0.000 A 
ATOM     21  C   UNL     1      -0.073   9.441  23.040  0.00  0.00    +0.000 A 
ATOM     22  C   UNL     1      -1.023  10.452  23.216  0.00  0.00    +0.000 A 
ATOM     23  C   UNL     1      -1.107  11.525  22.316  0.00  0.00    +0.000 A 
ATOM     24  C   UNL     1      -0.233  11.552  21.224  0.00  0.00    +0.000 A 
ATOM     25  C   UNL     1       0.717  10.530  21.055  0.00  0.00    +0.000 A 
BRANCH  20  26
ATOM     26  N   UNL     1       1.701   8.423  21.748  0.00  0.00    +0.000 N 
ATOM     27  H   UNL     1       2.633   8.548  22.132  0.00  0.00    +0.000 HD
ATOM     28  H   UNL     1       1.725   8.114  20.782  0.00  0.00    +0.000 HD
ENDBRANCH  20  26
ENDBRANCH  16  23
ENDBRANCH   1  18
TORSDOF 5
ENDMDL
