MODEL 1
REMARK VINA RESULT:      -6.9      0.000      0.000
REMARK  Name = 
REMARK  18 active torsions:
REMARK  status: ('A' for Active; 'I' for Inactive)
REMARK    1  A    between atoms: C_1  and  C_2
REMARK    2  A    between atoms: C_2  and  O_3
REMARK    3  A    between atoms: O_3  and  C_4
REMARK    4  A    between atoms: C_4  and  C_6
REMARK    5  A    between atoms: C_6  and  N_7
REMARK    6  A    between atoms: C_6  and  C_11
REMARK    7  A    between atoms: C_8  and  C_9
REMARK    8  A    between atoms: C_11  and  O_12
REMARK    9  A    between atoms: C_11  and  C_16
REMARK   10  A    between atoms: O_12  and  C_13
REMARK   11  A    between atoms: C_13  and  C_14
REMARK   12  A    between atoms: C_20  and  N_21
REMARK   13  A    between atoms: N_21  and  C_22
REMARK   14  A    between atoms: N_21  and  C_25
REMARK   15  A    between atoms: C_22  and  C_23
REMARK   16  A    between atoms: C_23  and  O_24
REMARK   17  A    between atoms: C_25  and  C_26
REMARK   18  A    between atoms: C_26  and  O_27
REMARK                            x       y       z     vdW  Elec       q    Type
REMARK                         _______ _______ _______ _____ _____    ______ ____
ROOT
ATOM      1  C   UNL     1       2.958   4.981  19.697  0.00  0.00    +0.000 C 
ENDROOT
BRANCH   1   2
ATOM      2  C   UNL     1       2.620   6.444  19.347  0.00  0.00    +0.000 A 
ATOM      3  C   UNL     1       2.997   6.920  18.096  0.00  0.00    +0.000 A 
ATOM      4  C   UNL     1       2.599   8.170  17.650  0.00  0.00    +0.000 A 
ATOM      5  C   UNL     1       1.873   8.988  18.507  0.00  0.00    +0.000 A 
ATOM      6  C   UNL     1       1.531   8.620  19.817  0.00  0.00    +0.000 A 
ATOM      7  C   UNL     1       1.922   7.318  20.230  0.00  0.00    +0.000 A 
BRANCH   6   8
ATOM      8  N   UNL     1       0.818   9.509  20.620  0.00  0.00    +0.000 N 
BRANCH   8   9
ATOM      9  C   UNL     1       0.951   9.613  22.087  0.00  0.00    +0.000 C 
BRANCH   9  10
ATOM     10  C   UNL     1      -0.377   9.555  22.865  0.00  0.00    +0.000 C 
BRANCH  10  11
ATOM     11  O   UNL     1      -0.766  10.817  23.406  0.00  0.00    +0.000 OA
ATOM     12  H   UNL     1      -0.011  11.415  23.264  0.00  0.00    +0.000 HD
ENDBRANCH  10  11
ENDBRANCH   9  10
ENDBRANCH   8   9
BRANCH   8  13
ATOM     13  C   UNL     1      -0.373  10.188  20.041  0.00  0.00    +0.000 C 
BRANCH  13  14
ATOM     14  C   UNL     1      -0.204  11.709  19.896  0.00  0.00    +0.000 C 
BRANCH  14  15
ATOM     15  O   UNL     1      -1.446  12.399  20.036  0.00  0.00    +0.000 OA
ATOM     16  H   UNL     1      -1.409  12.812  20.918  0.00  0.00    +0.000 HD
ENDBRANCH  14  15
ENDBRANCH  13  14
ENDBRANCH   8  13
ENDBRANCH   6   8
ENDBRANCH   1   2
BRANCH   1  17
ATOM     17  C   UNL     1       4.504   4.671  19.716  0.00  0.00    +0.000 C 
BRANCH  17  18
ATOM     18  N   UNL     1       5.309   5.405  18.717  0.00  0.00    +0.000 N 
ATOM     19  C   UNL     1       6.625   5.740  18.919  0.00  0.00    +0.000 C 
ATOM     20  C   UNL     1       7.190   6.667  17.872  0.00  0.00    +0.000 C 
ATOM     21  O   UNL     1       7.281   5.380  19.889  0.00  0.00    +0.000 OA
ATOM     22  H   UNL     1       4.809   5.811  17.934  0.00  0.00    +0.000 HD
ENDBRANCH  17  18
BRANCH  17  23
ATOM     23  C   UNL     1       4.764   3.181  19.453  0.00  0.00    +0.000 C 
ATOM     24  O   UNL     1       4.957   2.334  20.315  0.00  0.00    +0.000 OA
BRANCH  23  25
ATOM     25  O   UNL     1       4.563   2.890  18.133  0.00  0.00    +0.000 OA
BRANCH  25  27
ATOM     26  C   UNL     1       2.406   2.981  16.999  0.00  0.00    +0.000 C 
ATOM     27  C   UNL     1       3.373   2.146  17.823  0.00  0.00    +0.000 C 
ENDBRANCH  25  27
ENDBRANCH  23  25
ENDBRANCH  17  23
ENDBRANCH   1  17
BRANCH   1  28
ATOM     28  O   UNL     1       2.333   4.808  21.003  0.00  0.00    +0.000 OA
BRANCH  28  29
ATOM     29  C   UNL     1       1.786   3.610  21.326  0.00  0.00    +0.000 C 
ATOM     30  C   UNL     1       0.774   3.218  20.283  0.00  0.00    +0.000 C 
ATOM     31  O   UNL     1       2.122   2.915  22.273  0.00  0.00    +0.000 OA
ENDBRANCH  28  29
ENDBRANCH   1  28
TORSDOF 15
ENDMDL
MODEL 2
REMARK VINA RESULT:      -6.7      2.406      3.895
REMARK  Name = 
REMARK  18 active torsions:
REMARK  status: ('A' for Active; 'I' for Inactive)
REMARK    1  A    between atoms: C_1  and  C_2
REMARK    2  A    between atoms: C_2  and  O_3
REMARK    3  A    between atoms: O_3  and  C_4
REMARK    4  A    between atoms: C_4  and  C_6
REMARK    5  A    between atoms: C_6  and  N_7
REMARK    6  A    between atoms: C_6  and  C_11
REMARK    7  A    between atoms: C_8  and  C_9
REMARK    8  A    between atoms: C_11  and  O_12
REMARK    9  A    between atoms: C_11  and  C_16
REMARK   10  A    between atoms: O_12  and  C_13
REMARK   11  A    between atoms: C_13  and  C_14
REMARK   12  A    between atoms: C_20  and  N_21
REMARK   13  A    between atoms: N_21  and  C_22
REMARK   14  A    between atoms: N_21  and  C_25
REMARK   15  A    between atoms: C_22  and  C_23
REMARK   16  A    between atoms: C_23  and  O_24
REMARK   17  A    between atoms: C_25  and  C_26
REMARK   18  A    between atoms: C_26  and  O_27
REMARK                            x       y       z     vdW  Elec       q    Type
REMARK                         _______ _______ _______ _____ _____    ______ ____
ROOT
ATOM      1  C   UNL     1       3.160   4.889  17.700  0.00  0.00    +0.000 C 
ENDROOT
BRANCH   1   2
ATOM      2  C   UNL     1       2.537   6.007  18.560  0.00  0.00    +0.000 A 
ATOM      3  C   UNL     1       2.300   5.742  19.905  0.00  0.00    +0.000 A 
ATOM      4  C   UNL     1       1.886   6.738  20.774  0.00  0.00    +0.000 A 
ATOM      5  C   UNL     1       1.632   8.007  20.268  0.00  0.00    +0.000 A 
ATOM      6  C   UNL     1       1.759   8.334  18.909  0.00  0.00    +0.000 A 
ATOM      7  C   UNL     1       2.220   7.299  18.051  0.00  0.00    +0.000 A 
BRANCH   6   8
ATOM      8  N   UNL     1       1.464   9.627  18.480  0.00  0.00    +0.000 N 
BRANCH   8   9
ATOM      9  C   UNL     1       2.451  10.578  17.928  0.00  0.00    +0.000 C 
BRANCH   9  10
ATOM     10  C   UNL     1       2.255  12.042  18.365  0.00  0.00    +0.000 C 
BRANCH  10  11
ATOM     11  O   UNL     1       2.311  12.963  17.277  0.00  0.00    +0.000 OA
ATOM     12  H   UNL     1       1.416  13.336  17.194  0.00  0.00    +0.000 HD
ENDBRANCH  10  11
ENDBRANCH   9  10
ENDBRANCH   8   9
BRANCH   8  13
ATOM     13  C   UNL     1       0.158  10.223  18.871  0.00  0.00    +0.000 C 
BRANCH  13  14
ATOM     14  C   UNL     1      -0.928  10.087  17.791  0.00  0.00    +0.000 C 
BRANCH  14  15
ATOM     15  O   UNL     1      -1.449  11.356  17.397  0.00  0.00    +0.000 OA
ATOM     16  H   UNL     1      -2.057  11.163  16.659  0.00  0.00    +0.000 HD
ENDBRANCH  14  15
ENDBRANCH  13  14
ENDBRANCH   8  13
ENDBRANCH   6   8
ENDBRANCH   1   2
BRANCH   1  17
ATOM     17  C   UNL     1       4.519   5.298  17.012  0.00  0.00    +0.000 C 
BRANCH  17  18
ATOM     18  N   UNL     1       4.978   4.400  15.931  0.00  0.00    +0.000 N 
ATOM     19  C   UNL     1       5.766   4.825  14.891  0.00  0.00    +0.000 C 
ATOM     20  C   UNL     1       5.938   3.804  13.794  0.00  0.00    +0.000 C 
ATOM     21  O   UNL     1       6.245   5.949  14.812  0.00  0.00    +0.000 OA
ATOM     22  H   UNL     1       4.548   3.483  15.885  0.00  0.00    +0.000 HD
ENDBRANCH  17  18
BRANCH  17  23
ATOM     23  C   UNL     1       5.660   5.335  18.039  0.00  0.00    +0.000 C 
ATOM     24  O   UNL     1       6.164   4.356  18.572  0.00  0.00    +0.000 OA
BRANCH  23  25
ATOM     25  O   UNL     1       6.166   6.601  18.140  0.00  0.00    +0.000 OA
BRANCH  25  27
ATOM     26  C   UNL     1       8.003   8.140  17.692  0.00  0.00    +0.000 C 
ATOM     27  C   UNL     1       7.596   6.719  18.043  0.00  0.00    +0.000 C 
ENDBRANCH  25  27
ENDBRANCH  23  25
ENDBRANCH  17  23
ENDBRANCH   1  17
BRANCH   1  28
ATOM     28  O   UNL     1       3.318   3.797  18.654  0.00  0.00    +0.000 OA
BRANCH  28  29
ATOM     29  C   UNL     1       2.937   2.545  18.300  0.00  0.00    +0.000 C 
ATOM     30  C   UNL     1       1.462   2.374  18.552  0.00  0.00    +0.000 C 
ATOM     31  O   UNL     1       3.660   1.710  17.779  0.00  0.00    +0.000 OA
ENDBRANCH  28  29
ENDBRANCH   1  28
TORSDOF 15
ENDMDL
MODEL 3
REMARK VINA RESULT:      -6.6      1.762      3.135
REMARK  Name = 
REMARK  18 active torsions:
REMARK  status: ('A' for Active; 'I' for Inactive)
REMARK    1  A    between atoms: C_1  and  C_2
REMARK    2  A    between atoms: C_2  and  O_3
REMARK    3  A    between atoms: O_3  and  C_4
REMARK    4  A    between atoms: C_4  and  C_6
REMARK    5  A    between atoms: C_6  and  N_7
REMARK    6  A    between atoms: C_6  and  C_11
REMARK    7  A    between atoms: C_8  and  C_9
REMARK    8  A    between atoms: C_11  and  O_12
REMARK    9  A    between atoms: C_11  and  C_16
REMARK   10  A    between atoms: O_12  and  C_13
REMARK   11  A    between atoms: C_13  and  C_14
REMARK   12  A    between atoms: C_20  and  N_21
REMARK   13  A    between atoms: N_21  and  C_22
REMARK   14  A    between atoms: N_21  and  C_25
REMARK   15  A    between atoms: C_22  and  C_23
REMARK   16  A    between atoms: C_23  and  O_24
REMARK   17  A    between atoms: C_25  and  C_26
REMARK   18  A    between atoms: C_26  and  O_27
REMARK                            x       y       z     vdW  Elec       q    Type
REMARK                         _______ _______ _______ _____ _____    ______ ____
ROOT
ATOM      1  C   UNL     1       3.213   5.643  18.470  0.00  0.00    +0.000 C 
ENDROOT
BRANCH   1   2
ATOM      2  C   UNL     1       2.699   7.096  18.516  0.00  0.00    +0.000 A 
ATOM      3  C   UNL     1       3.078   7.956  17.490  0.00  0.00    +0.000 A 
ATOM      4  C   UNL     1       2.538   9.227  17.378  0.00  0.00    +0.000 A 
ATOM      5  C   UNL     1       1.659   9.671  18.359  0.00  0.00    +0.000 A 
ATOM      6  C   UNL     1       1.296   8.901  19.474  0.00  0.00    +0.000 A 
ATOM      7  C   UNL     1       1.839   7.589  19.539  0.00  0.00    +0.000 A 
BRANCH   6   8
ATOM      8  N   UNL     1       0.424   9.429  20.423  0.00  0.00    +0.000 N 
BRANCH   8   9
ATOM      9  C   UNL     1      -0.058  10.826  20.441  0.00  0.00    +0.000 C 
BRANCH   9  10
ATOM     10  C   UNL     1      -1.315  11.089  19.590  0.00  0.00    +0.000 C 
BRANCH  10  11
ATOM     11  O   UNL     1      -1.090  12.014  18.528  0.00  0.00    +0.000 OA
ATOM     12  H   UNL     1      -1.519  11.632  17.742  0.00  0.00    +0.000 HD
ENDBRANCH  10  11
ENDBRANCH   9  10
ENDBRANCH   8   9
BRANCH   8  13
ATOM     13  C   UNL     1       0.188   8.661  21.676  0.00  0.00    +0.000 C 
BRANCH  13  14
ATOM     14  C   UNL     1       0.676   9.384  22.942  0.00  0.00    +0.000 C 
BRANCH  14  15
ATOM     15  O   UNL     1      -0.405   9.736  23.805  0.00  0.00    +0.000 OA
ATOM     16  H   UNL     1      -0.496   8.983  24.417  0.00  0.00    +0.000 HD
ENDBRANCH  14  15
ENDBRANCH  13  14
ENDBRANCH   8  13
ENDBRANCH   6   8
ENDBRANCH   1   2
BRANCH   1  17
ATOM     17  C   UNL     1       4.732   5.518  18.064  0.00  0.00    +0.000 C 
BRANCH  17  18
ATOM     18  N   UNL     1       4.993   4.789  16.805  0.00  0.00    +0.000 N 
ATOM     19  C   UNL     1       5.441   5.405  15.663  0.00  0.00    +0.000 C 
ATOM     20  C   UNL     1       5.435   4.519  14.444  0.00  0.00    +0.000 C 
ATOM     21  O   UNL     1       5.760   6.586  15.605  0.00  0.00    +0.000 OA
ATOM     22  H   UNL     1       4.666   3.831  16.755  0.00  0.00    +0.000 HD
ENDBRANCH  17  18
BRANCH  17  23
ATOM     23  C   UNL     1       5.527   4.780  19.150  0.00  0.00    +0.000 C 
ATOM     24  O   UNL     1       5.464   3.580  19.381  0.00  0.00    +0.000 OA
BRANCH  23  25
ATOM     25  O   UNL     1       6.460   5.612  19.703  0.00  0.00    +0.000 OA
BRANCH  25  27
ATOM     26  C   UNL     1       7.961   6.961  18.333  0.00  0.00    +0.000 C 
ATOM     27  C   UNL     1       7.744   5.641  19.056  0.00  0.00    +0.000 C 
ENDBRANCH  25  27
ENDBRANCH  23  25
ENDBRANCH  17  23
ENDBRANCH   1  17
BRANCH   1  28
ATOM     28  O   UNL     1       2.951   5.165  19.822  0.00  0.00    +0.000 OA
BRANCH  28  29
ATOM     29  C   UNL     1       2.061   4.159  20.012  0.00  0.00    +0.000 C 
ATOM     30  C   UNL     1       2.050   3.760  21.463  0.00  0.00    +0.000 C 
ATOM     31  O   UNL     1       1.320   3.704  19.154  0.00  0.00    +0.000 OA
ENDBRANCH  28  29
ENDBRANCH   1  28
TORSDOF 15
ENDMDL
MODEL 4
REMARK VINA RESULT:      -6.5      2.796      4.812
REMARK  Name = 
REMARK  18 active torsions:
REMARK  status: ('A' for Active; 'I' for Inactive)
REMARK    1  A    between atoms: C_1  and  C_2
REMARK    2  A    between atoms: C_2  and  O_3
REMARK    3  A    between atoms: O_3  and  C_4
REMARK    4  A    between atoms: C_4  and  C_6
REMARK    5  A    between atoms: C_6  and  N_7
REMARK    6  A    between atoms: C_6  and  C_11
REMARK    7  A    between atoms: C_8  and  C_9
REMARK    8  A    between atoms: C_11  and  O_12
REMARK    9  A    between atoms: C_11  and  C_16
REMARK   10  A    between atoms: O_12  and  C_13
REMARK   11  A    between atoms: C_13  and  C_14
REMARK   12  A    between atoms: C_20  and  N_21
REMARK   13  A    between atoms: N_21  and  C_22
REMARK   14  A    between atoms: N_21  and  C_25
REMARK   15  A    between atoms: C_22  and  C_23
REMARK   16  A    between atoms: C_23  and  O_24
REMARK   17  A    between atoms: C_25  and  C_26
REMARK   18  A    between atoms: C_26  and  O_27
REMARK                            x       y       z     vdW  Elec       q    Type
REMARK                         _______ _______ _______ _____ _____    ______ ____
ROOT
ATOM      1  C   UNL     1       5.113   5.774  17.696  0.00  0.00    +0.000 C 
ENDROOT
BRANCH   1   2
ATOM      2  C   UNL     1       3.879   6.421  18.356  0.00  0.00    +0.000 A 
ATOM      3  C   UNL     1       3.299   5.767  19.439  0.00  0.00    +0.000 A 
ATOM      4  C   UNL     1       2.286   6.356  20.178  0.00  0.00    +0.000 A 
ATOM      5  C   UNL     1       1.793   7.591  19.775  0.00  0.00    +0.000 A 
ATOM      6  C   UNL     1       2.259   8.274  18.642  0.00  0.00    +0.000 A 
ATOM      7  C   UNL     1       3.323   7.660  17.928  0.00  0.00    +0.000 A 
BRANCH   6   8
ATOM      8  N   UNL     1       1.695   9.501  18.295  0.00  0.00    +0.000 N 
BRANCH   8   9
ATOM      9  C   UNL     1       2.429  10.620  17.670  0.00  0.00    +0.000 C 
BRANCH   9  10
ATOM     10  C   UNL     1       2.230  11.987  18.352  0.00  0.00    +0.000 C 
BRANCH  10  11
ATOM     11  O   UNL     1       2.265  13.080  17.437  0.00  0.00    +0.000 OA
ATOM     12  H   UNL     1       3.206  13.274  17.283  0.00  0.00    +0.000 HD
ENDBRANCH  10  11
ENDBRANCH   9  10
ENDBRANCH   8   9
BRANCH   8  13
ATOM     13  C   UNL     1       0.359   9.849  18.852  0.00  0.00    +0.000 C 
BRANCH  13  14
ATOM     14  C   UNL     1      -0.757   9.883  17.795  0.00  0.00    +0.000 C 
BRANCH  14  15
ATOM     15  O   UNL     1      -1.146  11.219  17.473  0.00  0.00    +0.000 OA
ATOM     16  H   UNL     1      -0.738  11.399  16.606  0.00  0.00    +0.000 HD
ENDBRANCH  14  15
ENDBRANCH  13  14
ENDBRANCH   8  13
ENDBRANCH   6   8
ENDBRANCH   1   2
BRANCH   1  17
ATOM     17  C   UNL     1       4.759   4.642  16.656  0.00  0.00    +0.000 C 
BRANCH  17  18
ATOM     18  N   UNL     1       4.524   3.302  17.233  0.00  0.00    +0.000 N 
ATOM     19  C   UNL     1       3.268   2.790  17.446  0.00  0.00    +0.000 C 
ATOM     20  C   UNL     1       3.253   1.506  18.236  0.00  0.00    +0.000 C 
ATOM     21  O   UNL     1       2.235   3.344  17.089  0.00  0.00    +0.000 OA
ATOM     22  H   UNL     1       5.326   2.829  17.634  0.00  0.00    +0.000 HD
ENDBRANCH  17  18
BRANCH  17  23
ATOM     23  C   UNL     1       5.893   4.467  15.635  0.00  0.00    +0.000 C 
ATOM     24  O   UNL     1       7.022   4.072  15.894  0.00  0.00    +0.000 OA
BRANCH  23  25
ATOM     25  O   UNL     1       5.417   4.630  14.365  0.00  0.00    +0.000 OA
BRANCH  25  27
ATOM     26  C   UNL     1       6.802   4.145  12.417  0.00  0.00    +0.000 C 
ATOM     27  C   UNL     1       5.786   3.615  13.416  0.00  0.00    +0.000 C 
ENDBRANCH  25  27
ENDBRANCH  23  25
ENDBRANCH  17  23
ENDBRANCH   1  17
BRANCH   1  28
ATOM     28  O   UNL     1       5.785   6.912  17.082  0.00  0.00    +0.000 OA
BRANCH  28  29
ATOM     29  C   UNL     1       7.022   7.266  17.510  0.00  0.00    +0.000 C 
ATOM     30  C   UNL     1       7.522   6.253  18.506  0.00  0.00    +0.000 C 
ATOM     31  O   UNL     1       7.669   8.214  17.090  0.00  0.00    +0.000 OA
ENDBRANCH  28  29
ENDBRANCH   1  28
TORSDOF 15
ENDMDL
MODEL 5
REMARK VINA RESULT:      -6.5      0.868      1.849
REMARK  Name = 
REMARK  18 active torsions:
REMARK  status: ('A' for Active; 'I' for Inactive)
REMARK    1  A    between atoms: C_1  and  C_2
REMARK    2  A    between atoms: C_2  and  O_3
REMARK    3  A    between atoms: O_3  and  C_4
REMARK    4  A    between atoms: C_4  and  C_6
REMARK    5  A    between atoms: C_6  and  N_7
REMARK    6  A    between atoms: C_6  and  C_11
REMARK    7  A    between atoms: C_8  and  C_9
REMARK    8  A    between atoms: C_11  and  O_12
REMARK    9  A    between atoms: C_11  and  C_16
REMARK   10  A    between atoms: O_12  and  C_13
REMARK   11  A    between atoms: C_13  and  C_14
REMARK   12  A    between atoms: C_20  and  N_21
REMARK   13  A    between atoms: N_21  and  C_22
REMARK   14  A    between atoms: N_21  and  C_25
REMARK   15  A    between atoms: C_22  and  C_23
REMARK   16  A    between atoms: C_23  and  O_24
REMARK   17  A    between atoms: C_25  and  C_26
REMARK   18  A    between atoms: C_26  and  O_27
REMARK                            x       y       z     vdW  Elec       q    Type
REMARK                         _______ _______ _______ _____ _____    ______ ____
ROOT
ATOM      1  C   UNL     1       2.882   5.179  19.530  0.00  0.00    +0.000 C 
ENDROOT
BRANCH   1   2
ATOM      2  C   UNL     1       2.601   6.649  19.162  0.00  0.00    +0.000 A 
ATOM      3  C   UNL     1       2.992   7.094  17.903  0.00  0.00    +0.000 A 
ATOM      4  C   UNL     1       2.640   8.352  17.442  0.00  0.00    +0.000 A 
ATOM      5  C   UNL     1       1.949   9.209  18.290  0.00  0.00    +0.000 A 
ATOM      6  C   UNL     1       1.597   8.871  19.606  0.00  0.00    +0.000 A 
ATOM      7  C   UNL     1       1.939   7.560  20.034  0.00  0.00    +0.000 A 
BRANCH   6   8
ATOM      8  N   UNL     1       0.921   9.797  20.398  0.00  0.00    +0.000 N 
BRANCH   8   9
ATOM      9  C   UNL     1       0.339  11.062  19.906  0.00  0.00    +0.000 C 
BRANCH   9  10
ATOM     10  C   UNL     1      -1.110  10.953  19.393  0.00  0.00    +0.000 C 
BRANCH  10  11
ATOM     11  O   UNL     1      -1.975  11.945  19.943  0.00  0.00    +0.000 OA
ATOM     12  H   UNL     1      -1.776  12.770  19.466  0.00  0.00    +0.000 HD
ENDBRANCH  10  11
ENDBRANCH   9  10
ENDBRANCH   8   9
BRANCH   8  13
ATOM     13  C   UNL     1       1.043   9.688  21.877  0.00  0.00    +0.000 C 
BRANCH  13  14
ATOM     14  C   UNL     1      -0.257   9.247  22.571  0.00  0.00    +0.000 C 
BRANCH  14  15
ATOM     15  O   UNL     1      -0.294   9.651  23.939  0.00  0.00    +0.000 OA
ATOM     16  H   UNL     1      -0.632   8.875  24.424  0.00  0.00    +0.000 HD
ENDBRANCH  14  15
ENDBRANCH  13  14
ENDBRANCH   8  13
ENDBRANCH   6   8
ENDBRANCH   1   2
BRANCH   1  17
ATOM     17  C   UNL     1       4.418   4.822  19.597  0.00  0.00    +0.000 C 
BRANCH  17  18
ATOM     18  N   UNL     1       5.298   5.655  18.751  0.00  0.00    +0.000 N 
ATOM     19  C   UNL     1       6.635   5.829  19.010  0.00  0.00    +0.000 C 
ATOM     20  C   UNL     1       7.295   6.881  18.154  0.00  0.00    +0.000 C 
ATOM     21  O   UNL     1       7.242   5.239  19.895  0.00  0.00    +0.000 OA
ATOM     22  H   UNL     1       4.848   6.241  18.059  0.00  0.00    +0.000 HD
ENDBRANCH  17  18
BRANCH  17  23
ATOM     23  C   UNL     1       4.659   3.372  19.154  0.00  0.00    +0.000 C 
ATOM     24  O   UNL     1       5.071   2.472  19.874  0.00  0.00    +0.000 OA
BRANCH  23  25
ATOM     25  O   UNL     1       4.172   3.173  17.893  0.00  0.00    +0.000 OA
BRANCH  25  27
ATOM     26  C   UNL     1       4.875   4.260  15.827  0.00  0.00    +0.000 C 
ATOM     27  C   UNL     1       5.144   3.155  16.835  0.00  0.00    +0.000 C 
ENDBRANCH  25  27
ENDBRANCH  23  25
ENDBRANCH  17  23
ENDBRANCH   1  17
BRANCH   1  28
ATOM     28  O   UNL     1       2.215   5.034  20.818  0.00  0.00    +0.000 OA
BRANCH  28  29
ATOM     29  C   UNL     1       1.813   3.805  21.225  0.00  0.00    +0.000 C 
ATOM     30  C   UNL     1       0.895   3.204  20.194  0.00  0.00    +0.000 C 
ATOM     31  O   UNL     1       2.202   3.235  22.233  0.00  0.00    +0.000 OA
ENDBRANCH  28  29
ENDBRANCH   1  28
TORSDOF 15
ENDMDL
MODEL 6
REMARK VINA RESULT:      -6.4      2.057      7.413
REMARK  Name = 
REMARK  18 active torsions:
REMARK  status: ('A' for Active; 'I' for Inactive)
REMARK    1  A    between atoms: C_1  and  C_2
REMARK    2  A    between atoms: C_2  and  O_3
REMARK    3  A    between atoms: O_3  and  C_4
REMARK    4  A    between atoms: C_4  and  C_6
REMARK    5  A    between atoms: C_6  and  N_7
REMARK    6  A    between atoms: C_6  and  C_11
REMARK    7  A    between atoms: C_8  and  C_9
REMARK    8  A    between atoms: C_11  and  O_12
REMARK    9  A    between atoms: C_11  and  C_16
REMARK   10  A    between atoms: O_12  and  C_13
REMARK   11  A    between atoms: C_13  and  C_14
REMARK   12  A    between atoms: C_20  and  N_21
REMARK   13  A    between atoms: N_21  and  C_22
REMARK   14  A    between atoms: N_21  and  C_25
REMARK   15  A    between atoms: C_22  and  C_23
REMARK   16  A    between atoms: C_23  and  O_24
REMARK   17  A    between atoms: C_25  and  C_26
REMARK   18  A    between atoms: C_26  and  O_27
REMARK                            x       y       z     vdW  Elec       q    Type
REMARK                         _______ _______ _______ _____ _____    ______ ____
ROOT
ATOM      1  C   UNL     1       1.178   9.977  20.302  0.00  0.00    +0.000 C 
ENDROOT
BRANCH   1   2
ATOM      2  C   UNL     1       1.668   8.758  19.494  0.00  0.00    +0.000 A 
ATOM      3  C   UNL     1       2.031   8.957  18.166  0.00  0.00    +0.000 A 
ATOM      4  C   UNL     1       2.622   7.950  17.420  0.00  0.00    +0.000 A 
ATOM      5  C   UNL     1       2.781   6.695  17.996  0.00  0.00    +0.000 A 
ATOM      6  C   UNL     1       2.358   6.386  19.298  0.00  0.00    +0.000 A 
ATOM      7  C   UNL     1       1.791   7.451  20.047  0.00  0.00    +0.000 A 
BRANCH   6   8
ATOM      8  N   UNL     1       2.537   5.095  19.793  0.00  0.00    +0.000 N 
BRANCH   8   9
ATOM      9  C   UNL     1       2.330   4.695  21.200  0.00  0.00    +0.000 C 
BRANCH   9  10
ATOM     10  C   UNL     1       1.826   3.253  21.397  0.00  0.00    +0.000 C 
BRANCH  10  11
ATOM     11  O   UNL     1       2.787   2.403  22.019  0.00  0.00    +0.000 OA
ATOM     12  H   UNL     1       3.200   1.892  21.300  0.00  0.00    +0.000 HD
ENDBRANCH  10  11
ENDBRANCH   9  10
ENDBRANCH   8   9
BRANCH   8  13
ATOM     13  C   UNL     1       3.273   4.110  18.955  0.00  0.00    +0.000 C 
BRANCH  13  14
ATOM     14  C   UNL     1       4.745   3.931  19.366  0.00  0.00    +0.000 C 
BRANCH  14  15
ATOM     15  O   UNL     1       5.012   2.605  19.822  0.00  0.00    +0.000 OA
ATOM     16  H   UNL     1       5.081   2.680  20.792  0.00  0.00    +0.000 HD
ENDBRANCH  14  15
ENDBRANCH  13  14
ENDBRANCH   8  13
ENDBRANCH   6   8
ENDBRANCH   1   2
BRANCH   1  17
ATOM     17  C   UNL     1       0.500  11.094  19.419  0.00  0.00    +0.000 C 
BRANCH  17  18
ATOM     18  N   UNL     1       0.915  12.480  19.721  0.00  0.00    +0.000 N 
ATOM     19  C   UNL     1       1.922  13.122  19.045  0.00  0.00    +0.000 C 
ATOM     20  C   UNL     1       2.325  14.442  19.652  0.00  0.00    +0.000 C 
ATOM     21  O   UNL     1       2.498  12.653  18.071  0.00  0.00    +0.000 OA
ATOM     22  H   UNL     1       0.546  12.894  20.569  0.00  0.00    +0.000 HD
ENDBRANCH  17  18
BRANCH  17  23
ATOM     23  C   UNL     1      -1.026  11.067  19.585  0.00  0.00    +0.000 C 
ATOM     24  O   UNL     1      -1.683  11.880  20.222  0.00  0.00    +0.000 OA
BRANCH  23  25
ATOM     25  O   UNL     1      -1.576  10.119  18.769  0.00  0.00    +0.000 OA
BRANCH  25  27
ATOM     26  C   UNL     1      -2.956   9.806  16.784  0.00  0.00    +0.000 C 
ATOM     27  C   UNL     1      -1.743  10.490  17.391  0.00  0.00    +0.000 C 
ENDBRANCH  25  27
ENDBRANCH  23  25
ENDBRANCH  17  23
ENDBRANCH   1  17
BRANCH   1  28
ATOM     28  O   UNL     1       0.257   9.380  21.261  0.00  0.00    +0.000 OA
BRANCH  28  29
ATOM     29  C   UNL     1       0.429   9.615  22.585  0.00  0.00    +0.000 C 
ATOM     30  C   UNL     1      -0.869  10.079  23.189  0.00  0.00    +0.000 C 
ATOM     31  O   UNL     1       1.457   9.402  23.210  0.00  0.00    +0.000 OA
ENDBRANCH  28  29
ENDBRANCH   1  28
TORSDOF 15
ENDMDL
MODEL 7
REMARK VINA RESULT:      -6.4      1.480      3.194
REMARK  Name = 
REMARK  18 active torsions:
REMARK  status: ('A' for Active; 'I' for Inactive)
REMARK    1  A    between atoms: C_1  and  C_2
REMARK    2  A    between atoms: C_2  and  O_3
REMARK    3  A    between atoms: O_3  and  C_4
REMARK    4  A    between atoms: C_4  and  C_6
REMARK    5  A    between atoms: C_6  and  N_7
REMARK    6  A    between atoms: C_6  and  C_11
REMARK    7  A    between atoms: C_8  and  C_9
REMARK    8  A    between atoms: C_11  and  O_12
REMARK    9  A    between atoms: C_11  and  C_16
REMARK   10  A    between atoms: O_12  and  C_13
REMARK   11  A    between atoms: C_13  and  C_14
REMARK   12  A    between atoms: C_20  and  N_21
REMARK   13  A    between atoms: N_21  and  C_22
REMARK   14  A    between atoms: N_21  and  C_25
REMARK   15  A    between atoms: C_22  and  C_23
REMARK   16  A    between atoms: C_23  and  O_24
REMARK   17  A    between atoms: C_25  and  C_26
REMARK   18  A    between atoms: C_26  and  O_27
REMARK                            x       y       z     vdW  Elec       q    Type
REMARK                         _______ _______ _______ _____ _____    ______ ____
ROOT
ATOM      1  C   UNL     1       2.591   5.326  19.133  0.00  0.00    +0.000 C 
ENDROOT
BRANCH   1   2
ATOM      2  C   UNL     1       2.300   6.837  19.024  0.00  0.00    +0.000 A 
ATOM      3  C   UNL     1       2.574   7.469  17.815  0.00  0.00    +0.000 A 
ATOM      4  C   UNL     1       2.201   8.784  17.589  0.00  0.00    +0.000 A 
ATOM      5  C   UNL     1       1.612   9.502  18.623  0.00  0.00    +0.000 A 
ATOM      6  C   UNL     1       1.386   8.966  19.900  0.00  0.00    +0.000 A 
ATOM      7  C   UNL     1       1.745   7.605  20.087  0.00  0.00    +0.000 A 
BRANCH   6   8
ATOM      8  N   UNL     1       0.808   9.761  20.888  0.00  0.00    +0.000 N 
BRANCH   8   9
ATOM      9  C   UNL     1       0.055  11.007  20.635  0.00  0.00    +0.000 C 
BRANCH   9  10
ATOM     10  C   UNL     1       0.790  12.301  21.033  0.00  0.00    +0.000 C 
BRANCH  10  11
ATOM     11  O   UNL     1       1.848  12.642  20.139  0.00  0.00    +0.000 OA
ATOM     12  H   UNL     1       1.422  13.025  19.352  0.00  0.00    +0.000 HD
ENDBRANCH  10  11
ENDBRANCH   9  10
ENDBRANCH   8   9
BRANCH   8  13
ATOM     13  C   UNL     1       1.214   9.542  22.303  0.00  0.00    +0.000 C 
BRANCH  13  14
ATOM     14  C   UNL     1       0.027   9.437  23.275  0.00  0.00    +0.000 C 
BRANCH  14  15
ATOM     15  O   UNL     1      -0.954   8.505  22.819  0.00  0.00    +0.000 OA
ATOM     16  H   UNL     1      -1.043   7.857  23.542  0.00  0.00    +0.000 HD
ENDBRANCH  14  15
ENDBRANCH  13  14
ENDBRANCH   8  13
ENDBRANCH   6   8
ENDBRANCH   1   2
BRANCH   1  17
ATOM     17  C   UNL     1       3.843   4.857  18.296  0.00  0.00    +0.000 C 
BRANCH  17  18
ATOM     18  N   UNL     1       4.149   3.413  18.370  0.00  0.00    +0.000 N 
ATOM     19  C   UNL     1       3.305   2.445  17.884  0.00  0.00    +0.000 C 
ATOM     20  C   UNL     1       3.707   1.039  18.252  0.00  0.00    +0.000 C 
ATOM     21  O   UNL     1       2.278   2.684  17.261  0.00  0.00    +0.000 OA
ATOM     22  H   UNL     1       4.934   3.140  18.950  0.00  0.00    +0.000 HD
ENDBRANCH  17  18
BRANCH  17  23
ATOM     23  C   UNL     1       5.113   5.580  18.765  0.00  0.00    +0.000 C 
ATOM     24  O   UNL     1       5.682   5.391  19.832  0.00  0.00    +0.000 OA
BRANCH  23  25
ATOM     25  O   UNL     1       5.634   6.331  17.750  0.00  0.00    +0.000 OA
BRANCH  25  27
ATOM     26  C   UNL     1       6.682   5.320  15.794  0.00  0.00    +0.000 C 
ATOM     27  C   UNL     1       6.879   5.871  17.197  0.00  0.00    +0.000 C 
ENDBRANCH  25  27
ENDBRANCH  23  25
ENDBRANCH  17  23
ENDBRANCH   1  17
BRANCH   1  28
ATOM     28  O   UNL     1       2.768   5.134  20.567  0.00  0.00    +0.000 OA
BRANCH  28  29
ATOM     29  C   UNL     1       2.126   4.112  21.186  0.00  0.00    +0.000 C 
ATOM     30  C   UNL     1       0.905   3.727  20.394  0.00  0.00    +0.000 C 
ATOM     31  O   UNL     1       2.524   3.534  22.186  0.00  0.00    +0.000 OA
ENDBRANCH  28  29
ENDBRANCH   1  28
TORSDOF 15
ENDMDL
MODEL 8
REMARK VINA RESULT:      -6.2      1.510      1.781
REMARK  Name = 
REMARK  18 active torsions:
REMARK  status: ('A' for Active; 'I' for Inactive)
REMARK    1  A    between atoms: C_1  and  C_2
REMARK    2  A    between atoms: C_2  and  O_3
REMARK    3  A    between atoms: O_3  and  C_4
REMARK    4  A    between atoms: C_4  and  C_6
REMARK    5  A    between atoms: C_6  and  N_7
REMARK    6  A    between atoms: C_6  and  C_11
REMARK    7  A    between atoms: C_8  and  C_9
REMARK    8  A    between atoms: C_11  and  O_12
REMARK    9  A    between atoms: C_11  and  C_16
REMARK   10  A    between atoms: O_12  and  C_13
REMARK   11  A    between atoms: C_13  and  C_14
REMARK   12  A    between atoms: C_20  and  N_21
REMARK   13  A    between atoms: N_21  and  C_22
REMARK   14  A    between atoms: N_21  and  C_25
REMARK   15  A    between atoms: C_22  and  C_23
REMARK   16  A    between atoms: C_23  and  O_24
REMARK   17  A    between atoms: C_25  and  C_26
REMARK   18  A    between atoms: C_26  and  O_27
REMARK                            x       y       z     vdW  Elec       q    Type
REMARK                         _______ _______ _______ _____ _____    ______ ____
ROOT
ATOM      1  C   UNL     1       3.168   4.996  18.992  0.00  0.00    +0.000 C 
ENDROOT
BRANCH   1   2
ATOM      2  C   UNL     1       2.807   6.491  18.882  0.00  0.00    +0.000 A 
ATOM      3  C   UNL     1       3.247   7.189  17.762  0.00  0.00    +0.000 A 
ATOM      4  C   UNL     1       2.838   8.489  17.516  0.00  0.00    +0.000 A 
ATOM      5  C   UNL     1       2.033   9.127  18.452  0.00  0.00    +0.000 A 
ATOM      6  C   UNL     1       1.620   8.526  19.651  0.00  0.00    +0.000 A 
ATOM      7  C   UNL     1       2.026   7.179  19.854  0.00  0.00    +0.000 A 
BRANCH   6   8
ATOM      8  N   UNL     1       0.829   9.243  20.546  0.00  0.00    +0.000 N 
BRANCH   8   9
ATOM      9  C   UNL     1      -0.025   8.639  21.589  0.00  0.00    +0.000 C 
BRANCH   9  10
ATOM     10  C   UNL     1      -0.432   9.594  22.728  0.00  0.00    +0.000 C 
BRANCH  10  11
ATOM     11  O   UNL     1       0.540   9.671  23.769  0.00  0.00    +0.000 OA
ATOM     12  H   UNL     1       0.301  10.449  24.303  0.00  0.00    +0.000 HD
ENDBRANCH  10  11
ENDBRANCH   9  10
ENDBRANCH   8   9
BRANCH   8  13
ATOM     13  C   UNL     1       0.565  10.681  20.264  0.00  0.00    +0.000 C 
BRANCH  13  14
ATOM     14  C   UNL     1      -0.729  10.925  19.471  0.00  0.00    +0.000 C 
BRANCH  14  15
ATOM     15  O   UNL     1      -0.468  11.483  18.183  0.00  0.00    +0.000 OA
ATOM     16  H   UNL     1      -0.562  10.738  17.560  0.00  0.00    +0.000 HD
ENDBRANCH  14  15
ENDBRANCH  13  14
ENDBRANCH   8  13
ENDBRANCH   6   8
ENDBRANCH   1   2
BRANCH   1  17
ATOM     17  C   UNL     1       4.640   4.661  18.534  0.00  0.00    +0.000 C 
BRANCH  17  18
ATOM     18  N   UNL     1       5.454   5.823  18.120  0.00  0.00    +0.000 N 
ATOM     19  C   UNL     1       6.817   5.874  18.276  0.00  0.00    +0.000 C 
ATOM     20  C   UNL     1       7.418   7.226  17.988  0.00  0.00    +0.000 C 
ATOM     21  O   UNL     1       7.494   4.934  18.675  0.00  0.00    +0.000 OA
ATOM     22  H   UNL     1       4.953   6.667  17.868  0.00  0.00    +0.000 HD
ENDBRANCH  17  18
BRANCH  17  23
ATOM     23  C   UNL     1       4.632   3.705  17.333  0.00  0.00    +0.000 C 
ATOM     24  O   UNL     1       4.245   2.544  17.356  0.00  0.00    +0.000 OA
BRANCH  23  25
ATOM     25  O   UNL     1       4.939   4.380  16.186  0.00  0.00    +0.000 OA
BRANCH  25  27
ATOM     26  C   UNL     1       6.849   4.794  14.728  0.00  0.00    +0.000 C 
ATOM     27  C   UNL     1       5.910   3.760  15.327  0.00  0.00    +0.000 C 
ENDBRANCH  25  27
ENDBRANCH  23  25
ENDBRANCH  17  23
ENDBRANCH   1  17
BRANCH   1  28
ATOM     28  O   UNL     1       2.939   4.710  20.403  0.00  0.00    +0.000 OA
BRANCH  28  29
ATOM     29  C   UNL     1       2.643   3.444  20.787  0.00  0.00    +0.000 C 
ATOM     30  C   UNL     1       1.153   3.301  20.954  0.00  0.00    +0.000 C 
ATOM     31  O   UNL     1       3.451   2.535  20.898  0.00  0.00    +0.000 OA
ENDBRANCH  28  29
ENDBRANCH   1  28
TORSDOF 15
ENDMDL
MODEL 9
REMARK VINA RESULT:      -6.2      1.809      2.492
REMARK  Name = 
REMARK  18 active torsions:
REMARK  status: ('A' for Active; 'I' for Inactive)
REMARK    1  A    between atoms: C_1  and  C_2
REMARK    2  A    between atoms: C_2  and  O_3
REMARK    3  A    between atoms: O_3  and  C_4
REMARK    4  A    between atoms: C_4  and  C_6
REMARK    5  A    between atoms: C_6  and  N_7
REMARK    6  A    between atoms: C_6  and  C_11
REMARK    7  A    between atoms: C_8  and  C_9
REMARK    8  A    between atoms: C_11  and  O_12
REMARK    9  A    between atoms: C_11  and  C_16
REMARK   10  A    between atoms: O_12  and  C_13
REMARK   11  A    between atoms: C_13  and  C_14
REMARK   12  A    between atoms: C_20  and  N_21
REMARK   13  A    between atoms: N_21  and  C_22
REMARK   14  A    between atoms: N_21  and  C_25
REMARK   15  A    between atoms: C_22  and  C_23
REMARK   16  A    between atoms: C_23  and  O_24
REMARK   17  A    between atoms: C_25  and  C_26
REMARK   18  A    between atoms: C_26  and  O_27
REMARK                            x       y       z     vdW  Elec       q    Type
REMARK                         _______ _______ _______ _____ _____    ______ ____
ROOT
ATOM      1  C   UNL     1       2.895   5.211  18.083  0.00  0.00    +0.000 C 
ENDROOT
BRANCH   1   2
ATOM      2  C   UNL     1       2.638   6.720  18.271  0.00  0.00    +0.000 A 
ATOM      3  C   UNL     1       3.155   7.593  17.319  0.00  0.00    +0.000 A 
ATOM      4  C   UNL     1       2.841   8.943  17.333  0.00  0.00    +0.000 A 
ATOM      5  C   UNL     1       2.056   9.437  18.368  0.00  0.00    +0.000 A 
ATOM      6  C   UNL     1       1.571   8.640  19.416  0.00  0.00    +0.000 A 
ATOM      7  C   UNL     1       1.880   7.255  19.351  0.00  0.00    +0.000 A 
BRANCH   6   8
ATOM      8  N   UNL     1       0.806   9.220  20.427  0.00  0.00    +0.000 N 
BRANCH   8   9
ATOM      9  C   UNL     1       0.893   8.866  21.859  0.00  0.00    +0.000 C 
BRANCH   9  10
ATOM     10  C   UNL     1      -0.464   8.673  22.562  0.00  0.00    +0.000 C 
BRANCH  10  11
ATOM     11  O   UNL     1      -0.792   9.739  23.450  0.00  0.00    +0.000 OA
ATOM     12  H   UNL     1       0.053  10.063  23.806  0.00  0.00    +0.000 HD
ENDBRANCH  10  11
ENDBRANCH   9  10
ENDBRANCH   8   9
BRANCH   8  13
ATOM     13  C   UNL     1      -0.388  10.020  20.042  0.00  0.00    +0.000 C 
BRANCH  13  14
ATOM     14  C   UNL     1      -0.248  11.521  20.346  0.00  0.00    +0.000 C 
BRANCH  14  15
ATOM     15  O   UNL     1      -1.149  11.943  21.369  0.00  0.00    +0.000 OA
ATOM     16  H   UNL     1      -1.929  12.285  20.894  0.00  0.00    +0.000 HD
ENDBRANCH  14  15
ENDBRANCH  13  14
ENDBRANCH   8  13
ENDBRANCH   6   8
ENDBRANCH   1   2
BRANCH   1  17
ATOM     17  C   UNL     1       4.409   4.850  17.828  0.00  0.00    +0.000 C 
BRANCH  17  18
ATOM     18  N   UNL     1       4.714   4.302  16.490  0.00  0.00    +0.000 N 
ATOM     19  C   UNL     1       5.520   4.946  15.585  0.00  0.00    +0.000 C 
ATOM     20  C   UNL     1       5.524   4.322  14.212  0.00  0.00    +0.000 C 
ATOM     21  O   UNL     1       6.140   5.974  15.832  0.00  0.00    +0.000 OA
ATOM     22  H   UNL     1       4.166   3.505  16.186  0.00  0.00    +0.000 HD
ENDBRANCH  17  18
BRANCH  17  23
ATOM     23  C   UNL     1       4.894   3.795  18.834  0.00  0.00    +0.000 C 
ATOM     24  O   UNL     1       4.426   2.672  18.962  0.00  0.00    +0.000 OA
BRANCH  23  25
ATOM     25  O   UNL     1       6.046   4.212  19.440  0.00  0.00    +0.000 OA
BRANCH  25  27
ATOM     26  C   UNL     1       7.863   5.801  19.098  0.00  0.00    +0.000 C 
ATOM     27  C   UNL     1       6.369   5.605  19.294  0.00  0.00    +0.000 C 
ENDBRANCH  25  27
ENDBRANCH  23  25
ENDBRANCH  17  23
ENDBRANCH   1  17
BRANCH   1  28
ATOM     28  O   UNL     1       2.381   4.639  19.322  0.00  0.00    +0.000 OA
BRANCH  28  29
ATOM     29  C   UNL     1       1.435   3.669  19.265  0.00  0.00    +0.000 C 
ATOM     30  C   UNL     1       0.971   3.332  20.657  0.00  0.00    +0.000 C 
ATOM     31  O   UNL     1       0.968   3.201  18.238  0.00  0.00    +0.000 OA
ENDBRANCH  28  29
ENDBRANCH   1  28
TORSDOF 15
ENDMDL
