MODEL 1
REMARK VINA RESULT:      -8.3      0.000      0.000
REMARK  Name = 
REMARK  7 active torsions:
REMARK  status: ('A' for Active; 'I' for Inactive)
REMARK    1  A    between atoms: C_1  and  O_2
REMARK    2  A    between atoms: O_2  and  C_3
REMARK    3  A    between atoms: C_6  and  N_7
REMARK    4  A    between atoms: C_16  and  C_17
REMARK    5  A    between atoms: C_17  and  O_18
REMARK    6  A    between atoms: C_19  and  C_20
REMARK    7  A    between atoms: C_23  and  C_24
REMARK                            x       y       z     vdW  Elec       q    Type
REMARK                         _______ _______ _______ _____ _____    ______ ____
ROOT
ATOM      1  N   UNL     1      -2.632  11.280  18.567  0.00  0.00    +0.000 N 
ATOM      2  C   UNL     1      -1.490  11.980  18.246  0.00  0.00    +0.000 C 
ATOM      3  O   UNL     1      -1.487  13.149  17.860  0.00  0.00    +0.000 OA
ATOM      4  N   UNL     1      -0.285  11.311  18.439  0.00  0.00    +0.000 N 
ATOM      5  C   UNL     1       0.936  12.109  18.306  0.00  0.00    +0.000 C 
ATOM      6  C   UNL     1       1.097  13.158  19.407  0.00  0.00    +0.000 C 
ATOM      7  C   UNL     1       1.713  12.647  20.705  0.00  0.00    +0.000 C 
ATOM      8  C   UNL     1       0.891  11.600  21.469  0.00  0.00    +0.000 C 
ATOM      9  N   UNL     1       1.142  10.275  20.923  0.00  0.00    +0.000 NA
ATOM     10  C   UNL     1       1.007   9.160  21.932  0.00  0.00    +0.000 C 
ATOM     11  C   UNL     1       0.585   8.274  20.693  0.00  0.00    +0.000 C 
ATOM     12  C   UNL     1      -0.011   9.655  20.187  0.00  0.00    +0.000 C 
ATOM     13  C   UNL     1      -0.092   9.882  18.683  0.00  0.00    +0.000 C 
ATOM     14  H   UNL     1      -2.512  10.408  19.053  0.00  0.00    +0.000 HD
ENDROOT
BRANCH   1  18
ATOM     15  C   UNL     1      -6.517  12.974  18.538  0.00  0.00    +0.000 A 
ATOM     16  C   UNL     1      -6.033  12.333  17.402  0.00  0.00    +0.000 A 
ATOM     17  C   UNL     1      -4.773  11.736  17.405  0.00  0.00    +0.000 A 
ATOM     18  C   UNL     1      -3.948  11.797  18.528  0.00  0.00    +0.000 A 
ATOM     19  C   UNL     1      -4.447  12.425  19.680  0.00  0.00    +0.000 A 
ATOM     20  C   UNL     1      -5.722  13.017  19.682  0.00  0.00    +0.000 A 
BRANCH  15  22
ATOM     21  C   UNL     1      -7.830  14.928  18.715  0.00  0.00    +0.000 C 
ATOM     22  O   UNL     1      -7.747  13.548  18.391  0.00  0.00    +0.000 OA
ENDBRANCH  15  22
ENDBRANCH   1  18
BRANCH  11  23
ATOM     23  C   UNL     1       1.772   7.586  19.814  0.00  0.00    +0.000 A 
ATOM     24  C   UNL     1       2.245   8.134  18.607  0.00  0.00    +0.000 A 
ATOM     25  C   UNL     1       3.251   7.532  17.843  0.00  0.00    +0.000 A 
ATOM     26  C   UNL     1       3.835   6.321  18.226  0.00  0.00    +0.000 A 
ATOM     27  C   UNL     1       3.359   5.748  19.417  0.00  0.00    +0.000 A 
ATOM     28  C   UNL     1       2.366   6.371  20.194  0.00  0.00    +0.000 A 
BRANCH  26  29
ATOM     29  C   UNL     1       4.916   5.694  17.425  0.00  0.00    +0.000 A 
ATOM     30  C   UNL     1       6.195   6.280  17.353  0.00  0.00    +0.000 A 
ATOM     31  C   UNL     1       7.219   5.718  16.583  0.00  0.00    +0.000 A 
ATOM     32  C   UNL     1       6.989   4.558  15.850  0.00  0.00    +0.000 A 
ATOM     33  C   UNL     1       5.736   3.957  15.897  0.00  0.00    +0.000 A 
ATOM     34  C   UNL     1       4.723   4.517  16.679  0.00  0.00    +0.000 A 
ATOM     35  F   UNL     1       3.543   3.876  16.699  0.00  0.00    +0.000 F 
ENDBRANCH  26  29
ENDBRANCH  11  23
BRANCH  10  36
ATOM     36  C   UNL     1      -0.033   9.307  23.058  0.00  0.00    +0.000 C 
BRANCH  36  37
ATOM     37  O   UNL     1       0.643   9.501  24.298  0.00  0.00    +0.000 OA
ATOM     38  H   UNL     1       0.090  10.096  24.836  0.00  0.00    +0.000 HD
ENDBRANCH  36  37
ENDBRANCH  10  36
TORSDOF 6
ENDMDL
MODEL 2
REMARK VINA RESULT:      -8.0      0.929      1.222
REMARK  Name = 
REMARK  7 active torsions:
REMARK  status: ('A' for Active; 'I' for Inactive)
REMARK    1  A    between atoms: C_1  and  O_2
REMARK    2  A    between atoms: O_2  and  C_3
REMARK    3  A    between atoms: C_6  and  N_7
REMARK    4  A    between atoms: C_16  and  C_17
REMARK    5  A    between atoms: C_17  and  O_18
REMARK    6  A    between atoms: C_19  and  C_20
REMARK    7  A    between atoms: C_23  and  C_24
REMARK                            x       y       z     vdW  Elec       q    Type
REMARK                         _______ _______ _______ _____ _____    ______ ____
ROOT
ATOM      1  N   UNL     1      -2.512  11.377  18.837  0.00  0.00    +0.000 N 
ATOM      2  C   UNL     1      -1.374  12.051  18.454  0.00  0.00    +0.000 C 
ATOM      3  O   UNL     1      -1.366  13.218  18.063  0.00  0.00    +0.000 OA
ATOM      4  N   UNL     1      -0.175  11.357  18.587  0.00  0.00    +0.000 N 
ATOM      5  C   UNL     1       1.054  12.129  18.387  0.00  0.00    +0.000 C 
ATOM      6  C   UNL     1       1.294  13.177  19.474  0.00  0.00    +0.000 C 
ATOM      7  C   UNL     1       1.966  12.658  20.740  0.00  0.00    +0.000 C 
ATOM      8  C   UNL     1       1.163  11.631  21.550  0.00  0.00    +0.000 C 
ATOM      9  N   UNL     1       1.356  10.300  20.998  0.00  0.00    +0.000 NA
ATOM     10  C   UNL     1       1.251   9.191  22.018  0.00  0.00    +0.000 C 
ATOM     11  C   UNL     1       0.746   8.310  20.806  0.00  0.00    +0.000 C 
ATOM     12  C   UNL     1       0.155   9.701  20.326  0.00  0.00    +0.000 C 
ATOM     13  C   UNL     1       0.000   9.925  18.827  0.00  0.00    +0.000 C 
ATOM     14  H   UNL     1      -2.386  10.504  19.320  0.00  0.00    +0.000 HD
ENDROOT
BRANCH   1  18
ATOM     15  C   UNL     1      -6.355  13.158  18.991  0.00  0.00    +0.000 A 
ATOM     16  C   UNL     1      -5.974  12.432  17.867  0.00  0.00    +0.000 A 
ATOM     17  C   UNL     1      -4.729  11.806  17.815  0.00  0.00    +0.000 A 
ATOM     18  C   UNL     1      -3.818  11.922  18.864  0.00  0.00    +0.000 A 
ATOM     19  C   UNL     1      -4.213  12.636  20.006  0.00  0.00    +0.000 A 
ATOM     20  C   UNL     1      -5.472  13.257  20.065  0.00  0.00    +0.000 A 
BRANCH  15  22
ATOM     21  C   UNL     1      -7.905  14.315  17.638  0.00  0.00    +0.000 C 
ATOM     22  O   UNL     1      -7.582  13.750  18.900  0.00  0.00    +0.000 OA
ENDBRANCH  15  22
ENDBRANCH   1  18
BRANCH  11  23
ATOM     23  C   UNL     1       1.871   7.593  19.870  0.00  0.00    +0.000 A 
ATOM     24  C   UNL     1       2.301   8.134  18.643  0.00  0.00    +0.000 A 
ATOM     25  C   UNL     1       3.253   7.508  17.830  0.00  0.00    +0.000 A 
ATOM     26  C   UNL     1       3.822   6.281  18.181  0.00  0.00    +0.000 A 
ATOM     27  C   UNL     1       3.388   5.715  19.393  0.00  0.00    +0.000 A 
ATOM     28  C   UNL     1       2.450   6.362  20.218  0.00  0.00    +0.000 A 
BRANCH  26  29
ATOM     29  C   UNL     1       4.846   5.628  17.328  0.00  0.00    +0.000 A 
ATOM     30  C   UNL     1       4.617   4.354  16.772  0.00  0.00    +0.000 A 
ATOM     31  C   UNL     1       5.581   3.712  15.985  0.00  0.00    +0.000 A 
ATOM     32  C   UNL     1       6.809   4.320  15.745  0.00  0.00    +0.000 A 
ATOM     33  C   UNL     1       7.066   5.576  16.283  0.00  0.00    +0.000 A 
ATOM     34  C   UNL     1       6.094   6.217  17.055  0.00  0.00    +0.000 A 
ATOM     35  F   UNL     1       6.397   7.437  17.527  0.00  0.00    +0.000 F 
ENDBRANCH  26  29
ENDBRANCH  11  23
BRANCH  10  36
ATOM     36  C   UNL     1       0.274   9.364  23.195  0.00  0.00    +0.000 C 
BRANCH  36  37
ATOM     37  O   UNL     1      -0.910   8.612  22.937  0.00  0.00    +0.000 OA
ATOM     38  H   UNL     1      -1.468   8.674  23.733  0.00  0.00    +0.000 HD
ENDBRANCH  36  37
ENDBRANCH  10  36
TORSDOF 6
ENDMDL
MODEL 3
REMARK VINA RESULT:      -7.9      0.278      1.155
REMARK  Name = 
REMARK  7 active torsions:
REMARK  status: ('A' for Active; 'I' for Inactive)
REMARK    1  A    between atoms: C_1  and  O_2
REMARK    2  A    between atoms: O_2  and  C_3
REMARK    3  A    between atoms: C_6  and  N_7
REMARK    4  A    between atoms: C_16  and  C_17
REMARK    5  A    between atoms: C_17  and  O_18
REMARK    6  A    between atoms: C_19  and  C_20
REMARK    7  A    between atoms: C_23  and  C_24
REMARK                            x       y       z     vdW  Elec       q    Type
REMARK                         _______ _______ _______ _____ _____    ______ ____
ROOT
ATOM      1  N   UNL     1      -2.555  11.390  18.771  0.00  0.00    +0.000 N 
ATOM      2  C   UNL     1      -1.398  12.059  18.435  0.00  0.00    +0.000 C 
ATOM      3  O   UNL     1      -1.365  13.237  18.081  0.00  0.00    +0.000 OA
ATOM      4  N   UNL     1      -0.213  11.343  18.575  0.00  0.00    +0.000 N 
ATOM      5  C   UNL     1       1.031  12.101  18.427  0.00  0.00    +0.000 C 
ATOM      6  C   UNL     1       1.261  13.113  19.550  0.00  0.00    +0.000 C 
ATOM      7  C   UNL     1       1.896  12.545  20.815  0.00  0.00    +0.000 C 
ATOM      8  C   UNL     1       1.059  11.507  21.574  0.00  0.00    +0.000 C 
ATOM      9  N   UNL     1       1.246  10.190  20.986  0.00  0.00    +0.000 NA
ATOM     10  C   UNL     1       1.101   9.052  21.969  0.00  0.00    +0.000 C 
ATOM     11  C   UNL     1       0.612   8.216  20.719  0.00  0.00    +0.000 C 
ATOM     12  C   UNL     1       0.052   9.630  20.269  0.00  0.00    +0.000 C 
ATOM     13  C   UNL     1      -0.064   9.902  18.774  0.00  0.00    +0.000 C 
ATOM     14  H   UNL     1      -2.453  10.502  19.230  0.00  0.00    +0.000 HD
ENDROOT
BRANCH   1  18
ATOM     15  C   UNL     1      -6.507  12.921  18.753  0.00  0.00    +0.000 A 
ATOM     16  C   UNL     1      -5.659  13.206  19.819  0.00  0.00    +0.000 A 
ATOM     17  C   UNL     1      -4.344  12.744  19.824  0.00  0.00    +0.000 A 
ATOM     18  C   UNL     1      -3.853  11.954  18.785  0.00  0.00    +0.000 A 
ATOM     19  C   UNL     1      -4.702  11.686  17.701  0.00  0.00    +0.000 A 
ATOM     20  C   UNL     1      -6.025  12.161  17.689  0.00  0.00    +0.000 A 
BRANCH  15  22
ATOM     21  C   UNL     1      -7.916  14.575  19.676  0.00  0.00    +0.000 C 
ATOM     22  O   UNL     1      -7.778  13.401  18.889  0.00  0.00    +0.000 OA
ENDBRANCH  15  22
ENDBRANCH   1  18
BRANCH  11  23
ATOM     23  C   UNL     1       1.748   7.511  19.788  0.00  0.00    +0.000 A 
ATOM     24  C   UNL     1       2.290   6.243  20.072  0.00  0.00    +0.000 A 
ATOM     25  C   UNL     1       3.281   5.647  19.283  0.00  0.00    +0.000 A 
ATOM     26  C   UNL     1       3.815   6.296  18.166  0.00  0.00    +0.000 A 
ATOM     27  C   UNL     1       3.301   7.572  17.880  0.00  0.00    +0.000 A 
ATOM     28  C   UNL     1       2.288   8.155  18.662  0.00  0.00    +0.000 A 
BRANCH  26  29
ATOM     29  C   UNL     1       4.850   5.654  17.319  0.00  0.00    +0.000 A 
ATOM     30  C   UNL     1       6.107   6.262  17.129  0.00  0.00    +0.000 A 
ATOM     31  C   UNL     1       7.087   5.685  16.313  0.00  0.00    +0.000 A 
ATOM     32  C   UNL     1       6.833   4.488  15.651  0.00  0.00    +0.000 A 
ATOM     33  C   UNL     1       5.601   3.864  15.815  0.00  0.00    +0.000 A 
ATOM     34  C   UNL     1       4.633   4.439  16.643  0.00  0.00    +0.000 A 
ATOM     35  F   UNL     1       3.473   3.776  16.776  0.00  0.00    +0.000 F 
ENDBRANCH  26  29
ENDBRANCH  11  23
BRANCH  10  36
ATOM     36  C   UNL     1       0.100   9.204  23.128  0.00  0.00    +0.000 C 
BRANCH  36  37
ATOM     37  O   UNL     1       0.813   9.488  24.330  0.00  0.00    +0.000 OA
ATOM     38  H   UNL     1       0.172   9.856  24.964  0.00  0.00    +0.000 HD
ENDBRANCH  36  37
ENDBRANCH  10  36
TORSDOF 6
ENDMDL
MODEL 4
REMARK VINA RESULT:      -7.9      0.917      1.324
REMARK  Name = 
REMARK  7 active torsions:
REMARK  status: ('A' for Active; 'I' for Inactive)
REMARK    1  A    between atoms: C_1  and  O_2
REMARK    2  A    between atoms: O_2  and  C_3
REMARK    3  A    between atoms: C_6  and  N_7
REMARK    4  A    between atoms: C_16  and  C_17
REMARK    5  A    between atoms: C_17  and  O_18
REMARK    6  A    between atoms: C_19  and  C_20
REMARK    7  A    between atoms: C_23  and  C_24
REMARK                            x       y       z     vdW  Elec       q    Type
REMARK                         _______ _______ _______ _____ _____    ______ ____
ROOT
ATOM      1  N   UNL     1      -2.327  11.415  18.482  0.00  0.00    +0.000 N 
ATOM      2  C   UNL     1      -1.154  12.105  18.270  0.00  0.00    +0.000 C 
ATOM      3  O   UNL     1      -1.104  13.293  17.953  0.00  0.00    +0.000 OA
ATOM      4  N   UNL     1       0.023  11.397  18.495  0.00  0.00    +0.000 N 
ATOM      5  C   UNL     1       1.266  12.172  18.480  0.00  0.00    +0.000 C 
ATOM      6  C   UNL     1       1.382  13.153  19.647  0.00  0.00    +0.000 C 
ATOM      7  C   UNL     1       1.909  12.555  20.947  0.00  0.00    +0.000 C 
ATOM      8  C   UNL     1       1.021  11.487  21.600  0.00  0.00    +0.000 C 
ATOM      9  N   UNL     1       1.277  10.189  20.994  0.00  0.00    +0.000 NA
ATOM     10  C   UNL     1       1.059   9.022  21.927  0.00  0.00    +0.000 C 
ATOM     11  C   UNL     1       0.694   8.218  20.616  0.00  0.00    +0.000 C 
ATOM     12  C   UNL     1       0.158   9.639  20.157  0.00  0.00    +0.000 C 
ATOM     13  C   UNL     1       0.172   9.953  18.667  0.00  0.00    +0.000 C 
ATOM     14  H   UNL     1      -2.255  10.515  18.923  0.00  0.00    +0.000 HD
ENDROOT
BRANCH   1  18
ATOM     15  C   UNL     1      -6.276  12.915  18.134  0.00  0.00    +0.000 A 
ATOM     16  C   UNL     1      -5.589  13.046  19.338  0.00  0.00    +0.000 A 
ATOM     17  C   UNL     1      -4.277  12.594  19.459  0.00  0.00    +0.000 A 
ATOM     18  C   UNL     1      -3.628  11.965  18.396  0.00  0.00    +0.000 A 
ATOM     19  C   UNL     1      -4.315  11.853  17.177  0.00  0.00    +0.000 A 
ATOM     20  C   UNL     1      -5.634  12.320  17.050  0.00  0.00    +0.000 A 
BRANCH  15  22
ATOM     21  C   UNL     1      -7.916  14.297  17.148  0.00  0.00    +0.000 C 
ATOM     22  O   UNL     1      -7.565  13.364  18.159  0.00  0.00    +0.000 OA
ENDBRANCH  15  22
ENDBRANCH   1  18
BRANCH  11  23
ATOM     23  C   UNL     1       1.917   7.552  19.770  0.00  0.00    +0.000 A 
ATOM     24  C   UNL     1       2.317   8.023  18.505  0.00  0.00    +0.000 A 
ATOM     25  C   UNL     1       3.355   7.439  17.771  0.00  0.00    +0.000 A 
ATOM     26  C   UNL     1       4.048   6.322  18.245  0.00  0.00    +0.000 A 
ATOM     27  C   UNL     1       3.648   5.824  19.497  0.00  0.00    +0.000 A 
ATOM     28  C   UNL     1       2.621   6.432  20.242  0.00  0.00    +0.000 A 
BRANCH  26  29
ATOM     29  C   UNL     1       5.162   5.716  17.475  0.00  0.00    +0.000 A 
ATOM     30  C   UNL     1       5.098   5.616  16.071  0.00  0.00    +0.000 A 
ATOM     31  C   UNL     1       6.127   5.024  15.328  0.00  0.00    +0.000 A 
ATOM     32  C   UNL     1       7.245   4.501  15.972  0.00  0.00    +0.000 A 
ATOM     33  C   UNL     1       7.336   4.581  17.357  0.00  0.00    +0.000 A 
ATOM     34  C   UNL     1       6.311   5.186  18.089  0.00  0.00    +0.000 A 
ATOM     35  F   UNL     1       6.470   5.251  19.421  0.00  0.00    +0.000 F 
ENDBRANCH  26  29
ENDBRANCH  11  23
BRANCH  10  36
ATOM     36  C   UNL     1      -0.043   9.130  22.996  0.00  0.00    +0.000 C 
BRANCH  36  37
ATOM     37  O   UNL     1       0.547   9.488  24.244  0.00  0.00    +0.000 OA
ATOM     38  H   UNL     1       1.236  10.150  24.056  0.00  0.00    +0.000 HD
ENDBRANCH  36  37
ENDBRANCH  10  36
TORSDOF 6
ENDMDL
MODEL 5
REMARK VINA RESULT:      -7.0      5.917      7.157
REMARK  Name = 
REMARK  7 active torsions:
REMARK  status: ('A' for Active; 'I' for Inactive)
REMARK    1  A    between atoms: C_1  and  O_2
REMARK    2  A    between atoms: O_2  and  C_3
REMARK    3  A    between atoms: C_6  and  N_7
REMARK    4  A    between atoms: C_16  and  C_17
REMARK    5  A    between atoms: C_17  and  O_18
REMARK    6  A    between atoms: C_19  and  C_20
REMARK    7  A    between atoms: C_23  and  C_24
REMARK                            x       y       z     vdW  Elec       q    Type
REMARK                         _______ _______ _______ _____ _____    ______ ____
ROOT
ATOM      1  N   UNL     1       0.511  13.402  21.843  0.00  0.00    +0.000 N 
ATOM      2  C   UNL     1       0.828  13.816  20.568  0.00  0.00    +0.000 C 
ATOM      3  O   UNL     1      -0.002  13.977  19.674  0.00  0.00    +0.000 OA
ATOM      4  N   UNL     1       2.166  14.116  20.334  0.00  0.00    +0.000 N 
ATOM      5  C   UNL     1       2.480  14.756  19.054  0.00  0.00    +0.000 C 
ATOM      6  C   UNL     1       1.921  16.174  18.933  0.00  0.00    +0.000 C 
ATOM      7  C   UNL     1       2.782  17.267  19.556  0.00  0.00    +0.000 C 
ATOM      8  C   UNL     1       2.958  17.192  21.079  0.00  0.00    +0.000 C 
ATOM      9  N   UNL     1       4.032  16.269  21.411  0.00  0.00    +0.000 NA
ATOM     10  C   UNL     1       4.761  16.609  22.689  0.00  0.00    +0.000 C 
ATOM     11  C   UNL     1       5.013  15.052  22.799  0.00  0.00    +0.000 C 
ATOM     12  C   UNL     1       3.601  14.995  22.078  0.00  0.00    +0.000 C 
ATOM     13  C   UNL     1       3.310  13.795  21.186  0.00  0.00    +0.000 C 
ATOM     14  H   UNL     1       1.227  13.491  22.543  0.00  0.00    +0.000 HD
ENDROOT
BRANCH   1  18
ATOM     15  C   UNL     1      -3.325  12.495  23.398  0.00  0.00    +0.000 A 
ATOM     16  C   UNL     1      -3.053  13.777  22.931  0.00  0.00    +0.000 A 
ATOM     17  C   UNL     1      -1.810  14.083  22.381  0.00  0.00    +0.000 A 
ATOM     18  C   UNL     1      -0.794  13.130  22.317  0.00  0.00    +0.000 A 
ATOM     19  C   UNL     1      -1.077  11.832  22.769  0.00  0.00    +0.000 A 
ATOM     20  C   UNL     1      -2.334  11.519  23.313  0.00  0.00    +0.000 A 
BRANCH  15  22
ATOM     21  C   UNL     1      -5.565  13.237  23.489  0.00  0.00    +0.000 C 
ATOM     22  O   UNL     1      -4.566  12.337  23.947  0.00  0.00    +0.000 OA
ENDBRANCH  15  22
ENDBRANCH   1  18
BRANCH  11  23
ATOM     23  C   UNL     1       6.299  14.436  22.011  0.00  0.00    +0.000 A 
ATOM     24  C   UNL     1       6.712  14.895  20.746  0.00  0.00    +0.000 A 
ATOM     25  C   UNL     1       7.805  14.352  20.061  0.00  0.00    +0.000 A 
ATOM     26  C   UNL     1       8.545  13.290  20.589  0.00  0.00    +0.000 A 
ATOM     27  C   UNL     1       8.134  12.804  21.841  0.00  0.00    +0.000 A 
ATOM     28  C   UNL     1       7.050  13.371  22.536  0.00  0.00    +0.000 A 
BRANCH  26  29
ATOM     29  C   UNL     1       9.716  12.729  19.870  0.00  0.00    +0.000 A 
ATOM     30  C   UNL     1      10.939  12.517  20.537  0.00  0.00    +0.000 A 
ATOM     31  C   UNL     1      12.062  12.012  19.871  0.00  0.00    +0.000 A 
ATOM     32  C   UNL     1      11.997  11.717  18.512  0.00  0.00    +0.000 A 
ATOM     33  C   UNL     1      10.806  11.918  17.825  0.00  0.00    +0.000 A 
ATOM     34  C   UNL     1       9.685  12.409  18.500  0.00  0.00    +0.000 A 
ATOM     35  F   UNL     1       8.559  12.560  17.784  0.00  0.00    +0.000 F 
ENDBRANCH  26  29
ENDBRANCH  11  23
BRANCH  10  36
ATOM     36  C   UNL     1       3.969  17.260  23.837  0.00  0.00    +0.000 C 
BRANCH  36  37
ATOM     37  O   UNL     1       3.965  16.382  24.961  0.00  0.00    +0.000 OA
ATOM     38  H   UNL     1       3.138  15.869  24.922  0.00  0.00    +0.000 HD
ENDBRANCH  36  37
ENDBRANCH  10  36
TORSDOF 6
ENDMDL
MODEL 6
REMARK VINA RESULT:      -7.0      6.048      7.353
REMARK  Name = 
REMARK  7 active torsions:
REMARK  status: ('A' for Active; 'I' for Inactive)
REMARK    1  A    between atoms: C_1  and  O_2
REMARK    2  A    between atoms: O_2  and  C_3
REMARK    3  A    between atoms: C_6  and  N_7
REMARK    4  A    between atoms: C_16  and  C_17
REMARK    5  A    between atoms: C_17  and  O_18
REMARK    6  A    between atoms: C_19  and  C_20
REMARK    7  A    between atoms: C_23  and  C_24
REMARK                            x       y       z     vdW  Elec       q    Type
REMARK                         _______ _______ _______ _____ _____    ______ ____
ROOT
ATOM      1  N   UNL     1       0.592  13.755  21.782  0.00  0.00    +0.000 N 
ATOM      2  C   UNL     1       0.858  13.833  20.433  0.00  0.00    +0.000 C 
ATOM      3  O   UNL     1      -0.001  13.742  19.557  0.00  0.00    +0.000 OA
ATOM      4  N   UNL     1       2.181  14.089  20.082  0.00  0.00    +0.000 N 
ATOM      5  C   UNL     1       2.438  14.384  18.670  0.00  0.00    +0.000 C 
ATOM      6  C   UNL     1       1.835  15.712  18.209  0.00  0.00    +0.000 C 
ATOM      7  C   UNL     1       2.682  16.945  18.500  0.00  0.00    +0.000 C 
ATOM      8  C   UNL     1       2.905  17.269  19.983  0.00  0.00    +0.000 C 
ATOM      9  N   UNL     1       4.015  16.484  20.502  0.00  0.00    +0.000 NA
ATOM     10  C   UNL     1       4.771  17.156  21.623  0.00  0.00    +0.000 C 
ATOM     11  C   UNL     1       5.071  15.686  22.120  0.00  0.00    +0.000 C 
ATOM     12  C   UNL     1       3.640  15.416  21.489  0.00  0.00    +0.000 C 
ATOM     13  C   UNL     1       3.358  14.021  20.946  0.00  0.00    +0.000 C 
ATOM     14  H   UNL     1       1.326  14.035  22.410  0.00  0.00    +0.000 HD
ENDROOT
BRANCH   1  18
ATOM     15  C   UNL     1      -3.313  13.377  23.387  0.00  0.00    +0.000 A 
ATOM     16  C   UNL     1      -2.534  12.241  23.186  0.00  0.00    +0.000 A 
ATOM     17  C   UNL     1      -1.234  12.350  22.696  0.00  0.00    +0.000 A 
ATOM     18  C   UNL     1      -0.690  13.588  22.357  0.00  0.00    +0.000 A 
ATOM     19  C   UNL     1      -1.469  14.734  22.579  0.00  0.00    +0.000 A 
ATOM     20  C   UNL     1      -2.776  14.627  23.085  0.00  0.00    +0.000 A 
BRANCH  15  22
ATOM     21  C   UNL     1      -4.682  12.257  24.949  0.00  0.00    +0.000 C 
ATOM     22  O   UNL     1      -4.579  13.131  23.835  0.00  0.00    +0.000 OA
ENDBRANCH  15  22
ENDBRANCH   1  18
BRANCH  11  23
ATOM     23  C   UNL     1       6.350  14.913  21.471  0.00  0.00    +0.000 A 
ATOM     24  C   UNL     1       6.842  15.198  20.183  0.00  0.00    +0.000 A 
ATOM     25  C   UNL     1       7.929  14.520  19.619  0.00  0.00    +0.000 A 
ATOM     26  C   UNL     1       8.583  13.491  20.300  0.00  0.00    +0.000 A 
ATOM     27  C   UNL     1       8.092  13.178  21.579  0.00  0.00    +0.000 A 
ATOM     28  C   UNL     1       7.015  13.880  22.151  0.00  0.00    +0.000 A 
BRANCH  26  29
ATOM     29  C   UNL     1       9.747  12.787  19.708  0.00  0.00    +0.000 A 
ATOM     30  C   UNL     1      10.925  12.586  20.454  0.00  0.00    +0.000 A 
ATOM     31  C   UNL     1      12.043  11.947  19.906  0.00  0.00    +0.000 A 
ATOM     32  C   UNL     1      12.020  11.503  18.587  0.00  0.00    +0.000 A 
ATOM     33  C   UNL     1      10.874  11.689  17.824  0.00  0.00    +0.000 A 
ATOM     34  C   UNL     1       9.757  12.314  18.383  0.00  0.00    +0.000 A 
ATOM     35  F   UNL     1       8.674  12.444  17.599  0.00  0.00    +0.000 F 
ENDBRANCH  26  29
ENDBRANCH  11  23
BRANCH  10  36
ATOM     36  C   UNL     1       3.995  18.065  22.594  0.00  0.00    +0.000 C 
BRANCH  36  37
ATOM     37  O   UNL     1       4.519  17.902  23.910  0.00  0.00    +0.000 OA
ATOM     38  H   UNL     1       5.342  17.386  23.829  0.00  0.00    +0.000 HD
ENDBRANCH  36  37
ENDBRANCH  10  36
TORSDOF 6
ENDMDL
MODEL 7
REMARK VINA RESULT:      -6.9      6.101      7.520
REMARK  Name = 
REMARK  7 active torsions:
REMARK  status: ('A' for Active; 'I' for Inactive)
REMARK    1  A    between atoms: C_1  and  O_2
REMARK    2  A    between atoms: O_2  and  C_3
REMARK    3  A    between atoms: C_6  and  N_7
REMARK    4  A    between atoms: C_16  and  C_17
REMARK    5  A    between atoms: C_17  and  O_18
REMARK    6  A    between atoms: C_19  and  C_20
REMARK    7  A    between atoms: C_23  and  C_24
REMARK                            x       y       z     vdW  Elec       q    Type
REMARK                         _______ _______ _______ _____ _____    ______ ____
ROOT
ATOM      1  N   UNL     1       0.521  13.468  21.822  0.00  0.00    +0.000 N 
ATOM      2  C   UNL     1       0.754  13.722  20.489  0.00  0.00    +0.000 C 
ATOM      3  O   UNL     1      -0.119  13.700  19.623  0.00  0.00    +0.000 OA
ATOM      4  N   UNL     1       2.056  14.081  20.151  0.00  0.00    +0.000 N 
ATOM      5  C   UNL     1       2.269  14.558  18.782  0.00  0.00    +0.000 C 
ATOM      6  C   UNL     1       1.599  15.903  18.498  0.00  0.00    +0.000 C 
ATOM      7  C   UNL     1       2.398  17.129  18.925  0.00  0.00    +0.000 C 
ATOM      8  C   UNL     1       2.639  17.278  20.433  0.00  0.00    +0.000 C 
ATOM      9  N   UNL     1       3.792  16.488  20.833  0.00  0.00    +0.000 NA
ATOM     10  C   UNL     1       4.542  17.053  22.016  0.00  0.00    +0.000 C 
ATOM     11  C   UNL     1       4.917  15.548  22.323  0.00  0.00    +0.000 C 
ATOM     12  C   UNL     1       3.486  15.292  21.687  0.00  0.00    +0.000 C 
ATOM     13  C   UNL     1       3.254  13.962  20.981  0.00  0.00    +0.000 C 
ATOM     14  H   UNL     1       1.255  13.703  22.468  0.00  0.00    +0.000 HD
ENDROOT
BRANCH   1  18
ATOM     15  C   UNL     1      -3.333  12.689  23.405  0.00  0.00    +0.000 A 
ATOM     16  C   UNL     1      -2.408  11.655  23.295  0.00  0.00    +0.000 A 
ATOM     17  C   UNL     1      -1.123  11.900  22.813  0.00  0.00    +0.000 A 
ATOM     18  C   UNL     1      -0.740  13.173  22.392  0.00  0.00    +0.000 A 
ATOM     19  C   UNL     1      -1.667  14.219  22.524  0.00  0.00    +0.000 A 
ATOM     20  C   UNL     1      -2.959  13.975  23.021  0.00  0.00    +0.000 A 
BRANCH  15  22
ATOM     21  C   UNL     1      -5.554  13.327  23.886  0.00  0.00    +0.000 C 
ATOM     22  O   UNL     1      -4.565  12.309  23.855  0.00  0.00    +0.000 OA
ENDBRANCH  15  22
ENDBRANCH   1  18
BRANCH  11  23
ATOM     23  C   UNL     1       6.215  14.920  21.564  0.00  0.00    +0.000 A 
ATOM     24  C   UNL     1       6.598  15.302  20.264  0.00  0.00    +0.000 A 
ATOM     25  C   UNL     1       7.701  14.748  19.604  0.00  0.00    +0.000 A 
ATOM     26  C   UNL     1       8.483  13.753  20.196  0.00  0.00    +0.000 A 
ATOM     27  C   UNL     1       8.102  13.343  21.485  0.00  0.00    +0.000 A 
ATOM     28  C   UNL     1       7.007  13.922  22.152  0.00  0.00    +0.000 A 
BRANCH  26  29
ATOM     29  C   UNL     1       9.664  13.181  19.503  0.00  0.00    +0.000 A 
ATOM     30  C   UNL     1       9.509  12.233  18.473  0.00  0.00    +0.000 A 
ATOM     31  C   UNL     1      10.612  11.663  17.825  0.00  0.00    +0.000 A 
ATOM     32  C   UNL     1      11.904  12.016  18.200  0.00  0.00    +0.000 A 
ATOM     33  C   UNL     1      12.091  12.947  19.215  0.00  0.00    +0.000 A 
ATOM     34  C   UNL     1      10.986  13.522  19.847  0.00  0.00    +0.000 A 
ATOM     35  F   UNL     1      11.234  14.430  20.805  0.00  0.00    +0.000 F 
ENDBRANCH  26  29
ENDBRANCH  11  23
BRANCH  10  36
ATOM     36  C   UNL     1       3.749  17.799  23.104  0.00  0.00    +0.000 C 
BRANCH  36  37
ATOM     37  O   UNL     1       4.546  17.898  24.282  0.00  0.00    +0.000 OA
ATOM     38  H   UNL     1       4.781  18.837  24.390  0.00  0.00    +0.000 HD
ENDBRANCH  36  37
ENDBRANCH  10  36
TORSDOF 6
ENDMDL
MODEL 8
REMARK VINA RESULT:      -6.7      1.158      1.819
REMARK  Name = 
REMARK  7 active torsions:
REMARK  status: ('A' for Active; 'I' for Inactive)
REMARK    1  A    between atoms: C_1  and  O_2
REMARK    2  A    between atoms: O_2  and  C_3
REMARK    3  A    between atoms: C_6  and  N_7
REMARK    4  A    between atoms: C_16  and  C_17
REMARK    5  A    between atoms: C_17  and  O_18
REMARK    6  A    between atoms: C_19  and  C_20
REMARK    7  A    between atoms: C_23  and  C_24
REMARK                            x       y       z     vdW  Elec       q    Type
REMARK                         _______ _______ _______ _____ _____    ______ ____
ROOT
ATOM      1  N   UNL     1      -2.654  11.772  19.375  0.00  0.00    +0.000 N 
ATOM      2  C   UNL     1      -1.520  12.361  18.861  0.00  0.00    +0.000 C 
ATOM      3  O   UNL     1      -1.476  13.519  18.446  0.00  0.00    +0.000 OA
ATOM      4  N   UNL     1      -0.363  11.589  18.883  0.00  0.00    +0.000 N 
ATOM      5  C   UNL     1       0.887  12.271  18.539  0.00  0.00    +0.000 C 
ATOM      6  C   UNL     1       1.310  13.317  19.571  0.00  0.00    +0.000 C 
ATOM      7  C   UNL     1       2.076  12.771  20.771  0.00  0.00    +0.000 C 
ATOM      8  C   UNL     1       1.296  11.814  21.683  0.00  0.00    +0.000 C 
ATOM      9  N   UNL     1       1.341  10.464  21.142  0.00  0.00    +0.000 NA
ATOM     10  C   UNL     1       1.271   9.381  22.192  0.00  0.00    +0.000 C 
ATOM     11  C   UNL     1       0.583   8.518  21.059  0.00  0.00    +0.000 C 
ATOM     12  C   UNL     1       0.038   9.940  20.613  0.00  0.00    +0.000 C 
ATOM     13  C   UNL     1      -0.259  10.152  19.134  0.00  0.00    +0.000 C 
ATOM     14  H   UNL     1      -2.536  10.900  19.861  0.00  0.00    +0.000 HD
ENDROOT
BRANCH   1  18
ATOM     15  C   UNL     1      -6.496  13.508  19.816  0.00  0.00    +0.000 A 
ATOM     16  C   UNL     1      -5.445  13.938  20.621  0.00  0.00    +0.000 A 
ATOM     17  C   UNL     1      -4.167  13.406  20.464  0.00  0.00    +0.000 A 
ATOM     18  C   UNL     1      -3.911  12.406  19.527  0.00  0.00    +0.000 A 
ATOM     19  C   UNL     1      -4.966  11.989  18.702  0.00  0.00    +0.000 A 
ATOM     20  C   UNL     1      -6.253  12.533  18.851  0.00  0.00    +0.000 A 
BRANCH  15  22
ATOM     21  C   UNL     1      -7.916  14.445  21.453  0.00  0.00    +0.000 C 
ATOM     22  O   UNL     1      -7.703  14.081  20.097  0.00  0.00    +0.000 OA
ENDBRANCH  15  22
ENDBRANCH   1  18
BRANCH  11  23
ATOM     23  C   UNL     1       1.552   7.713  20.026  0.00  0.00    +0.000 A 
ATOM     24  C   UNL     1       2.039   6.418  20.288  0.00  0.00    +0.000 A 
ATOM     25  C   UNL     1       2.887   5.734  19.409  0.00  0.00    +0.000 A 
ATOM     26  C   UNL     1       3.328   6.315  18.218  0.00  0.00    +0.000 A 
ATOM     27  C   UNL     1       2.871   7.617  17.951  0.00  0.00    +0.000 A 
ATOM     28  C   UNL     1       1.997   8.289  18.825  0.00  0.00    +0.000 A 
BRANCH  26  29
ATOM     29  C   UNL     1       4.212   5.582  17.278  0.00  0.00    +0.000 A 
ATOM     30  C   UNL     1       3.980   4.225  16.978  0.00  0.00    +0.000 A 
ATOM     31  C   UNL     1       4.817   3.509  16.114  0.00  0.00    +0.000 A 
ATOM     32  C   UNL     1       5.921   4.128  15.536  0.00  0.00    +0.000 A 
ATOM     33  C   UNL     1       6.179   5.465  15.814  0.00  0.00    +0.000 A 
ATOM     34  C   UNL     1       5.331   6.176  16.666  0.00  0.00    +0.000 A 
ATOM     35  F   UNL     1       5.623   7.470  16.876  0.00  0.00    +0.000 F 
ENDBRANCH  26  29
ENDBRANCH  11  23
BRANCH  10  36
ATOM     36  C   UNL     1       0.438   9.637  23.461  0.00  0.00    +0.000 C 
BRANCH  36  37
ATOM     37  O   UNL     1      -0.903   9.209  23.237  0.00  0.00    +0.000 OA
ATOM     38  H   UNL     1      -1.488   9.855  23.673  0.00  0.00    +0.000 HD
ENDBRANCH  36  37
ENDBRANCH  10  36
TORSDOF 6
ENDMDL
MODEL 9
REMARK VINA RESULT:      -6.7      5.992      7.487
REMARK  Name = 
REMARK  7 active torsions:
REMARK  status: ('A' for Active; 'I' for Inactive)
REMARK    1  A    between atoms: C_1  and  O_2
REMARK    2  A    between atoms: O_2  and  C_3
REMARK    3  A    between atoms: C_6  and  N_7
REMARK    4  A    between atoms: C_16  and  C_17
REMARK    5  A    between atoms: C_17  and  O_18
REMARK    6  A    between atoms: C_19  and  C_20
REMARK    7  A    between atoms: C_23  and  C_24
REMARK                            x       y       z     vdW  Elec       q    Type
REMARK                         _______ _______ _______ _____ _____    ______ ____
ROOT
ATOM      1  N   UNL     1       0.408  13.406  21.562  0.00  0.00    +0.000 N 
ATOM      2  C   UNL     1       0.767  13.712  20.268  0.00  0.00    +0.000 C 
ATOM      3  O   UNL     1      -0.027  13.758  19.329  0.00  0.00    +0.000 OA
ATOM      4  N   UNL     1       2.104  14.039  20.063  0.00  0.00    +0.000 N 
ATOM      5  C   UNL     1       2.453  14.570  18.742  0.00  0.00    +0.000 C 
ATOM      6  C   UNL     1       1.852  15.948  18.465  0.00  0.00    +0.000 C 
ATOM      7  C   UNL     1       2.647  17.126  19.019  0.00  0.00    +0.000 C 
ATOM      8  C   UNL     1       2.757  17.199  20.547  0.00  0.00    +0.000 C 
ATOM      9  N   UNL     1       3.845  16.351  21.009  0.00  0.00    +0.000 NA
ATOM     10  C   UNL     1       4.505  16.836  22.278  0.00  0.00    +0.000 C 
ATOM     11  C   UNL     1       4.804  15.306  22.545  0.00  0.00    +0.000 C 
ATOM     12  C   UNL     1       3.428  15.129  21.774  0.00  0.00    +0.000 C 
ATOM     13  C   UNL     1       3.219  13.842  20.988  0.00  0.00    +0.000 C 
ATOM     14  H   UNL     1       1.089  13.586  22.280  0.00  0.00    +0.000 HD
ENDROOT
BRANCH   1  18
ATOM     15  C   UNL     1      -3.463  12.529  23.048  0.00  0.00    +0.000 A 
ATOM     16  C   UNL     1      -3.256  13.679  22.292  0.00  0.00    +0.000 A 
ATOM     17  C   UNL     1      -1.998  13.963  21.763  0.00  0.00    +0.000 A 
ATOM     18  C   UNL     1      -0.907  13.130  22.005  0.00  0.00    +0.000 A 
ATOM     19  C   UNL     1      -1.123  11.960  22.749  0.00  0.00    +0.000 A 
ATOM     20  C   UNL     1      -2.393  11.665  23.274  0.00  0.00    +0.000 A 
BRANCH  15  22
ATOM     21  C   UNL     1      -5.411  13.593  23.853  0.00  0.00    +0.000 C 
ATOM     22  O   UNL     1      -4.730  12.387  23.538  0.00  0.00    +0.000 OA
ENDBRANCH  15  22
ENDBRANCH   1  18
BRANCH  11  23
ATOM     23  C   UNL     1       6.144  14.669  21.872  0.00  0.00    +0.000 A 
ATOM     24  C   UNL     1       6.906  13.662  22.494  0.00  0.00    +0.000 A 
ATOM     25  C   UNL     1       8.069  13.129  21.925  0.00  0.00    +0.000 A 
ATOM     26  C   UNL     1       8.562  13.590  20.702  0.00  0.00    +0.000 A 
ATOM     27  C   UNL     1       7.827  14.611  20.077  0.00  0.00    +0.000 A 
ATOM     28  C   UNL     1       6.645  15.124  20.642  0.00  0.00    +0.000 A 
BRANCH  26  29
ATOM     29  C   UNL     1       9.783  13.010  20.090  0.00  0.00    +0.000 A 
ATOM     30  C   UNL     1       9.723  11.810  19.354  0.00  0.00    +0.000 A 
ATOM     31  C   UNL     1      10.868  11.234  18.792  0.00  0.00    +0.000 A 
ATOM     32  C   UNL     1      12.111  11.835  18.961  0.00  0.00    +0.000 A 
ATOM     33  C   UNL     1      12.205  13.018  19.685  0.00  0.00    +0.000 A 
ATOM     34  C   UNL     1      11.055  13.595  20.231  0.00  0.00    +0.000 A 
ATOM     35  F   UNL     1      11.210  14.749  20.900  0.00  0.00    +0.000 F 
ENDBRANCH  26  29
ENDBRANCH  11  23
BRANCH  10  36
ATOM     36  C   UNL     1       3.641  17.559  23.327  0.00  0.00    +0.000 C 
BRANCH  36  37
ATOM     37  O   UNL     1       4.389  17.705  24.532  0.00  0.00    +0.000 OA
ATOM     38  H   UNL     1       4.393  18.654  24.755  0.00  0.00    +0.000 HD
ENDBRANCH  36  37
ENDBRANCH  10  36
TORSDOF 6
ENDMDL
