MODEL 1
REMARK VINA RESULT:      -8.5      0.000      0.000
REMARK  Name = 
REMARK  7 active torsions:
REMARK  status: ('A' for Active; 'I' for Inactive)
REMARK    1  A    between atoms: C_1  and  C_2
REMARK    2  A    between atoms: N_5  and  C_6
REMARK    3  A    between atoms: C_6  and  C_7
REMARK    4  A    between atoms: C_10  and  C_11
REMARK    5  A    between atoms: C_14  and  C_15
REMARK    6  A    between atoms: C_15  and  N_16
REMARK    7  A    between atoms: C_19  and  C_20
REMARK                            x       y       z     vdW  Elec       q    Type
REMARK                         _______ _______ _______ _____ _____    ______ ____
ROOT
ATOM      1  C   UNL     1      -0.872  11.264  22.412  0.00  0.00    +0.000 A 
ATOM      2  C   UNL     1      -0.210  11.609  21.228  0.00  0.00    +0.000 A 
ATOM      3  C   UNL     1       0.585  10.673  20.550  0.00  0.00    +0.000 A 
ATOM      4  C   UNL     1       0.740   9.363  21.041  0.00  0.00    +0.000 A 
ATOM      5  C   UNL     1       0.094   9.057  22.258  0.00  0.00    +0.000 A 
ATOM      6  C   UNL     1      -0.720   9.974  22.917  0.00  0.00    +0.000 A 
ENDROOT
BRANCH   4   7
ATOM      7  C   UNL     1       1.464   8.290  20.309  0.00  0.00    +0.000 A 
ATOM      8  C   UNL     1       1.871   7.077  20.885  0.00  0.00    +0.000 A 
ATOM      9  C   UNL     1       2.533   6.092  20.116  0.00  0.00    +0.000 A 
ATOM     10  C   UNL     1       2.801   6.304  18.755  0.00  0.00    +0.000 A 
ATOM     11  C   UNL     1       2.434   7.530  18.199  0.00  0.00    +0.000 A 
ATOM     12  C   UNL     1       1.781   8.491  18.963  0.00  0.00    +0.000 A 
BRANCH  10  13
ATOM     13  C   UNL     1       3.519   5.309  17.875  0.00  0.00    +0.000 C 
BRANCH  13  14
ATOM     14  N   UNL     1       2.913   3.997  17.630  0.00  0.00    +0.000 NA
ATOM     15  C   UNL     1       1.471   3.840  17.759  0.00  0.00    +0.000 C 
ATOM     16  C   UNL     1       0.984   3.523  19.175  0.00  0.00    +0.000 C 
ATOM     17  C   UNL     1       1.816   2.460  19.908  0.00  0.00    +0.000 C 
ATOM     18  C   UNL     1       1.602   2.581  21.423  0.00  0.00    +0.000 C 
ATOM     19  C   UNL     1       3.318   2.519  19.596  0.00  0.00    +0.000 C 
ATOM     20  C   UNL     1       3.637   2.847  18.144  0.00  0.00    +0.000 C 
ENDBRANCH  13  14
ENDBRANCH  10  13
ENDBRANCH   4   7
BRANCH   1  21
ATOM     21  C   UNL     1      -1.699  12.260  23.189  0.00  0.00    +0.000 C 
BRANCH  21  26
ATOM     22  C   UNL     1      -4.073  16.260  23.291  0.00  0.00    +0.000 C 
ATOM     23  C   UNL     1      -4.338  14.758  23.204  0.00  0.00    +0.000 C 
ATOM     24  C   UNL     1      -3.846  14.054  24.477  0.00  0.00    +0.000 C 
ATOM     25  C   UNL     1      -3.862  12.530  24.336  0.00  0.00    +0.000 C 
ATOM     26  N   UNL     1      -3.154  12.031  23.147  0.00  0.00    +0.000 NA
ATOM     27  C   UNL     1      -3.734  12.638  21.939  0.00  0.00    +0.000 C 
ATOM     28  C   UNL     1      -3.691  14.170  21.942  0.00  0.00    +0.000 C 
ENDBRANCH  21  26
ENDBRANCH   1  21
TORSDOF 5
ENDMDL
MODEL 2
REMARK VINA RESULT:      -8.4      2.054      3.399
REMARK  Name = 
REMARK  7 active torsions:
REMARK  status: ('A' for Active; 'I' for Inactive)
REMARK    1  A    between atoms: C_1  and  C_2
REMARK    2  A    between atoms: N_5  and  C_6
REMARK    3  A    between atoms: C_6  and  C_7
REMARK    4  A    between atoms: C_10  and  C_11
REMARK    5  A    between atoms: C_14  and  C_15
REMARK    6  A    between atoms: C_15  and  N_16
REMARK    7  A    between atoms: C_19  and  C_20
REMARK                            x       y       z     vdW  Elec       q    Type
REMARK                         _______ _______ _______ _____ _____    ______ ____
ROOT
ATOM      1  C   UNL     1      -0.144  10.545  21.788  0.00  0.00    +0.000 A 
ATOM      2  C   UNL     1       0.156  10.850  20.455  0.00  0.00    +0.000 A 
ATOM      3  C   UNL     1       0.902   9.963  19.664  0.00  0.00    +0.000 A 
ATOM      4  C   UNL     1       1.371   8.744  20.190  0.00  0.00    +0.000 A 
ATOM      5  C   UNL     1       1.089   8.483  21.548  0.00  0.00    +0.000 A 
ATOM      6  C   UNL     1       0.323   9.347  22.325  0.00  0.00    +0.000 A 
ENDROOT
BRANCH   4   7
ATOM      7  C   UNL     1       2.058   7.707  19.374  0.00  0.00    +0.000 A 
ATOM      8  C   UNL     1       2.740   7.968  18.176  0.00  0.00    +0.000 A 
ATOM      9  C   UNL     1       3.394   6.932  17.470  0.00  0.00    +0.000 A 
ATOM     10  C   UNL     1       3.376   5.613  17.950  0.00  0.00    +0.000 A 
ATOM     11  C   UNL     1       2.659   5.352  19.118  0.00  0.00    +0.000 A 
ATOM     12  C   UNL     1       2.022   6.379  19.807  0.00  0.00    +0.000 A 
BRANCH  10  13
ATOM     13  C   UNL     1       4.033   4.452  17.243  0.00  0.00    +0.000 C 
BRANCH  13  14
ATOM     14  N   UNL     1       5.425   4.116  17.555  0.00  0.00    +0.000 NA
ATOM     15  C   UNL     1       5.981   4.498  18.846  0.00  0.00    +0.000 C 
ATOM     16  C   UNL     1       6.573   5.909  18.897  0.00  0.00    +0.000 C 
ATOM     17  C   UNL     1       7.444   6.275  17.685  0.00  0.00    +0.000 C 
ATOM     18  C   UNL     1       7.554   7.800  17.561  0.00  0.00    +0.000 C 
ATOM     19  C   UNL     1       6.945   5.687  16.358  0.00  0.00    +0.000 C 
ATOM     20  C   UNL     1       6.384   4.277  16.476  0.00  0.00    +0.000 C 
ENDBRANCH  13  14
ENDBRANCH  10  13
ENDBRANCH   4   7
BRANCH   1  21
ATOM     21  C   UNL     1      -0.906  11.497  22.678  0.00  0.00    +0.000 C 
BRANCH  21  26
ATOM     22  C   UNL     1      -2.661  14.673  25.590  0.00  0.00    +0.000 C 
ATOM     23  C   UNL     1      -2.656  14.348  24.097  0.00  0.00    +0.000 C 
ATOM     24  C   UNL     1      -3.333  12.993  23.843  0.00  0.00    +0.000 C 
ATOM     25  C   UNL     1      -3.135  12.510  22.404  0.00  0.00    +0.000 C 
ATOM     26  N   UNL     1      -1.731  12.490  21.967  0.00  0.00    +0.000 NA
ATOM     27  C   UNL     1      -1.152  13.836  22.113  0.00  0.00    +0.000 C 
ATOM     28  C   UNL     1      -1.224  14.381  23.543  0.00  0.00    +0.000 C 
ENDBRANCH  21  26
ENDBRANCH   1  21
TORSDOF 5
ENDMDL
MODEL 3
REMARK VINA RESULT:      -8.3      0.776      1.617
REMARK  Name = 
REMARK  7 active torsions:
REMARK  status: ('A' for Active; 'I' for Inactive)
REMARK    1  A    between atoms: C_1  and  C_2
REMARK    2  A    between atoms: N_5  and  C_6
REMARK    3  A    between atoms: C_6  and  C_7
REMARK    4  A    between atoms: C_10  and  C_11
REMARK    5  A    between atoms: C_14  and  C_15
REMARK    6  A    between atoms: C_15  and  N_16
REMARK    7  A    between atoms: C_19  and  C_20
REMARK                            x       y       z     vdW  Elec       q    Type
REMARK                         _______ _______ _______ _____ _____    ______ ____
ROOT
ATOM      1  C   UNL     1      -0.737  11.183  22.344  0.00  0.00    +0.000 A 
ATOM      2  C   UNL     1      -0.024  11.636  21.227  0.00  0.00    +0.000 A 
ATOM      3  C   UNL     1       0.764  10.755  20.470  0.00  0.00    +0.000 A 
ATOM      4  C   UNL     1       0.861   9.394  20.815  0.00  0.00    +0.000 A 
ATOM      5  C   UNL     1       0.165   8.975  21.969  0.00  0.00    +0.000 A 
ATOM      6  C   UNL     1      -0.641   9.840  22.703  0.00  0.00    +0.000 A 
ENDROOT
BRANCH   4   7
ATOM      7  C   UNL     1       1.577   8.386  19.988  0.00  0.00    +0.000 A 
ATOM      8  C   UNL     1       1.855   8.538  18.621  0.00  0.00    +0.000 A 
ATOM      9  C   UNL     1       2.565   7.546  17.908  0.00  0.00    +0.000 A 
ATOM     10  C   UNL     1       3.009   6.380  18.548  0.00  0.00    +0.000 A 
ATOM     11  C   UNL     1       2.691   6.213  19.896  0.00  0.00    +0.000 A 
ATOM     12  C   UNL     1       1.995   7.196  20.591  0.00  0.00    +0.000 A 
BRANCH  10  13
ATOM     13  C   UNL     1       3.755   5.268  17.850  0.00  0.00    +0.000 C 
BRANCH  13  14
ATOM     14  N   UNL     1       3.067   4.004  17.573  0.00  0.00    +0.000 NA
ATOM     15  C   UNL     1       1.614   3.948  17.653  0.00  0.00    +0.000 C 
ATOM     16  C   UNL     1       1.058   3.656  19.049  0.00  0.00    +0.000 C 
ATOM     17  C   UNL     1       1.788   2.532  19.799  0.00  0.00    +0.000 C 
ATOM     18  C   UNL     1       1.532   2.657  21.306  0.00  0.00    +0.000 C 
ATOM     19  C   UNL     1       3.300   2.486  19.537  0.00  0.00    +0.000 C 
ATOM     20  C   UNL     1       3.690   2.801  18.100  0.00  0.00    +0.000 C 
ENDBRANCH  13  14
ENDBRANCH  10  13
ENDBRANCH   4   7
BRANCH   1  21
ATOM     21  C   UNL     1      -1.558  12.113  23.203  0.00  0.00    +0.000 C 
BRANCH  21  26
ATOM     22  C   UNL     1      -6.057  13.007  23.984  0.00  0.00    +0.000 C 
ATOM     23  C   UNL     1      -4.862  13.625  23.260  0.00  0.00    +0.000 C 
ATOM     24  C   UNL     1      -4.385  12.701  22.131  0.00  0.00    +0.000 C 
ATOM     25  C   UNL     1      -3.047  13.155  21.541  0.00  0.00    +0.000 C 
ATOM     26  N   UNL     1      -1.989  13.357  22.542  0.00  0.00    +0.000 NA
ATOM     27  C   UNL     1      -2.439  14.340  23.540  0.00  0.00    +0.000 C 
ATOM     28  C   UNL     1      -3.734  13.938  24.254  0.00  0.00    +0.000 C 
ENDBRANCH  21  26
ENDBRANCH   1  21
TORSDOF 5
ENDMDL
MODEL 4
REMARK VINA RESULT:      -8.2      0.844      1.555
REMARK  Name = 
REMARK  7 active torsions:
REMARK  status: ('A' for Active; 'I' for Inactive)
REMARK    1  A    between atoms: C_1  and  C_2
REMARK    2  A    between atoms: N_5  and  C_6
REMARK    3  A    between atoms: C_6  and  C_7
REMARK    4  A    between atoms: C_10  and  C_11
REMARK    5  A    between atoms: C_14  and  C_15
REMARK    6  A    between atoms: C_15  and  N_16
REMARK    7  A    between atoms: C_19  and  C_20
REMARK                            x       y       z     vdW  Elec       q    Type
REMARK                         _______ _______ _______ _____ _____    ______ ____
ROOT
ATOM      1  C   UNL     1      -0.769  11.063  22.245  0.00  0.00    +0.000 A 
ATOM      2  C   UNL     1      -0.115  10.031  22.928  0.00  0.00    +0.000 A 
ATOM      3  C   UNL     1       0.601   9.047  22.230  0.00  0.00    +0.000 A 
ATOM      4  C   UNL     1       0.680   9.069  20.825  0.00  0.00    +0.000 A 
ATOM      5  C   UNL     1      -0.023  10.097  20.162  0.00  0.00    +0.000 A 
ATOM      6  C   UNL     1      -0.708  11.092  20.853  0.00  0.00    +0.000 A 
ENDROOT
BRANCH   4   7
ATOM      7  C   UNL     1       1.522   8.132  20.034  0.00  0.00    +0.000 A 
ATOM      8  C   UNL     1       1.900   8.344  18.699  0.00  0.00    +0.000 A 
ATOM      9  C   UNL     1       2.726   7.418  18.021  0.00  0.00    +0.000 A 
ATOM     10  C   UNL     1       3.188   6.261  18.666  0.00  0.00    +0.000 A 
ATOM     11  C   UNL     1       2.773   6.034  19.978  0.00  0.00    +0.000 A 
ATOM     12  C   UNL     1       1.963   6.951  20.638  0.00  0.00    +0.000 A 
BRANCH  10  13
ATOM     13  C   UNL     1       4.056   5.219  18.003  0.00  0.00    +0.000 C 
BRANCH  13  14
ATOM     14  N   UNL     1       3.490   3.902  17.696  0.00  0.00    +0.000 NA
ATOM     15  C   UNL     1       2.056   3.774  17.476  0.00  0.00    +0.000 C 
ATOM     16  C   UNL     1       1.229   3.556  18.746  0.00  0.00    +0.000 C 
ATOM     17  C   UNL     1       1.826   2.531  19.722  0.00  0.00    +0.000 C 
ATOM     18  C   UNL     1       1.253   2.753  21.128  0.00  0.00    +0.000 C 
ATOM     19  C   UNL     1       3.360   2.549  19.785  0.00  0.00    +0.000 C 
ATOM     20  C   UNL     1       4.032   2.778  18.439  0.00  0.00    +0.000 C 
ENDBRANCH  13  14
ENDBRANCH  10  13
ENDBRANCH   4   7
BRANCH   1  21
ATOM     21  C   UNL     1      -1.583  12.112  22.963  0.00  0.00    +0.000 C 
BRANCH  21  26
ATOM     22  C   UNL     1      -3.393  15.791  25.162  0.00  0.00    +0.000 C 
ATOM     23  C   UNL     1      -3.495  15.083  23.812  0.00  0.00    +0.000 C 
ATOM     24  C   UNL     1      -4.039  13.659  23.995  0.00  0.00    +0.000 C 
ATOM     25  C   UNL     1      -3.926  12.830  22.713  0.00  0.00    +0.000 C 
ATOM     26  N   UNL     1      -2.577  12.810  22.129  0.00  0.00    +0.000 NA
ATOM     27  C   UNL     1      -2.140  14.189  21.857  0.00  0.00    +0.000 C 
ATOM     28  C   UNL     1      -2.135  15.086  23.099  0.00  0.00    +0.000 C 
ENDBRANCH  21  26
ENDBRANCH   1  21
TORSDOF 5
ENDMDL
MODEL 5
REMARK VINA RESULT:      -8.2      1.876     10.689
REMARK  Name = 
REMARK  7 active torsions:
REMARK  status: ('A' for Active; 'I' for Inactive)
REMARK    1  A    between atoms: C_1  and  C_2
REMARK    2  A    between atoms: N_5  and  C_6
REMARK    3  A    between atoms: C_6  and  C_7
REMARK    4  A    between atoms: C_10  and  C_11
REMARK    5  A    between atoms: C_14  and  C_15
REMARK    6  A    between atoms: C_15  and  N_16
REMARK    7  A    between atoms: C_19  and  C_20
REMARK                            x       y       z     vdW  Elec       q    Type
REMARK                         _______ _______ _______ _____ _____    ______ ____
ROOT
ATOM      1  C   UNL     1       2.432   7.047  18.712  0.00  0.00    +0.000 A 
ATOM      2  C   UNL     1       2.184   6.778  20.063  0.00  0.00    +0.000 A 
ATOM      3  C   UNL     1       1.561   7.729  20.885  0.00  0.00    +0.000 A 
ATOM      4  C   UNL     1       1.169   8.980  20.374  0.00  0.00    +0.000 A 
ATOM      5  C   UNL     1       1.469   9.240  19.019  0.00  0.00    +0.000 A 
ATOM      6  C   UNL     1       2.059   8.287  18.195  0.00  0.00    +0.000 A 
ENDROOT
BRANCH   4   7
ATOM      7  C   UNL     1       0.396   9.982  21.155  0.00  0.00    +0.000 A 
ATOM      8  C   UNL     1      -0.370   9.678  22.292  0.00  0.00    +0.000 A 
ATOM      9  C   UNL     1      -1.056  10.692  22.999  0.00  0.00    +0.000 A 
ATOM     10  C   UNL     1      -0.991  12.029  22.582  0.00  0.00    +0.000 A 
ATOM     11  C   UNL     1      -0.265  12.319  21.426  0.00  0.00    +0.000 A 
ATOM     12  C   UNL     1       0.410  11.316  20.739  0.00  0.00    +0.000 A 
BRANCH  10  13
ATOM     13  C   UNL     1      -1.711  13.162  23.273  0.00  0.00    +0.000 C 
BRANCH  13  14
ATOM     14  N   UNL     1      -2.656  13.984  22.510  0.00  0.00    +0.000 NA
ATOM     15  C   UNL     1      -3.356  15.073  23.177  0.00  0.00    +0.000 C 
ATOM     16  C   UNL     1      -4.658  14.668  23.874  0.00  0.00    +0.000 C 
ATOM     17  C   UNL     1      -5.555  13.735  23.047  0.00  0.00    +0.000 C 
ATOM     18  C   UNL     1      -6.527  12.990  23.971  0.00  0.00    +0.000 C 
ATOM     19  C   UNL     1      -4.781  12.723  22.191  0.00  0.00    +0.000 C 
ATOM     20  C   UNL     1      -3.509  13.280  21.569  0.00  0.00    +0.000 C 
ENDBRANCH  13  14
ENDBRANCH  10  13
ENDBRANCH   4   7
BRANCH   1  21
ATOM     21  C   UNL     1       3.140   6.063  17.813  0.00  0.00    +0.000 C 
BRANCH  21  26
ATOM     22  C   UNL     1       5.511   4.231  14.254  0.00  0.00    +0.000 C 
ATOM     23  C   UNL     1       5.742   4.654  15.704  0.00  0.00    +0.000 C 
ATOM     24  C   UNL     1       4.883   3.805  16.651  0.00  0.00    +0.000 C 
ATOM     25  C   UNL     1       4.890   4.351  18.081  0.00  0.00    +0.000 C 
ATOM     26  N   UNL     1       4.538   5.775  18.181  0.00  0.00    +0.000 NA
ATOM     27  C   UNL     1       5.459   6.568  17.352  0.00  0.00    +0.000 C 
ATOM     28  C   UNL     1       5.466   6.155  15.876  0.00  0.00    +0.000 C 
ENDBRANCH  21  26
ENDBRANCH   1  21
TORSDOF 5
ENDMDL
MODEL 6
REMARK VINA RESULT:      -8.2      1.138      1.702
REMARK  Name = 
REMARK  7 active torsions:
REMARK  status: ('A' for Active; 'I' for Inactive)
REMARK    1  A    between atoms: C_1  and  C_2
REMARK    2  A    between atoms: N_5  and  C_6
REMARK    3  A    between atoms: C_6  and  C_7
REMARK    4  A    between atoms: C_10  and  C_11
REMARK    5  A    between atoms: C_14  and  C_15
REMARK    6  A    between atoms: C_15  and  N_16
REMARK    7  A    between atoms: C_19  and  C_20
REMARK                            x       y       z     vdW  Elec       q    Type
REMARK                         _______ _______ _______ _____ _____    ______ ____
ROOT
ATOM      1  C   UNL     1      -1.500  12.297  20.574  0.00  0.00    +0.000 A 
ATOM      2  C   UNL     1      -1.685  11.689  19.327  0.00  0.00    +0.000 A 
ATOM      3  C   UNL     1      -0.816  10.681  18.882  0.00  0.00    +0.000 A 
ATOM      4  C   UNL     1       0.265  10.256  19.676  0.00  0.00    +0.000 A 
ATOM      5  C   UNL     1       0.451  10.916  20.909  0.00  0.00    +0.000 A 
ATOM      6  C   UNL     1      -0.427  11.894  21.367  0.00  0.00    +0.000 A 
ENDROOT
BRANCH   4   7
ATOM      7  C   UNL     1       1.147   9.112  19.319  0.00  0.00    +0.000 A 
ATOM      8  C   UNL     1       1.692   8.902  18.043  0.00  0.00    +0.000 A 
ATOM      9  C   UNL     1       2.545   7.804  17.789  0.00  0.00    +0.000 A 
ATOM     10  C   UNL     1       2.868   6.894  18.806  0.00  0.00    +0.000 A 
ATOM     11  C   UNL     1       2.288   7.083  20.061  0.00  0.00    +0.000 A 
ATOM     12  C   UNL     1       1.452   8.168  20.303  0.00  0.00    +0.000 A 
BRANCH  10  13
ATOM     13  C   UNL     1       3.755   5.689  18.606  0.00  0.00    +0.000 C 
BRANCH  13  14
ATOM     14  N   UNL     1       3.162   4.427  18.155  0.00  0.00    +0.000 NA
ATOM     15  C   UNL     1       1.713   4.278  18.153  0.00  0.00    +0.000 C 
ATOM     16  C   UNL     1       1.116   3.795  19.478  0.00  0.00    +0.000 C 
ATOM     17  C   UNL     1       1.883   2.637  20.133  0.00  0.00    +0.000 C 
ATOM     18  C   UNL     1       1.553   2.572  21.630  0.00  0.00    +0.000 C 
ATOM     19  C   UNL     1       3.404   2.710  19.946  0.00  0.00    +0.000 C 
ATOM     20  C   UNL     1       3.837   3.210  18.575  0.00  0.00    +0.000 C 
ENDBRANCH  13  14
ENDBRANCH  10  13
ENDBRANCH   4   7
BRANCH   1  21
ATOM     21  C   UNL     1      -2.391  13.414  21.063  0.00  0.00    +0.000 C 
BRANCH  21  26
ATOM     22  C   UNL     1      -3.616  15.843  24.838  0.00  0.00    +0.000 C 
ATOM     23  C   UNL     1      -4.170  14.735  23.943  0.00  0.00    +0.000 C 
ATOM     24  C   UNL     1      -3.271  13.492  24.014  0.00  0.00    +0.000 C 
ATOM     25  C   UNL     1      -3.642  12.451  22.954  0.00  0.00    +0.000 C 
ATOM     26  N   UNL     1      -3.700  12.986  21.585  0.00  0.00    +0.000 NA
ATOM     27  C   UNL     1      -4.662  14.098  21.533  0.00  0.00    +0.000 C 
ATOM     28  C   UNL     1      -4.333  15.238  22.502  0.00  0.00    +0.000 C 
ENDBRANCH  21  26
ENDBRANCH   1  21
TORSDOF 5
ENDMDL
MODEL 7
REMARK VINA RESULT:      -8.2      2.222      3.755
REMARK  Name = 
REMARK  7 active torsions:
REMARK  status: ('A' for Active; 'I' for Inactive)
REMARK    1  A    between atoms: C_1  and  C_2
REMARK    2  A    between atoms: N_5  and  C_6
REMARK    3  A    between atoms: C_6  and  C_7
REMARK    4  A    between atoms: C_10  and  C_11
REMARK    5  A    between atoms: C_14  and  C_15
REMARK    6  A    between atoms: C_15  and  N_16
REMARK    7  A    between atoms: C_19  and  C_20
REMARK                            x       y       z     vdW  Elec       q    Type
REMARK                         _______ _______ _______ _____ _____    ______ ____
ROOT
ATOM      1  C   UNL     1       0.189  10.437  21.594  0.00  0.00    +0.000 A 
ATOM      2  C   UNL     1       0.511   9.186  22.134  0.00  0.00    +0.000 A 
ATOM      3  C   UNL     1       1.130   8.201  21.350  0.00  0.00    +0.000 A 
ATOM      4  C   UNL     1       1.441   8.441  19.999  0.00  0.00    +0.000 A 
ATOM      5  C   UNL     1       1.067   9.695  19.470  0.00  0.00    +0.000 A 
ATOM      6  C   UNL     1       0.481  10.685  20.254  0.00  0.00    +0.000 A 
ENDROOT
BRANCH   4   7
ATOM      7  C   UNL     1       2.205   7.489  19.149  0.00  0.00    +0.000 A 
ATOM      8  C   UNL     1       2.971   7.864  18.034  0.00  0.00    +0.000 A 
ATOM      9  C   UNL     1       3.693   6.903  17.291  0.00  0.00    +0.000 A 
ATOM     10  C   UNL     1       3.662   5.547  17.648  0.00  0.00    +0.000 A 
ATOM     11  C   UNL     1       2.864   5.174  18.730  0.00  0.00    +0.000 A 
ATOM     12  C   UNL     1       2.159   6.127  19.458  0.00  0.00    +0.000 A 
BRANCH  10  13
ATOM     13  C   UNL     1       4.390   4.460  16.893  0.00  0.00    +0.000 C 
BRANCH  13  14
ATOM     14  N   UNL     1       5.803   4.205  17.186  0.00  0.00    +0.000 NA
ATOM     15  C   UNL     1       6.315   4.468  18.524  0.00  0.00    +0.000 C 
ATOM     16  C   UNL     1       6.784   5.906  18.761  0.00  0.00    +0.000 C 
ATOM     17  C   UNL     1       7.630   6.492  17.620  0.00  0.00    +0.000 C 
ATOM     18  C   UNL     1       7.610   8.025  17.689  0.00  0.00    +0.000 C 
ATOM     19  C   UNL     1       7.193   6.036  16.221  0.00  0.00    +0.000 C 
ATOM     20  C   UNL     1       6.754   4.580  16.153  0.00  0.00    +0.000 C 
ENDBRANCH  13  14
ENDBRANCH  10  13
ENDBRANCH   4   7
BRANCH   1  21
ATOM     21  C   UNL     1      -0.517  11.502  22.398  0.00  0.00    +0.000 C 
BRANCH  21  26
ATOM     22  C   UNL     1      -3.302  14.220  24.947  0.00  0.00    +0.000 C 
ATOM     23  C   UNL     1      -2.736  14.146  23.529  0.00  0.00    +0.000 C 
ATOM     24  C   UNL     1      -3.238  12.881  22.819  0.00  0.00    +0.000 C 
ATOM     25  C   UNL     1      -2.509  12.635  21.496  0.00  0.00    +0.000 C 
ATOM     26  N   UNL     1      -1.043  12.632  21.612  0.00  0.00    +0.000 NA
ATOM     27  C   UNL     1      -0.593  13.909  22.186  0.00  0.00    +0.000 C 
ATOM     28  C   UNL     1      -1.203  14.213  23.558  0.00  0.00    +0.000 C 
ENDBRANCH  21  26
ENDBRANCH   1  21
TORSDOF 5
ENDMDL
MODEL 8
REMARK VINA RESULT:      -8.2      1.854     10.859
REMARK  Name = 
REMARK  7 active torsions:
REMARK  status: ('A' for Active; 'I' for Inactive)
REMARK    1  A    between atoms: C_1  and  C_2
REMARK    2  A    between atoms: N_5  and  C_6
REMARK    3  A    between atoms: C_6  and  C_7
REMARK    4  A    between atoms: C_10  and  C_11
REMARK    5  A    between atoms: C_14  and  C_15
REMARK    6  A    between atoms: C_15  and  N_16
REMARK    7  A    between atoms: C_19  and  C_20
REMARK                            x       y       z     vdW  Elec       q    Type
REMARK                         _______ _______ _______ _____ _____    ______ ____
ROOT
ATOM      1  C   UNL     1       2.724   6.907  18.538  0.00  0.00    +0.000 A 
ATOM      2  C   UNL     1       2.303   8.075  17.892  0.00  0.00    +0.000 A 
ATOM      3  C   UNL     1       1.536   9.036  18.569  0.00  0.00    +0.000 A 
ATOM      4  C   UNL     1       1.168   8.851  19.914  0.00  0.00    +0.000 A 
ATOM      5  C   UNL     1       1.571   7.645  20.527  0.00  0.00    +0.000 A 
ATOM      6  C   UNL     1       2.357   6.705  19.867  0.00  0.00    +0.000 A 
ENDROOT
BRANCH   4   7
ATOM      7  C   UNL     1       0.465   9.881  20.724  0.00  0.00    +0.000 A 
ATOM      8  C   UNL     1       0.212  11.191  20.289  0.00  0.00    +0.000 A 
ATOM      9  C   UNL     1      -0.488  12.107  21.107  0.00  0.00    +0.000 A 
ATOM     10  C   UNL     1      -0.948  11.730  22.378  0.00  0.00    +0.000 A 
ATOM     11  C   UNL     1      -0.655  10.441  22.823  0.00  0.00    +0.000 A 
ATOM     12  C   UNL     1       0.031   9.545  22.010  0.00  0.00    +0.000 A 
BRANCH  10  13
ATOM     13  C   UNL     1      -1.684  12.657  23.315  0.00  0.00    +0.000 C 
BRANCH  13  14
ATOM     14  N   UNL     1      -3.147  12.596  23.383  0.00  0.00    +0.000 NA
ATOM     15  C   UNL     1      -3.924  12.663  22.153  0.00  0.00    +0.000 C 
ATOM     16  C   UNL     1      -4.254  14.081  21.679  0.00  0.00    +0.000 C 
ATOM     17  C   UNL     1      -4.728  15.026  22.793  0.00  0.00    +0.000 C 
ATOM     18  C   UNL     1      -4.536  16.485  22.358  0.00  0.00    +0.000 C 
ATOM     19  C   UNL     1      -4.034  14.798  24.143  0.00  0.00    +0.000 C 
ATOM     20  C   UNL     1      -3.774  13.334  24.466  0.00  0.00    +0.000 C 
ENDBRANCH  13  14
ENDBRANCH  10  13
ENDBRANCH   4   7
BRANCH   1  21
ATOM     21  C   UNL     1       3.512   5.835  17.825  0.00  0.00    +0.000 C 
BRANCH  21  26
ATOM     22  C   UNL     1       5.683   4.122  14.083  0.00  0.00    +0.000 C 
ATOM     23  C   UNL     1       6.022   4.801  15.410  0.00  0.00    +0.000 C 
ATOM     24  C   UNL     1       5.583   3.920  16.588  0.00  0.00    +0.000 C 
ATOM     25  C   UNL     1       5.674   4.659  17.926  0.00  0.00    +0.000 C 
ATOM     26  N   UNL     1       4.976   5.953  17.944  0.00  0.00    +0.000 NA
ATOM     27  C   UNL     1       5.509   6.813  16.875  0.00  0.00    +0.000 C 
ATOM     28  C   UNL     1       5.388   6.198  15.477  0.00  0.00    +0.000 C 
ENDBRANCH  21  26
ENDBRANCH   1  21
TORSDOF 5
ENDMDL
MODEL 9
REMARK VINA RESULT:      -8.1      1.754     10.940
REMARK  Name = 
REMARK  7 active torsions:
REMARK  status: ('A' for Active; 'I' for Inactive)
REMARK    1  A    between atoms: C_1  and  C_2
REMARK    2  A    between atoms: N_5  and  C_6
REMARK    3  A    between atoms: C_6  and  C_7
REMARK    4  A    between atoms: C_10  and  C_11
REMARK    5  A    between atoms: C_14  and  C_15
REMARK    6  A    between atoms: C_15  and  N_16
REMARK    7  A    between atoms: C_19  and  C_20
REMARK                            x       y       z     vdW  Elec       q    Type
REMARK                         _______ _______ _______ _____ _____    ______ ____
ROOT
ATOM      1  C   UNL     1       2.712   6.554  18.578  0.00  0.00    +0.000 A 
ATOM      2  C   UNL     1       2.339   6.174  19.873  0.00  0.00    +0.000 A 
ATOM      3  C   UNL     1       1.652   7.063  20.714  0.00  0.00    +0.000 A 
ATOM      4  C   UNL     1       1.322   8.360  20.280  0.00  0.00    +0.000 A 
ATOM      5  C   UNL     1       1.747   8.729  18.986  0.00  0.00    +0.000 A 
ATOM      6  C   UNL     1       2.401   7.839  18.139  0.00  0.00    +0.000 A 
ENDROOT
BRANCH   4   7
ATOM      7  C   UNL     1       0.490   9.305  21.072  0.00  0.00    +0.000 A 
ATOM      8  C   UNL     1       0.215   9.160  22.441  0.00  0.00    +0.000 A 
ATOM      9  C   UNL     1      -0.562  10.117  23.132  0.00  0.00    +0.000 A 
ATOM     10  C   UNL     1      -1.081  11.238  22.467  0.00  0.00    +0.000 A 
ATOM     11  C   UNL     1      -0.842  11.354  21.097  0.00  0.00    +0.000 A 
ATOM     12  C   UNL     1      -0.073  10.409  20.426  0.00  0.00    +0.000 A 
BRANCH  10  13
ATOM     13  C   UNL     1      -1.935  12.291  23.132  0.00  0.00    +0.000 C 
BRANCH  13  14
ATOM     14  N   UNL     1      -2.823  13.119  22.311  0.00  0.00    +0.000 NA
ATOM     15  C   UNL     1      -2.392  14.451  21.911  0.00  0.00    +0.000 C 
ATOM     16  C   UNL     1      -2.705  15.558  22.921  0.00  0.00    +0.000 C 
ATOM     17  C   UNL     1      -4.118  15.490  23.517  0.00  0.00    +0.000 C 
ATOM     18  C   UNL     1      -4.167  16.267  24.839  0.00  0.00    +0.000 C 
ATOM     19  C   UNL     1      -4.633  14.062  23.742  0.00  0.00    +0.000 C 
ATOM     20  C   UNL     1      -4.236  13.080  22.649  0.00  0.00    +0.000 C 
ENDBRANCH  13  14
ENDBRANCH  10  13
ENDBRANCH   4   7
BRANCH   1  21
ATOM     21  C   UNL     1       3.489   5.637  17.665  0.00  0.00    +0.000 C 
BRANCH  21  26
ATOM     22  C   UNL     1       5.661   4.046  13.870  0.00  0.00    +0.000 C 
ATOM     23  C   UNL     1       6.001   4.654  15.230  0.00  0.00    +0.000 C 
ATOM     24  C   UNL     1       5.526   3.730  16.361  0.00  0.00    +0.000 C 
ATOM     25  C   UNL     1       5.620   4.404  17.733  0.00  0.00    +0.000 C 
ATOM     26  N   UNL     1       4.954   5.713  17.804  0.00  0.00    +0.000 NA
ATOM     27  C   UNL     1       5.520   6.608  16.782  0.00  0.00    +0.000 C 
ATOM     28  C   UNL     1       5.401   6.062  15.355  0.00  0.00    +0.000 C 
ENDBRANCH  21  26
ENDBRANCH   1  21
TORSDOF 5
ENDMDL
