MODEL 1
REMARK VINA RESULT:      -9.3      0.000      0.000
REMARK  Name = 
REMARK  6 active torsions:
REMARK  status: ('A' for Active; 'I' for Inactive)
REMARK    1  A    between atoms: C_1  and  C_2
REMARK    2  A    between atoms: C_2  and  O_3
REMARK    3  A    between atoms: C_2  and  C_4
REMARK    4  A    between atoms: N_6  and  C_7
REMARK    5  A    between atoms: C_7  and  C_8
REMARK    6  A    between atoms: N_19  and  C_20
REMARK                            x       y       z     vdW  Elec       q    Type
REMARK                         _______ _______ _______ _____ _____    ______ ____
ROOT
ATOM      1  C   UNL     1       6.107   4.625  15.620  0.00  0.00    +0.000 C 
ATOM      2  C   UNL     1       5.225   5.892  15.525  0.00  0.00    +0.000 C 
ATOM      3  C   UNL     1       4.578   6.263  16.871  0.00  0.00    +0.000 C 
ATOM      4  C   UNL     1       3.975   5.067  17.554  0.00  0.00    +0.000 A 
ATOM      5  C   UNL     1       4.330   3.781  17.170  0.00  0.00    +0.000 A 
ATOM      6  S   UNL     1       3.609   2.583  18.127  0.00  0.00    +0.000 S 
ATOM      7  C   UNL     1       2.816   3.747  19.082  0.00  0.00    +0.000 A 
ATOM      8  N   UNL     1       2.060   3.341  20.111  0.00  0.00    +0.000 NA
ATOM      9  C   UNL     1       1.492   4.355  20.751  0.00  0.00    +0.000 A 
ATOM     10  N   UNL     1       1.579   5.647  20.435  0.00  0.00    +0.000 NA
ATOM     11  C   UNL     1       2.327   6.051  19.374  0.00  0.00    +0.000 A 
ATOM     12  N   UNL     1       2.352   7.422  19.057  0.00  0.00    +0.000 N 
ATOM     13  C   UNL     1       3.038   5.057  18.658  0.00  0.00    +0.000 A 
ATOM     14  C   UNL     1       5.237   3.420  16.031  0.00  0.00    +0.000 C 
ATOM     15  H   UNL     1       3.144   7.740  18.524  0.00  0.00    +0.000 HD
ENDROOT
BRANCH  12  16
ATOM     16  C   UNL     1       1.472   8.420  19.524  0.00  0.00    +0.000 A 
ATOM     17  C   UNL     1       1.219   9.562  18.734  0.00  0.00    +0.000 A 
ATOM     18  C   UNL     1       0.534  10.670  19.255  0.00  0.00    +0.000 A 
ATOM     19  C   UNL     1       0.116  10.615  20.572  0.00  0.00    +0.000 A 
ATOM     20  N   UNL     1      -0.448  11.666  21.291  0.00  0.00    +0.000 N 
ATOM     21  C   UNL     1      -0.692  11.413  22.621  0.00  0.00    +0.000 A 
ATOM     22  O   UNL     1      -1.095  12.218  23.442  0.00  0.00    +0.000 OA
ATOM     23  S   UNL     1      -0.302   9.725  22.989  0.00  0.00    +0.000 S 
ATOM     24  C   UNL     1       0.298   9.474  21.343  0.00  0.00    +0.000 A 
ATOM     25  C   UNL     1       0.957   8.375  20.830  0.00  0.00    +0.000 A 
ATOM     26  H   UNL     1      -0.585  12.595  20.924  0.00  0.00    +0.000 HD
ENDBRANCH  12  16
BRANCH   1  27
ATOM     27  C   UNL     1       7.279   4.861  16.593  0.00  0.00    +0.000 C 
BRANCH  27  30
ATOM     28  C   UNL     1       7.921   6.758  18.036  0.00  0.00    +0.000 C 
ATOM     29  O   UNL     1       7.855   6.104  19.071  0.00  0.00    +0.000 OA
ATOM     30  N   UNL     1       7.591   6.255  16.795  0.00  0.00    +0.000 N 
ATOM     31  H   UNL     1       7.827   6.834  15.993  0.00  0.00    +0.000 HD
BRANCH  28  33
ATOM     32  C   UNL     1       7.246   9.153  17.563  0.00  0.00    +0.000 C 
ATOM     33  C   UNL     1       8.376   8.225  17.968  0.00  0.00    +0.000 C 
BRANCH  33  34
ATOM     34  O   UNL     1       8.911   8.633  19.229  0.00  0.00    +0.000 OA
ATOM     35  H   UNL     1       9.544   7.945  19.505  0.00  0.00    +0.000 HD
ENDBRANCH  33  34
ENDBRANCH  28  33
ENDBRANCH  27  30
ENDBRANCH   1  27
TORSDOF 5
ENDMDL
MODEL 2
REMARK VINA RESULT:      -9.0      1.225      1.521
REMARK  Name = 
REMARK  6 active torsions:
REMARK  status: ('A' for Active; 'I' for Inactive)
REMARK    1  A    between atoms: C_1  and  C_2
REMARK    2  A    between atoms: C_2  and  O_3
REMARK    3  A    between atoms: C_2  and  C_4
REMARK    4  A    between atoms: N_6  and  C_7
REMARK    5  A    between atoms: C_7  and  C_8
REMARK    6  A    between atoms: N_19  and  C_20
REMARK                            x       y       z     vdW  Elec       q    Type
REMARK                         _______ _______ _______ _____ _____    ______ ____
ROOT
ATOM      1  C   UNL     1       5.959   4.870  15.553  0.00  0.00    +0.000 C 
ATOM      2  C   UNL     1       5.150   6.187  15.567  0.00  0.00    +0.000 C 
ATOM      3  C   UNL     1       4.550   6.497  16.950  0.00  0.00    +0.000 C 
ATOM      4  C   UNL     1       3.893   5.291  17.561  0.00  0.00    +0.000 A 
ATOM      5  C   UNL     1       4.166   4.018  17.079  0.00  0.00    +0.000 A 
ATOM      6  S   UNL     1       3.395   2.797  17.966  0.00  0.00    +0.000 S 
ATOM      7  C   UNL     1       2.689   3.932  19.019  0.00  0.00    +0.000 A 
ATOM      8  N   UNL     1       1.930   3.497  20.033  0.00  0.00    +0.000 NA
ATOM      9  C   UNL     1       1.433   4.492  20.756  0.00  0.00    +0.000 A 
ATOM     10  N   UNL     1       1.589   5.797  20.530  0.00  0.00    +0.000 NA
ATOM     11  C   UNL     1       2.339   6.233  19.483  0.00  0.00    +0.000 A 
ATOM     12  N   UNL     1       2.437   7.620  19.263  0.00  0.00    +0.000 N 
ATOM     13  C   UNL     1       2.978   5.255  18.683  0.00  0.00    +0.000 A 
ATOM     14  C   UNL     1       5.029   3.689  15.898  0.00  0.00    +0.000 C 
ATOM     15  H   UNL     1       3.235   7.930  18.735  0.00  0.00    +0.000 HD
ENDROOT
BRANCH  12  16
ATOM     16  C   UNL     1       1.625   8.630  19.819  0.00  0.00    +0.000 A 
ATOM     17  C   UNL     1       1.205   8.534  21.164  0.00  0.00    +0.000 A 
ATOM     18  C   UNL     1       0.224   9.393  21.682  0.00  0.00    +0.000 A 
ATOM     19  C   UNL     1      -0.328  10.335  20.834  0.00  0.00    +0.000 A 
ATOM     20  N   UNL     1      -1.403  11.169  21.135  0.00  0.00    +0.000 N 
ATOM     21  C   UNL     1      -1.851  11.957  20.100  0.00  0.00    +0.000 A 
ATOM     22  O   UNL     1      -2.827  12.686  20.124  0.00  0.00    +0.000 OA
ATOM     23  S   UNL     1      -0.804  11.739  18.687  0.00  0.00    +0.000 S 
ATOM     24  C   UNL     1       0.121  10.487  19.529  0.00  0.00    +0.000 A 
ATOM     25  C   UNL     1       1.097   9.656  19.018  0.00  0.00    +0.000 A 
ATOM     26  H   UNL     1      -1.911  11.148  22.005  0.00  0.00    +0.000 HD
ENDBRANCH  12  16
BRANCH   1  27
ATOM     27  C   UNL     1       7.160   4.969  16.513  0.00  0.00    +0.000 C 
BRANCH  27  30
ATOM     28  C   UNL     1       7.832   6.787  18.042  0.00  0.00    +0.000 C 
ATOM     29  O   UNL     1       7.590   6.141  19.055  0.00  0.00    +0.000 OA
ATOM     30  N   UNL     1       7.588   6.324  16.766  0.00  0.00    +0.000 N 
ATOM     31  H   UNL     1       7.965   6.878  16.001  0.00  0.00    +0.000 HD
BRANCH  28  33
ATOM     32  C   UNL     1       7.452   9.241  17.542  0.00  0.00    +0.000 C 
ATOM     33  C   UNL     1       8.436   8.201  18.043  0.00  0.00    +0.000 C 
BRANCH  33  34
ATOM     34  O   UNL     1       8.882   8.545  19.356  0.00  0.00    +0.000 OA
ATOM     35  H   UNL     1       8.093   8.563  19.928  0.00  0.00    +0.000 HD
ENDBRANCH  33  34
ENDBRANCH  28  33
ENDBRANCH  27  30
ENDBRANCH   1  27
TORSDOF 5
ENDMDL
MODEL 3
REMARK VINA RESULT:      -8.1      3.787      9.906
REMARK  Name = 
REMARK  6 active torsions:
REMARK  status: ('A' for Active; 'I' for Inactive)
REMARK    1  A    between atoms: C_1  and  C_2
REMARK    2  A    between atoms: C_2  and  O_3
REMARK    3  A    between atoms: C_2  and  C_4
REMARK    4  A    between atoms: N_6  and  C_7
REMARK    5  A    between atoms: C_7  and  C_8
REMARK    6  A    between atoms: N_19  and  C_20
REMARK                            x       y       z     vdW  Elec       q    Type
REMARK                         _______ _______ _______ _____ _____    ______ ____
ROOT
ATOM      1  C   UNL     1      -2.997  11.464  17.521  0.00  0.00    +0.000 C 
ATOM      2  C   UNL     1      -1.900  10.643  16.806  0.00  0.00    +0.000 C 
ATOM      3  C   UNL     1      -1.208   9.638  17.745  0.00  0.00    +0.000 C 
ATOM      4  C   UNL     1      -0.839  10.262  19.062  0.00  0.00    +0.000 A 
ATOM      5  C   UNL     1      -1.417  11.458  19.464  0.00  0.00    +0.000 A 
ATOM      6  S   UNL     1      -0.934  11.936  21.016  0.00  0.00    +0.000 S 
ATOM      7  C   UNL     1       0.048  10.557  21.195  0.00  0.00    +0.000 A 
ATOM      8  N   UNL     1       0.708  10.372  22.345  0.00  0.00    +0.000 NA
ATOM      9  C   UNL     1       1.444   9.268  22.332  0.00  0.00    +0.000 A 
ATOM     10  N   UNL     1       1.595   8.422  21.314  0.00  0.00    +0.000 NA
ATOM     11  C   UNL     1       0.943   8.630  20.138  0.00  0.00    +0.000 A 
ATOM     12  N   UNL     1       1.170   7.731  19.080  0.00  0.00    +0.000 N 
ATOM     13  C   UNL     1       0.071   9.742  20.063  0.00  0.00    +0.000 A 
ATOM     14  C   UNL     1      -2.364  12.295  18.656  0.00  0.00    +0.000 C 
ATOM     15  H   UNL     1       0.454   7.686  18.375  0.00  0.00    +0.000 HD
ENDROOT
BRANCH  12  16
ATOM     16  C   UNL     1       2.212   6.786  18.974  0.00  0.00    +0.000 A 
ATOM     17  C   UNL     1       2.228   5.658  19.822  0.00  0.00    +0.000 A 
ATOM     18  C   UNL     1       3.353   4.823  19.900  0.00  0.00    +0.000 A 
ATOM     19  C   UNL     1       4.453   5.141  19.124  0.00  0.00    +0.000 A 
ATOM     20  N   UNL     1       5.695   4.513  19.178  0.00  0.00    +0.000 N 
ATOM     21  C   UNL     1       6.675   5.064  18.385  0.00  0.00    +0.000 A 
ATOM     22  O   UNL     1       7.845   4.726  18.352  0.00  0.00    +0.000 OA
ATOM     23  S   UNL     1       5.990   6.383  17.421  0.00  0.00    +0.000 S 
ATOM     24  C   UNL     1       4.428   6.207  18.235  0.00  0.00    +0.000 A 
ATOM     25  C   UNL     1       3.318   7.022  18.142  0.00  0.00    +0.000 A 
ATOM     26  H   UNL     1       5.927   3.770  19.818  0.00  0.00    +0.000 HD
ENDBRANCH  12  16
BRANCH   1  27
ATOM     27  C   UNL     1      -4.116  10.534  18.030  0.00  0.00    +0.000 C 
BRANCH  27  30
ATOM     28  C   UNL     1      -6.379  10.578  19.016  0.00  0.00    +0.000 C 
ATOM     29  O   UNL     1      -6.527   9.363  18.942  0.00  0.00    +0.000 OA
ATOM     30  N   UNL     1      -5.270  11.241  18.534  0.00  0.00    +0.000 N 
ATOM     31  H   UNL     1      -5.183  12.223  18.782  0.00  0.00    +0.000 HD
BRANCH  28  33
ATOM     32  C   UNL     1      -6.948  12.030  21.011  0.00  0.00    +0.000 C 
ATOM     33  C   UNL     1      -7.400  11.536  19.649  0.00  0.00    +0.000 C 
BRANCH  33  34
ATOM     34  O   UNL     1      -7.636  12.648  18.783  0.00  0.00    +0.000 OA
ATOM     35  H   UNL     1      -7.286  12.404  17.907  0.00  0.00    +0.000 HD
ENDBRANCH  33  34
ENDBRANCH  28  33
ENDBRANCH  27  30
ENDBRANCH   1  27
TORSDOF 5
ENDMDL
MODEL 4
REMARK VINA RESULT:      -8.1      3.871      9.902
REMARK  Name = 
REMARK  6 active torsions:
REMARK  status: ('A' for Active; 'I' for Inactive)
REMARK    1  A    between atoms: C_1  and  C_2
REMARK    2  A    between atoms: C_2  and  O_3
REMARK    3  A    between atoms: C_2  and  C_4
REMARK    4  A    between atoms: N_6  and  C_7
REMARK    5  A    between atoms: C_7  and  C_8
REMARK    6  A    between atoms: N_19  and  C_20
REMARK                            x       y       z     vdW  Elec       q    Type
REMARK                         _______ _______ _______ _____ _____    ______ ____
ROOT
ATOM      1  C   UNL     1      -2.751  11.523  17.606  0.00  0.00    +0.000 C 
ATOM      2  C   UNL     1      -1.695  10.715  16.817  0.00  0.00    +0.000 C 
ATOM      3  C   UNL     1      -1.002   9.647  17.682  0.00  0.00    +0.000 C 
ATOM      4  C   UNL     1      -0.581  10.191  19.018  0.00  0.00    +0.000 A 
ATOM      5  C   UNL     1      -1.117  11.378  19.499  0.00  0.00    +0.000 A 
ATOM      6  S   UNL     1      -0.578  11.762  21.058  0.00  0.00    +0.000 S 
ATOM      7  C   UNL     1       0.374  10.354  21.136  0.00  0.00    +0.000 A 
ATOM      8  N   UNL     1       1.061  10.093  22.255  0.00  0.00    +0.000 NA
ATOM      9  C   UNL     1       1.770   8.975  22.163  0.00  0.00    +0.000 A 
ATOM     10  N   UNL     1       1.871   8.180  21.098  0.00  0.00    +0.000 NA
ATOM     11  C   UNL     1       1.191   8.465  19.955  0.00  0.00    +0.000 A 
ATOM     12  N   UNL     1       1.365   7.617  18.845  0.00  0.00    +0.000 N 
ATOM     13  C   UNL     1       0.344   9.599  19.963  0.00  0.00    +0.000 A 
ATOM     14  C   UNL     1      -2.065  12.277  18.764  0.00  0.00    +0.000 C 
ATOM     15  H   UNL     1       0.629   7.627  18.160  0.00  0.00    +0.000 HD
ENDROOT
BRANCH  12  16
ATOM     16  C   UNL     1       2.380   6.656  18.659  0.00  0.00    +0.000 A 
ATOM     17  C   UNL     1       2.294   5.406  19.310  0.00  0.00    +0.000 A 
ATOM     18  C   UNL     1       3.381   4.519  19.329  0.00  0.00    +0.000 A 
ATOM     19  C   UNL     1       4.547   4.908  18.695  0.00  0.00    +0.000 A 
ATOM     20  N   UNL     1       5.760   4.223  18.733  0.00  0.00    +0.000 N 
ATOM     21  C   UNL     1       6.816   4.850  18.113  0.00  0.00    +0.000 A 
ATOM     22  O   UNL     1       7.973   4.469  18.108  0.00  0.00    +0.000 OA
ATOM     23  S   UNL     1       6.252   6.337  17.332  0.00  0.00    +0.000 S 
ATOM     24  C   UNL     1       4.627   6.104  17.994  0.00  0.00    +0.000 A 
ATOM     25  C   UNL     1       3.555   6.972  17.958  0.00  0.00    +0.000 A 
ATOM     26  H   UNL     1       5.917   3.377  19.257  0.00  0.00    +0.000 HD
ENDBRANCH  12  16
BRANCH   1  27
ATOM     27  C   UNL     1      -3.877  10.594  18.099  0.00  0.00    +0.000 C 
BRANCH  27  30
ATOM     28  C   UNL     1      -5.915  11.893  18.607  0.00  0.00    +0.000 C 
ATOM     29  O   UNL     1      -5.546  12.192  19.736  0.00  0.00    +0.000 OA
ATOM     30  N   UNL     1      -5.201  11.063  17.766  0.00  0.00    +0.000 N 
ATOM     31  H   UNL     1      -5.523  11.006  16.804  0.00  0.00    +0.000 HD
BRANCH  28  33
ATOM     32  C   UNL     1      -7.822  13.556  18.726  0.00  0.00    +0.000 C 
ATOM     33  C   UNL     1      -7.218  12.391  17.962  0.00  0.00    +0.000 C 
BRANCH  33  34
ATOM     34  O   UNL     1      -6.983  12.770  16.605  0.00  0.00    +0.000 OA
ATOM     35  H   UNL     1      -6.102  13.184  16.574  0.00  0.00    +0.000 HD
ENDBRANCH  33  34
ENDBRANCH  28  33
ENDBRANCH  27  30
ENDBRANCH   1  27
TORSDOF 5
ENDMDL
MODEL 5
REMARK VINA RESULT:      -8.1      1.759      2.007
REMARK  Name = 
REMARK  6 active torsions:
REMARK  status: ('A' for Active; 'I' for Inactive)
REMARK    1  A    between atoms: C_1  and  C_2
REMARK    2  A    between atoms: C_2  and  O_3
REMARK    3  A    between atoms: C_2  and  C_4
REMARK    4  A    between atoms: N_6  and  C_7
REMARK    5  A    between atoms: C_7  and  C_8
REMARK    6  A    between atoms: N_19  and  C_20
REMARK                            x       y       z     vdW  Elec       q    Type
REMARK                         _______ _______ _______ _____ _____    ______ ____
ROOT
ATOM      1  C   UNL     1       6.214   5.004  15.579  0.00  0.00    +0.000 C 
ATOM      2  C   UNL     1       5.275   6.211  15.347  0.00  0.00    +0.000 C 
ATOM      3  C   UNL     1       4.627   6.713  16.650  0.00  0.00    +0.000 C 
ATOM      4  C   UNL     1       4.087   5.582  17.481  0.00  0.00    +0.000 A 
ATOM      5  C   UNL     1       4.495   4.276  17.248  0.00  0.00    +0.000 A 
ATOM      6  S   UNL     1       3.839   3.172  18.353  0.00  0.00    +0.000 S 
ATOM      7  C   UNL     1       3.006   4.407  19.176  0.00  0.00    +0.000 A 
ATOM      8  N   UNL     1       2.281   4.095  20.258  0.00  0.00    +0.000 NA
ATOM      9  C   UNL     1       1.675   5.153  20.782  0.00  0.00    +0.000 A 
ATOM     10  N   UNL     1       1.700   6.400  20.313  0.00  0.00    +0.000 NA
ATOM     11  C   UNL     1       2.417   6.706  19.198  0.00  0.00    +0.000 A 
ATOM     12  N   UNL     1       2.377   8.029  18.719  0.00  0.00    +0.000 N 
ATOM     13  C   UNL     1       3.164   5.665  18.595  0.00  0.00    +0.000 A 
ATOM     14  C   UNL     1       5.404   3.820  16.146  0.00  0.00    +0.000 C 
ATOM     15  H   UNL     1       3.147   8.314  18.138  0.00  0.00    +0.000 HD
ENDROOT
BRANCH  12  16
ATOM     16  C   UNL     1       1.458   9.037  19.078  0.00  0.00    +0.000 A 
ATOM     17  C   UNL     1       1.285   9.380  20.437  0.00  0.00    +0.000 A 
ATOM     18  C   UNL     1       0.232  10.209  20.849  0.00  0.00    +0.000 A 
ATOM     19  C   UNL     1      -0.641  10.679  19.884  0.00  0.00    +0.000 A 
ATOM     20  N   UNL     1      -1.813  11.391  20.126  0.00  0.00    +0.000 N 
ATOM     21  C   UNL     1      -2.581  11.666  19.018  0.00  0.00    +0.000 A 
ATOM     22  O   UNL     1      -3.678  12.195  19.019  0.00  0.00    +0.000 OA
ATOM     23  S   UNL     1      -1.745  11.106  17.560  0.00  0.00    +0.000 S 
ATOM     24  C   UNL     1      -0.446  10.406  18.537  0.00  0.00    +0.000 A 
ATOM     25  C   UNL     1       0.598   9.604  18.124  0.00  0.00    +0.000 A 
ATOM     26  H   UNL     1      -2.162  11.614  21.045  0.00  0.00    +0.000 HD
ENDBRANCH  12  16
BRANCH   1  27
ATOM     27  C   UNL     1       7.385   5.405  16.497  0.00  0.00    +0.000 C 
BRANCH  27  30
ATOM     28  C   UNL     1       7.841   7.252  18.071  0.00  0.00    +0.000 C 
ATOM     29  O   UNL     1       8.145   6.504  18.994  0.00  0.00    +0.000 OA
ATOM     30  N   UNL     1       7.393   6.806  16.845  0.00  0.00    +0.000 N 
ATOM     31  H   UNL     1       7.316   7.503  16.108  0.00  0.00    +0.000 HD
BRANCH  28  33
ATOM     32  C   UNL     1       9.035   9.262  19.046  0.00  0.00    +0.000 C 
ATOM     33  C   UNL     1       7.913   8.786  18.142  0.00  0.00    +0.000 C 
BRANCH  33  34
ATOM     34  O   UNL     1       8.078   9.332  16.832  0.00  0.00    +0.000 OA
ATOM     35  H   UNL     1       9.028   9.278  16.620  0.00  0.00    +0.000 HD
ENDBRANCH  33  34
ENDBRANCH  28  33
ENDBRANCH  27  30
ENDBRANCH   1  27
TORSDOF 5
ENDMDL
MODEL 6
REMARK VINA RESULT:      -7.9      3.956      9.858
REMARK  Name = 
REMARK  6 active torsions:
REMARK  status: ('A' for Active; 'I' for Inactive)
REMARK    1  A    between atoms: C_1  and  C_2
REMARK    2  A    between atoms: C_2  and  O_3
REMARK    3  A    between atoms: C_2  and  C_4
REMARK    4  A    between atoms: N_6  and  C_7
REMARK    5  A    between atoms: C_7  and  C_8
REMARK    6  A    between atoms: N_19  and  C_20
REMARK                            x       y       z     vdW  Elec       q    Type
REMARK                         _______ _______ _______ _____ _____    ______ ____
ROOT
ATOM      1  C   UNL     1      -2.793  11.454  17.465  0.00  0.00    +0.000 C 
ATOM      2  C   UNL     1      -1.631  10.620  16.878  0.00  0.00    +0.000 C 
ATOM      3  C   UNL     1      -1.037   9.635  17.900  0.00  0.00    +0.000 C 
ATOM      4  C   UNL     1      -0.800  10.284  19.235  0.00  0.00    +0.000 A 
ATOM      5  C   UNL     1      -1.414  11.487  19.555  0.00  0.00    +0.000 A 
ATOM      6  S   UNL     1      -1.087  11.995  21.138  0.00  0.00    +0.000 S 
ATOM      7  C   UNL     1      -0.129  10.622  21.439  0.00  0.00    +0.000 A 
ATOM      8  N   UNL     1       0.413  10.460  22.653  0.00  0.00    +0.000 NA
ATOM      9  C   UNL     1       1.147   9.357  22.735  0.00  0.00    +0.000 A 
ATOM     10  N   UNL     1       1.398   8.491  21.753  0.00  0.00    +0.000 NA
ATOM     11  C   UNL     1       0.866   8.676  20.515  0.00  0.00    +0.000 A 
ATOM     12  N   UNL     1       1.196   7.757  19.502  0.00  0.00    +0.000 N 
ATOM     13  C   UNL     1       0.006   9.785  20.331  0.00  0.00    +0.000 A 
ATOM     14  C   UNL     1      -2.275  12.307  18.641  0.00  0.00    +0.000 C 
ATOM     15  H   UNL     1       0.553   7.698  18.730  0.00  0.00    +0.000 HD
ENDROOT
BRANCH  12  16
ATOM     16  C   UNL     1       2.243   6.812  19.518  0.00  0.00    +0.000 A 
ATOM     17  C   UNL     1       3.326   6.946  18.623  0.00  0.00    +0.000 A 
ATOM     18  C   UNL     1       4.263   5.916  18.456  0.00  0.00    +0.000 A 
ATOM     19  C   UNL     1       4.093   4.757  19.190  0.00  0.00    +0.000 A 
ATOM     20  N   UNL     1       4.837   3.588  19.050  0.00  0.00    +0.000 N 
ATOM     21  C   UNL     1       4.423   2.524  19.817  0.00  0.00    +0.000 A 
ATOM     22  O   UNL     1       4.876   1.393  19.779  0.00  0.00    +0.000 OA
ATOM     23  S   UNL     1       3.089   3.029  20.868  0.00  0.00    +0.000 S 
ATOM     24  C   UNL     1       3.072   4.634  20.124  0.00  0.00    +0.000 A 
ATOM     25  C   UNL     1       2.156   5.651  20.305  0.00  0.00    +0.000 A 
ATOM     26  H   UNL     1       5.569   3.460  18.369  0.00  0.00    +0.000 HD
ENDBRANCH  12  16
BRANCH   1  27
ATOM     27  C   UNL     1      -3.958  10.532  17.878  0.00  0.00    +0.000 C 
BRANCH  27  30
ATOM     28  C   UNL     1      -5.973  11.740  18.636  0.00  0.00    +0.000 C 
ATOM     29  O   UNL     1      -5.624  11.759  19.811  0.00  0.00    +0.000 OA
ATOM     30  N   UNL     1      -5.261  11.106  17.639  0.00  0.00    +0.000 N 
ATOM     31  H   UNL     1      -5.560  11.282  16.684  0.00  0.00    +0.000 HD
BRANCH  28  33
ATOM     32  C   UNL     1      -7.589  13.676  18.871  0.00  0.00    +0.000 C 
ATOM     33  C   UNL     1      -7.248  12.413  18.102  0.00  0.00    +0.000 C 
BRANCH  33  34
ATOM     34  O   UNL     1      -7.101  12.715  16.713  0.00  0.00    +0.000 OA
ATOM     35  H   UNL     1      -7.637  12.065  16.224  0.00  0.00    +0.000 HD
ENDBRANCH  33  34
ENDBRANCH  28  33
ENDBRANCH  27  30
ENDBRANCH   1  27
TORSDOF 5
ENDMDL
MODEL 7
REMARK VINA RESULT:      -7.7      1.009      1.460
REMARK  Name = 
REMARK  6 active torsions:
REMARK  status: ('A' for Active; 'I' for Inactive)
REMARK    1  A    between atoms: C_1  and  C_2
REMARK    2  A    between atoms: C_2  and  O_3
REMARK    3  A    between atoms: C_2  and  C_4
REMARK    4  A    between atoms: N_6  and  C_7
REMARK    5  A    between atoms: C_7  and  C_8
REMARK    6  A    between atoms: N_19  and  C_20
REMARK                            x       y       z     vdW  Elec       q    Type
REMARK                         _______ _______ _______ _____ _____    ______ ____
ROOT
ATOM      1  C   UNL     1       6.123   5.184  15.092  0.00  0.00    +0.000 C 
ATOM      2  C   UNL     1       5.158   6.390  15.044  0.00  0.00    +0.000 C 
ATOM      3  C   UNL     1       4.579   6.738  16.428  0.00  0.00    +0.000 C 
ATOM      4  C   UNL     1       4.102   5.517  17.161  0.00  0.00    +0.000 A 
ATOM      5  C   UNL     1       4.511   4.250  16.767  0.00  0.00    +0.000 A 
ATOM      6  S   UNL     1       3.934   3.023  17.782  0.00  0.00    +0.000 S 
ATOM      7  C   UNL     1       3.134   4.147  18.777  0.00  0.00    +0.000 A 
ATOM      8  N   UNL     1       2.476   3.709  19.858  0.00  0.00    +0.000 NA
ATOM      9  C   UNL     1       1.888   4.694  20.526  0.00  0.00    +0.000 A 
ATOM     10  N   UNL     1       1.871   5.984  20.193  0.00  0.00    +0.000 NA
ATOM     11  C   UNL     1       2.519   6.420  19.079  0.00  0.00    +0.000 A 
ATOM     12  N   UNL     1       2.435   7.785  18.748  0.00  0.00    +0.000 N 
ATOM     13  C   UNL     1       3.243   5.463  18.327  0.00  0.00    +0.000 A 
ATOM     14  C   UNL     1       5.361   3.931  15.573  0.00  0.00    +0.000 C 
ATOM     15  H   UNL     1       3.168   8.145  18.159  0.00  0.00    +0.000 HD
ENDROOT
BRANCH  12  16
ATOM     16  C   UNL     1       1.526   8.732  19.264  0.00  0.00    +0.000 A 
ATOM     17  C   UNL     1       1.208   9.884  18.513  0.00  0.00    +0.000 A 
ATOM     18  C   UNL     1       0.490  10.947  19.082  0.00  0.00    +0.000 A 
ATOM     19  C   UNL     1       0.107  10.838  20.406  0.00  0.00    +0.000 A 
ATOM     20  N   UNL     1      -0.483  11.844  21.167  0.00  0.00    +0.000 N 
ATOM     21  C   UNL     1      -0.684  11.544  22.495  0.00  0.00    +0.000 A 
ATOM     22  O   UNL     1      -1.101  12.308  23.348  0.00  0.00    +0.000 OA
ATOM     23  S   UNL     1      -0.217   9.863  22.804  0.00  0.00    +0.000 S 
ATOM     24  C   UNL     1       0.353   9.684  21.138  0.00  0.00    +0.000 A 
ATOM     25  C   UNL     1       1.044   8.628  20.579  0.00  0.00    +0.000 A 
ATOM     26  H   UNL     1      -0.666  12.776  20.831  0.00  0.00    +0.000 HD
ENDBRANCH  12  16
BRANCH   1  27
ATOM     27  C   UNL     1       7.340   5.506  15.981  0.00  0.00    +0.000 C 
BRANCH  27  30
ATOM     28  C   UNL     1       7.504   6.037  18.387  0.00  0.00    +0.000 C 
ATOM     29  O   UNL     1       8.123   7.079  18.202  0.00  0.00    +0.000 OA
ATOM     30  N   UNL     1       7.143   5.175  17.373  0.00  0.00    +0.000 N 
ATOM     31  H   UNL     1       6.504   4.423  17.620  0.00  0.00    +0.000 HD
BRANCH  28  33
ATOM     32  C   UNL     1       6.369   4.181  19.685  0.00  0.00    +0.000 C 
ATOM     33  C   UNL     1       7.042   5.539  19.766  0.00  0.00    +0.000 C 
BRANCH  33  34
ATOM     34  O   UNL     1       8.151   5.478  20.665  0.00  0.00    +0.000 OA
ATOM     35  H   UNL     1       7.791   5.565  21.566  0.00  0.00    +0.000 HD
ENDBRANCH  33  34
ENDBRANCH  28  33
ENDBRANCH  27  30
ENDBRANCH   1  27
TORSDOF 5
ENDMDL
MODEL 8
REMARK VINA RESULT:      -7.7      3.716      9.784
REMARK  Name = 
REMARK  6 active torsions:
REMARK  status: ('A' for Active; 'I' for Inactive)
REMARK    1  A    between atoms: C_1  and  C_2
REMARK    2  A    between atoms: C_2  and  O_3
REMARK    3  A    between atoms: C_2  and  C_4
REMARK    4  A    between atoms: N_6  and  C_7
REMARK    5  A    between atoms: C_7  and  C_8
REMARK    6  A    between atoms: N_19  and  C_20
REMARK                            x       y       z     vdW  Elec       q    Type
REMARK                         _______ _______ _______ _____ _____    ______ ____
ROOT
ATOM      1  C   UNL     1      -3.005  11.324  17.285  0.00  0.00    +0.000 C 
ATOM      2  C   UNL     1      -1.865  10.454  16.708  0.00  0.00    +0.000 C 
ATOM      3  C   UNL     1      -1.215   9.551  17.772  0.00  0.00    +0.000 C 
ATOM      4  C   UNL     1      -0.920  10.300  19.041  0.00  0.00    +0.000 A 
ATOM      5  C   UNL     1      -1.528  11.521  19.299  0.00  0.00    +0.000 A 
ATOM      6  S   UNL     1      -1.131  12.149  20.821  0.00  0.00    +0.000 S 
ATOM      7  C   UNL     1      -0.149  10.807  21.179  0.00  0.00    +0.000 A 
ATOM      8  N   UNL     1       0.452  10.739  22.374  0.00  0.00    +0.000 NA
ATOM      9  C   UNL     1       1.197   9.648  22.504  0.00  0.00    +0.000 A 
ATOM     10  N   UNL     1       1.408   8.712  21.579  0.00  0.00    +0.000 NA
ATOM     11  C   UNL     1       0.817   8.800  20.357  0.00  0.00    +0.000 A 
ATOM     12  N   UNL     1       1.106   7.809  19.402  0.00  0.00    +0.000 N 
ATOM     13  C   UNL     1      -0.060   9.889  20.132  0.00  0.00    +0.000 A 
ATOM     14  C   UNL     1      -2.438  12.266  18.368  0.00  0.00    +0.000 C 
ATOM     15  H   UNL     1       0.428   7.689  18.668  0.00  0.00    +0.000 HD
ENDROOT
BRANCH  12  16
ATOM     16  C   UNL     1       2.159   6.872  19.439  0.00  0.00    +0.000 A 
ATOM     17  C   UNL     1       3.253   7.008  18.557  0.00  0.00    +0.000 A 
ATOM     18  C   UNL     1       4.201   5.984  18.409  0.00  0.00    +0.000 A 
ATOM     19  C   UNL     1       4.029   4.829  19.151  0.00  0.00    +0.000 A 
ATOM     20  N   UNL     1       4.785   3.665  19.030  0.00  0.00    +0.000 N 
ATOM     21  C   UNL     1       4.369   2.604  19.799  0.00  0.00    +0.000 A 
ATOM     22  O   UNL     1       4.831   1.476  19.777  0.00  0.00    +0.000 OA
ATOM     23  S   UNL     1       3.018   3.107  20.830  0.00  0.00    +0.000 S 
ATOM     24  C   UNL     1       2.997   4.706  20.072  0.00  0.00    +0.000 A 
ATOM     25  C   UNL     1       2.072   5.717  20.233  0.00  0.00    +0.000 A 
ATOM     26  H   UNL     1       5.526   3.538  18.359  0.00  0.00    +0.000 HD
ENDBRANCH  12  16
BRANCH   1  27
ATOM     27  C   UNL     1      -4.141  10.432  17.822  0.00  0.00    +0.000 C 
BRANCH  27  30
ATOM     28  C   UNL     1      -6.191  10.513  19.194  0.00  0.00    +0.000 C 
ATOM     29  O   UNL     1      -6.516   9.361  18.931  0.00  0.00    +0.000 OA
ATOM     30  N   UNL     1      -5.091  11.139  18.646  0.00  0.00    +0.000 N 
ATOM     31  H   UNL     1      -4.831  12.036  19.048  0.00  0.00    +0.000 HD
BRANCH  28  33
ATOM     32  C   UNL     1      -7.916  10.646  21.045  0.00  0.00    +0.000 C 
ATOM     33  C   UNL     1      -6.956  11.426  20.166  0.00  0.00    +0.000 C 
BRANCH  33  34
ATOM     34  O   UNL     1      -6.038  12.159  20.980  0.00  0.00    +0.000 OA
ATOM     35  H   UNL     1      -6.565  12.788  21.505  0.00  0.00    +0.000 HD
ENDBRANCH  33  34
ENDBRANCH  28  33
ENDBRANCH  27  30
ENDBRANCH   1  27
TORSDOF 5
ENDMDL
MODEL 9
REMARK VINA RESULT:      -7.6      1.576      1.645
REMARK  Name = 
REMARK  6 active torsions:
REMARK  status: ('A' for Active; 'I' for Inactive)
REMARK    1  A    between atoms: C_1  and  C_2
REMARK    2  A    between atoms: C_2  and  O_3
REMARK    3  A    between atoms: C_2  and  C_4
REMARK    4  A    between atoms: N_6  and  C_7
REMARK    5  A    between atoms: C_7  and  C_8
REMARK    6  A    between atoms: N_19  and  C_20
REMARK                            x       y       z     vdW  Elec       q    Type
REMARK                         _______ _______ _______ _____ _____    ______ ____
ROOT
ATOM      1  C   UNL     1       6.170   4.640  15.793  0.00  0.00    +0.000 C 
ATOM      2  C   UNL     1       5.332   5.893  15.450  0.00  0.00    +0.000 C 
ATOM      3  C   UNL     1       4.637   6.494  16.685  0.00  0.00    +0.000 C 
ATOM      4  C   UNL     1       3.969   5.439  17.523  0.00  0.00    +0.000 A 
ATOM      5  C   UNL     1       4.302   4.100  17.370  0.00  0.00    +0.000 A 
ATOM      6  S   UNL     1       3.504   3.092  18.473  0.00  0.00    +0.000 S 
ATOM      7  C   UNL     1       2.704   4.413  19.187  0.00  0.00    +0.000 A 
ATOM      8  N   UNL     1       1.892   4.198  20.230  0.00  0.00    +0.000 NA
ATOM      9  C   UNL     1       1.326   5.315  20.669  0.00  0.00    +0.000 A 
ATOM     10  N   UNL     1       1.466   6.536  20.152  0.00  0.00    +0.000 NA
ATOM     11  C   UNL     1       2.272   6.744  19.077  0.00  0.00    +0.000 A 
ATOM     12  N   UNL     1       2.352   8.044  18.543  0.00  0.00    +0.000 N 
ATOM     13  C   UNL     1       2.984   5.631  18.568  0.00  0.00    +0.000 A 
ATOM     14  C   UNL     1       5.247   3.538  16.351  0.00  0.00    +0.000 C 
ATOM     15  H   UNL     1       3.176   8.252  18.005  0.00  0.00    +0.000 HD
ENDROOT
BRANCH  12  16
ATOM     16  C   UNL     1       1.482   9.124  18.799  0.00  0.00    +0.000 A 
ATOM     17  C   UNL     1       0.287   9.256  18.060  0.00  0.00    +0.000 A 
ATOM     18  C   UNL     1      -0.485  10.425  18.128  0.00  0.00    +0.000 A 
ATOM     19  C   UNL     1      -0.038  11.453  18.938  0.00  0.00    +0.000 A 
ATOM     20  N   UNL     1      -0.595  12.727  19.018  0.00  0.00    +0.000 N 
ATOM     21  C   UNL     1       0.079  13.622  19.816  0.00  0.00    +0.000 A 
ATOM     22  O   UNL     1      -0.186  14.803  19.952  0.00  0.00    +0.000 OA
ATOM     23  S   UNL     1       1.436  12.807  20.612  0.00  0.00    +0.000 S 
ATOM     24  C   UNL     1       1.099  11.314  19.723  0.00  0.00    +0.000 A 
ATOM     25  C   UNL     1       1.854  10.160  19.673  0.00  0.00    +0.000 A 
ATOM     26  H   UNL     1      -1.377  13.040  18.464  0.00  0.00    +0.000 HD
ENDBRANCH  12  16
BRANCH   1  27
ATOM     27  C   UNL     1       7.304   5.005  16.770  0.00  0.00    +0.000 C 
BRANCH  27  30
ATOM     28  C   UNL     1       7.932   7.018  18.055  0.00  0.00    +0.000 C 
ATOM     29  O   UNL     1       7.979   6.425  19.126  0.00  0.00    +0.000 OA
ATOM     30  N   UNL     1       7.546   6.425  16.871  0.00  0.00    +0.000 N 
ATOM     31  H   UNL     1       7.689   6.967  16.023  0.00  0.00    +0.000 HD
BRANCH  28  33
ATOM     32  C   UNL     1       7.084   9.338  17.495  0.00  0.00    +0.000 C 
ATOM     33  C   UNL     1       8.292   8.501  17.872  0.00  0.00    +0.000 C 
BRANCH  33  34
ATOM     34  O   UNL     1       8.886   9.015  19.066  0.00  0.00    +0.000 OA
ATOM     35  H   UNL     1       9.801   8.683  19.094  0.00  0.00    +0.000 HD
ENDBRANCH  33  34
ENDBRANCH  28  33
ENDBRANCH  27  30
ENDBRANCH   1  27
TORSDOF 5
ENDMDL
