MODEL 1
REMARK VINA RESULT:      -6.8      0.000      0.000
REMARK  Name = 
REMARK  3 active torsions:
REMARK  status: ('A' for Active; 'I' for Inactive)
REMARK    1  A    between atoms: C_1  and  N_2
REMARK    2  A    between atoms: N_2  and  C_3
REMARK    3  A    between atoms: C_8  and  C_9
REMARK                            x       y       z     vdW  Elec       q    Type
REMARK                         _______ _______ _______ _____ _____    ______ ____
ROOT
ATOM      1  C   UNL     1       4.583  10.326  26.068  0.00  0.00    +0.000 C 
ATOM      2  N   UNL     1       5.011  11.639  26.569  0.00  0.00    +0.000 N 
ATOM      3  C   UNL     1       4.387  12.108  27.805  0.00  0.00    +0.000 C 
ATOM      4  C   UNL     1       5.911  12.361  25.925  0.00  0.00    +0.000 A 
ATOM      5  C   UNL     1       6.361  13.622  26.393  0.00  0.00    +0.000 A 
ATOM      6  C   UNL     1       7.318  14.385  25.694  0.00  0.00    +0.000 A 
ATOM      7  C   UNL     1       7.907  13.966  24.466  0.00  0.00    +0.000 A 
ATOM      8  C   UNL     1       8.852  14.748  23.688  0.00  0.00    +0.000 A 
ATOM      9  C   UNL     1       9.408  14.256  22.422  0.00  0.00    +0.000 A 
ATOM     10  C   UNL     1      10.215  15.085  21.572  0.00  0.00    +0.000 A 
ATOM     11  C   UNL     1      10.756  14.637  20.347  0.00  0.00    +0.000 A 
ATOM     12  C   UNL     1      10.463  13.349  19.891  0.00  0.00    +0.000 A 
ATOM     13  C   UNL     1       9.634  12.513  20.642  0.00  0.00    +0.000 A 
ATOM     14  C   UNL     1       9.137  12.945  21.903  0.00  0.00    +0.000 A 
ATOM     15 SE   UNL     1       8.177  11.672  22.746  0.00  0.00    +0.000 Se
ATOM     16  C   UNL     1       7.461  12.616  24.051  0.00  0.00    +0.000 A 
ATOM     17  C   UNL     1       6.508  11.890  24.754  0.00  0.00    +0.000 A 
ATOM     18  C   UNL     1       9.265  11.134  20.076  0.00  0.00    +0.000 C 
ATOM     19  C   UNL     1       9.645  10.923  18.611  0.00  0.00    +0.000 C 
ATOM     20  C   UNL     1      11.042  11.451  18.388  0.00  0.00    +0.000 C 
ATOM     21  N   UNL     1      10.995  12.883  18.648  0.00  0.00    +0.000 N 
ATOM     22  C   UNL     1      11.402  13.851  17.650  0.00  0.00    +0.000 C 
ATOM     23  C   UNL     1      12.327  14.861  18.308  0.00  0.00    +0.000 C 
ATOM     24  C   UNL     1      11.633  15.560  19.507  0.00  0.00    +0.000 C 
ENDROOT
BRANCH   8  25
ATOM     25  C   UNL     1       9.229  16.145  24.177  0.00  0.00    +0.000 A 
ATOM     26  C   UNL     1      10.344  16.508  24.956  0.00  0.00    +0.000 A 
ATOM     27  C   UNL     1      10.419  17.878  25.269  0.00  0.00    +0.000 A 
ATOM     28  C   UNL     1       9.375  18.627  24.759  0.00  0.00    +0.000 A 
ATOM     29  S   UNL     1       8.380  17.589  23.901  0.00  0.00    +0.000 S 
ENDBRANCH   8  25
TORSDOF 1
ENDMDL
MODEL 2
REMARK VINA RESULT:      -6.2      8.803     12.768
REMARK  Name = 
REMARK  3 active torsions:
REMARK  status: ('A' for Active; 'I' for Inactive)
REMARK    1  A    between atoms: C_1  and  N_2
REMARK    2  A    between atoms: N_2  and  C_3
REMARK    3  A    between atoms: C_8  and  C_9
REMARK                            x       y       z     vdW  Elec       q    Type
REMARK                         _______ _______ _______ _____ _____    ______ ____
ROOT
ATOM      1  C   UNL     1       5.132  15.949  19.876  0.00  0.00    +0.000 C 
ATOM      2  N   UNL     1       4.622  14.936  18.943  0.00  0.00    +0.000 N 
ATOM      3  C   UNL     1       5.491  14.572  17.825  0.00  0.00    +0.000 C 
ATOM      4  C   UNL     1       3.431  14.388  19.105  0.00  0.00    +0.000 A 
ATOM      5  C   UNL     1       2.918  13.393  18.234  0.00  0.00    +0.000 A 
ATOM      6  C   UNL     1       1.643  12.820  18.416  0.00  0.00    +0.000 A 
ATOM      7  C   UNL     1       0.763  13.191  19.473  0.00  0.00    +0.000 A 
ATOM      8  C   UNL     1      -0.580  12.667  19.660  0.00  0.00    +0.000 A 
ATOM      9  C   UNL     1      -1.436  13.105  20.767  0.00  0.00    +0.000 A 
ATOM     10  C   UNL     1      -2.813  12.713  20.866  0.00  0.00    +0.000 A 
ATOM     11  C   UNL     1      -3.659  13.127  21.917  0.00  0.00    +0.000 A 
ATOM     12  C   UNL     1      -3.174  14.005  22.892  0.00  0.00    +0.000 A 
ATOM     13  C   UNL     1      -1.860  14.471  22.819  0.00  0.00    +0.000 A 
ATOM     14  C   UNL     1      -0.992  14.008  21.792  0.00  0.00    +0.000 A 
ATOM     15 SE   UNL     1       0.683  14.658  21.950  0.00  0.00    +0.000 Se
ATOM     16  C   UNL     1       1.364  14.180  20.396  0.00  0.00    +0.000 A 
ATOM     17  C   UNL     1       2.620  14.736  20.187  0.00  0.00    +0.000 A 
ATOM     18  C   UNL     1      -1.380  15.496  23.858  0.00  0.00    +0.000 C 
ATOM     19  C   UNL     1      -2.489  16.097  24.721  0.00  0.00    +0.000 C 
ATOM     20  C   UNL     1      -3.417  14.991  25.164  0.00  0.00    +0.000 C 
ATOM     21  N   UNL     1      -4.020  14.441  23.958  0.00  0.00    +0.000 N 
ATOM     22  C   UNL     1      -5.458  14.396  23.780  0.00  0.00    +0.000 C 
ATOM     23  C   UNL     1      -5.840  13.006  23.300  0.00  0.00    +0.000 C 
ATOM     24  C   UNL     1      -5.106  12.647  21.980  0.00  0.00    +0.000 C 
ENDROOT
BRANCH   8  25
ATOM     25  C   UNL     1      -1.130  11.673  18.637  0.00  0.00    +0.000 A 
ATOM     26  C   UNL     1      -1.917  11.956  17.506  0.00  0.00    +0.000 A 
ATOM     27  C   UNL     1      -2.292  10.826  16.756  0.00  0.00    +0.000 A 
ATOM     28  C   UNL     1      -1.824   9.631  17.271  0.00  0.00    +0.000 A 
ATOM     29  S   UNL     1      -0.926   9.988  18.638  0.00  0.00    +0.000 S 
ENDBRANCH   8  25
TORSDOF 1
ENDMDL
MODEL 3
REMARK VINA RESULT:      -6.0      9.156     12.565
REMARK  Name = 
REMARK  3 active torsions:
REMARK  status: ('A' for Active; 'I' for Inactive)
REMARK    1  A    between atoms: C_1  and  N_2
REMARK    2  A    between atoms: N_2  and  C_3
REMARK    3  A    between atoms: C_8  and  C_9
REMARK                            x       y       z     vdW  Elec       q    Type
REMARK                         _______ _______ _______ _____ _____    ______ ____
ROOT
ATOM      1  C   UNL     1       6.122   5.911  13.933  0.00  0.00    +0.000 C 
ATOM      2  N   UNL     1       5.786   4.805  14.839  0.00  0.00    +0.000 N 
ATOM      3  C   UNL     1       6.289   3.481  14.480  0.00  0.00    +0.000 C 
ATOM      4  C   UNL     1       5.055   5.002  15.922  0.00  0.00    +0.000 A 
ATOM      5  C   UNL     1       4.730   3.960  16.828  0.00  0.00    +0.000 A 
ATOM      6  C   UNL     1       3.945   4.183  17.978  0.00  0.00    +0.000 A 
ATOM      7  C   UNL     1       3.408   5.456  18.324  0.00  0.00    +0.000 A 
ATOM      8  C   UNL     1       2.548   5.713  19.467  0.00  0.00    +0.000 A 
ATOM      9  C   UNL     1       2.021   7.051  19.754  0.00  0.00    +0.000 A 
ATOM     10  C   UNL     1       1.048   7.281  20.784  0.00  0.00    +0.000 A 
ATOM     11  C   UNL     1       0.520   8.558  21.075  0.00  0.00    +0.000 A 
ATOM     12  C   UNL     1       0.905   9.659  20.304  0.00  0.00    +0.000 A 
ATOM     13  C   UNL     1       1.804   9.492  19.248  0.00  0.00    +0.000 A 
ATOM     14  C   UNL     1       2.378   8.215  18.993  0.00  0.00    +0.000 A 
ATOM     15 SE   UNL     1       3.586   8.251  17.654  0.00  0.00    +0.000 Se
ATOM     16  C   UNL     1       3.828   6.525  17.391  0.00  0.00    +0.000 A 
ATOM     17  C   UNL     1       4.595   6.276  16.258  0.00  0.00    +0.000 A 
ATOM     18  C   UNL     1       2.145  10.704  18.369  0.00  0.00    +0.000 C 
ATOM     19  C   UNL     1       1.255  11.925  18.592  0.00  0.00    +0.000 C 
ATOM     20  C   UNL     1       1.071  12.132  20.077  0.00  0.00    +0.000 C 
ATOM     21  N   UNL     1       0.374  10.956  20.580  0.00  0.00    +0.000 N 
ATOM     22  C   UNL     1      -0.887  11.066  21.287  0.00  0.00    +0.000 C 
ATOM     23  C   UNL     1      -0.807  10.218  22.546  0.00  0.00    +0.000 C 
ATOM     24  C   UNL     1      -0.488   8.737  22.206  0.00  0.00    +0.000 C 
ENDROOT
BRANCH   8  25
ATOM     25  C   UNL     1       2.139   4.541  20.358  0.00  0.00    +0.000 A 
ATOM     26  C   UNL     1       2.740   4.131  21.563  0.00  0.00    +0.000 A 
ATOM     27  C   UNL     1       2.151   2.998  22.155  0.00  0.00    +0.000 A 
ATOM     28  C   UNL     1       1.085   2.483  21.440  0.00  0.00    +0.000 A 
ATOM     29  S   UNL     1       0.865   3.451  20.092  0.00  0.00    +0.000 S 
ENDBRANCH   8  25
TORSDOF 1
ENDMDL
MODEL 4
REMARK VINA RESULT:      -5.9      9.594     13.302
REMARK  Name = 
REMARK  3 active torsions:
REMARK  status: ('A' for Active; 'I' for Inactive)
REMARK    1  A    between atoms: C_1  and  N_2
REMARK    2  A    between atoms: N_2  and  C_3
REMARK    3  A    between atoms: C_8  and  C_9
REMARK                            x       y       z     vdW  Elec       q    Type
REMARK                         _______ _______ _______ _____ _____    ______ ____
ROOT
ATOM      1  C   UNL     1       4.240  16.690  19.682  0.00  0.00    +0.000 C 
ATOM      2  N   UNL     1       3.945  15.509  18.859  0.00  0.00    +0.000 N 
ATOM      3  C   UNL     1       4.967  15.106  17.895  0.00  0.00    +0.000 C 
ATOM      4  C   UNL     1       2.806  14.852  18.982  0.00  0.00    +0.000 A 
ATOM      5  C   UNL     1       2.500  13.697  18.219  0.00  0.00    +0.000 A 
ATOM      6  C   UNL     1       1.278  13.007  18.357  0.00  0.00    +0.000 A 
ATOM      7  C   UNL     1       0.251  13.408  19.260  0.00  0.00    +0.000 A 
ATOM      8  C   UNL     1      -1.042  12.759  19.389  0.00  0.00    +0.000 A 
ATOM      9  C   UNL     1      -2.058  13.237  20.333  0.00  0.00    +0.000 A 
ATOM     10  C   UNL     1      -3.390  12.702  20.354  0.00  0.00    +0.000 A 
ATOM     11  C   UNL     1      -4.387  13.149  21.248  0.00  0.00    +0.000 A 
ATOM     12  C   UNL     1      -4.107  14.199  22.129  0.00  0.00    +0.000 A 
ATOM     13  C   UNL     1      -2.848  14.803  22.117  0.00  0.00    +0.000 A 
ATOM     14  C   UNL     1      -1.827  14.313  21.256  0.00  0.00    +0.000 A 
ATOM     15 SE   UNL     1      -0.257  15.171  21.479  0.00  0.00    +0.000 Se
ATOM     16  C   UNL     1       0.640  14.574  20.084  0.00  0.00    +0.000 A 
ATOM     17  C   UNL     1       1.848  15.242  19.920  0.00  0.00    +0.000 A 
ATOM     18  C   UNL     1      -2.596  16.006  23.038  0.00  0.00    +0.000 C 
ATOM     19  C   UNL     1      -3.851  16.581  23.694  0.00  0.00    +0.000 C 
ATOM     20  C   UNL     1      -4.703  15.442  24.201  0.00  0.00    +0.000 C 
ATOM     21  N   UNL     1      -5.107  14.670  23.034  0.00  0.00    +0.000 N 
ATOM     22  C   UNL     1      -6.504  14.433  22.726  0.00  0.00    +0.000 C 
ATOM     23  C   UNL     1      -6.684  12.956  22.416  0.00  0.00    +0.000 C 
ATOM     24  C   UNL     1      -5.774  12.514  21.239  0.00  0.00    +0.000 C 
ENDROOT
BRANCH   8  25
ATOM     25  C   UNL     1      -1.369  11.580  18.473  0.00  0.00    +0.000 A 
ATOM     26  C   UNL     1      -0.716  10.335  18.413  0.00  0.00    +0.000 A 
ATOM     27  C   UNL     1      -1.233   9.449  17.450  0.00  0.00    +0.000 A 
ATOM     28  C   UNL     1      -2.291   9.964  16.724  0.00  0.00    +0.000 A 
ATOM     29  S   UNL     1      -2.595  11.506  17.301  0.00  0.00    +0.000 S 
ENDBRANCH   8  25
TORSDOF 1
ENDMDL
MODEL 5
REMARK VINA RESULT:      -5.8      9.971     13.038
REMARK  Name = 
REMARK  3 active torsions:
REMARK  status: ('A' for Active; 'I' for Inactive)
REMARK    1  A    between atoms: C_1  and  N_2
REMARK    2  A    between atoms: N_2  and  C_3
REMARK    3  A    between atoms: C_8  and  C_9
REMARK                            x       y       z     vdW  Elec       q    Type
REMARK                         _______ _______ _______ _____ _____    ______ ____
ROOT
ATOM      1  C   UNL     1       3.395  13.460  18.151  0.00  0.00    +0.000 C 
ATOM      2  N   UNL     1       3.196  14.205  19.401  0.00  0.00    +0.000 N 
ATOM      3  C   UNL     1       4.369  14.871  19.965  0.00  0.00    +0.000 C 
ATOM      4  C   UNL     1       2.015  14.259  19.990  0.00  0.00    +0.000 A 
ATOM      5  C   UNL     1       1.785  14.986  21.186  0.00  0.00    +0.000 A 
ATOM      6  C   UNL     1       0.520  15.033  21.806  0.00  0.00    +0.000 A 
ATOM      7  C   UNL     1      -0.625  14.356  21.297  0.00  0.00    +0.000 A 
ATOM      8  C   UNL     1      -1.929  14.332  21.938  0.00  0.00    +0.000 A 
ATOM      9  C   UNL     1      -3.062  13.600  21.361  0.00  0.00    +0.000 A 
ATOM     10  C   UNL     1      -4.303  13.441  22.064  0.00  0.00    +0.000 A 
ATOM     11  C   UNL     1      -5.406  12.737  21.534  0.00  0.00    +0.000 A 
ATOM     12  C   UNL     1      -5.292  12.108  20.290  0.00  0.00    +0.000 A 
ATOM     13  C   UNL     1      -4.091  12.175  19.581  0.00  0.00    +0.000 A 
ATOM     14  C   UNL     1      -3.001  12.933  20.091  0.00  0.00    +0.000 A 
ATOM     15 SE   UNL     1      -1.590  12.967  18.967  0.00  0.00    +0.000 Se
ATOM     16  C   UNL     1      -0.358  13.668  20.014  0.00  0.00    +0.000 A 
ATOM     17  C   UNL     1       0.902  13.629  19.430  0.00  0.00    +0.000 A 
ATOM     18  C   UNL     1      -3.971  11.408  18.256  0.00  0.00    +0.000 C 
ATOM     19  C   UNL     1      -5.113  10.431  17.978  0.00  0.00    +0.000 C 
ATOM     20  C   UNL     1      -6.423  11.103  18.313  0.00  0.00    +0.000 C 
ATOM     21  N   UNL     1      -6.396  11.383  19.742  0.00  0.00    +0.000 N 
ATOM     22  C   UNL     1      -7.421  10.880  20.635  0.00  0.00    +0.000 C 
ATOM     23  C   UNL     1      -7.889  12.022  21.522  0.00  0.00    +0.000 C 
ATOM     24  C   UNL     1      -6.708  12.633  22.322  0.00  0.00    +0.000 C 
ENDROOT
BRANCH   8  25
ATOM     25  C   UNL     1      -2.103  15.043  23.279  0.00  0.00    +0.000 A 
ATOM     26  C   UNL     1      -1.833  14.531  24.561  0.00  0.00    +0.000 A 
ATOM     27  C   UNL     1      -2.111  15.419  25.617  0.00  0.00    +0.000 A 
ATOM     28  C   UNL     1      -2.609  16.641  25.205  0.00  0.00    +0.000 A 
ATOM     29  S   UNL     1      -2.677  16.621  23.532  0.00  0.00    +0.000 S 
ENDBRANCH   8  25
TORSDOF 1
ENDMDL
MODEL 6
REMARK VINA RESULT:      -5.8      9.567     13.185
REMARK  Name = 
REMARK  3 active torsions:
REMARK  status: ('A' for Active; 'I' for Inactive)
REMARK    1  A    between atoms: C_1  and  N_2
REMARK    2  A    between atoms: N_2  and  C_3
REMARK    3  A    between atoms: C_8  and  C_9
REMARK                            x       y       z     vdW  Elec       q    Type
REMARK                         _______ _______ _______ _____ _____    ______ ____
ROOT
ATOM      1  C   UNL     1       3.314  16.766  17.660  0.00  0.00    +0.000 C 
ATOM      2  N   UNL     1       3.481  15.406  18.187  0.00  0.00    +0.000 N 
ATOM      3  C   UNL     1       4.765  14.754  17.936  0.00  0.00    +0.000 C 
ATOM      4  C   UNL     1       2.510  14.800  18.847  0.00  0.00    +0.000 A 
ATOM      5  C   UNL     1       2.646  13.495  19.386  0.00  0.00    +0.000 A 
ATOM      6  C   UNL     1       1.601  12.858  20.086  0.00  0.00    +0.000 A 
ATOM      7  C   UNL     1       0.327  13.457  20.304  0.00  0.00    +0.000 A 
ATOM      8  C   UNL     1      -0.793  12.812  20.967  0.00  0.00    +0.000 A 
ATOM      9  C   UNL     1      -2.082  13.488  21.145  0.00  0.00    +0.000 A 
ATOM     10  C   UNL     1      -3.237  12.804  21.655  0.00  0.00    +0.000 A 
ATOM     11  C   UNL     1      -4.490  13.430  21.829  0.00  0.00    +0.000 A 
ATOM     12  C   UNL     1      -4.657  14.764  21.443  0.00  0.00    +0.000 A 
ATOM     13  C   UNL     1      -3.589  15.468  20.884  0.00  0.00    +0.000 A 
ATOM     14  C   UNL     1      -2.312  14.853  20.763  0.00  0.00    +0.000 A 
ATOM     15 SE   UNL     1      -1.058  15.975  20.113  0.00  0.00    +0.000 Se
ATOM     16  C   UNL     1       0.252  14.842  19.786  0.00  0.00    +0.000 A 
ATOM     17  C   UNL     1       1.295  15.442  19.091  0.00  0.00    +0.000 A 
ATOM     18  C   UNL     1      -3.825  16.905  20.396  0.00  0.00    +0.000 C 
ATOM     19  C   UNL     1      -5.292  17.328  20.342  0.00  0.00    +0.000 C 
ATOM     20  C   UNL     1      -5.981  16.865  21.603  0.00  0.00    +0.000 C 
ATOM     21  N   UNL     1      -5.922  15.410  21.603  0.00  0.00    +0.000 N 
ATOM     22  C   UNL     1      -7.121  14.601  21.686  0.00  0.00    +0.000 C 
ATOM     23  C   UNL     1      -6.906  13.527  22.740  0.00  0.00    +0.000 C 
ATOM     24  C   UNL     1      -5.668  12.653  22.406  0.00  0.00    +0.000 C 
ENDROOT
BRANCH   8  25
ATOM     25  C   UNL     1      -0.634  11.368  21.441  0.00  0.00    +0.000 A 
ATOM     26  C   UNL     1      -0.611  10.899  22.767  0.00  0.00    +0.000 A 
ATOM     27  C   UNL     1      -0.431   9.509  22.894  0.00  0.00    +0.000 A 
ATOM     28  C   UNL     1      -0.303   8.848  21.687  0.00  0.00    +0.000 A 
ATOM     29  S   UNL     1      -0.438   9.990  20.469  0.00  0.00    +0.000 S 
ENDBRANCH   8  25
TORSDOF 1
ENDMDL
MODEL 7
REMARK VINA RESULT:      -5.7      9.754     12.357
REMARK  Name = 
REMARK  3 active torsions:
REMARK  status: ('A' for Active; 'I' for Inactive)
REMARK    1  A    between atoms: C_1  and  N_2
REMARK    2  A    between atoms: N_2  and  C_3
REMARK    3  A    between atoms: C_8  and  C_9
REMARK                            x       y       z     vdW  Elec       q    Type
REMARK                         _______ _______ _______ _____ _____    ______ ____
ROOT
ATOM      1  C   UNL     1       4.548  14.465  19.101  0.00  0.00    +0.000 C 
ATOM      2  N   UNL     1       3.967  15.039  20.321  0.00  0.00    +0.000 N 
ATOM      3  C   UNL     1       4.874  15.772  21.202  0.00  0.00    +0.000 C 
ATOM      4  C   UNL     1       2.686  14.890  20.609  0.00  0.00    +0.000 A 
ATOM      5  C   UNL     1       2.089  15.449  21.768  0.00  0.00    +0.000 A 
ATOM      6  C   UNL     1       0.722  15.278  22.066  0.00  0.00    +0.000 A 
ATOM      7  C   UNL     1      -0.170  14.531  21.244  0.00  0.00    +0.000 A 
ATOM      8  C   UNL     1      -1.570  14.284  21.546  0.00  0.00    +0.000 A 
ATOM      9  C   UNL     1      -2.427  13.493  20.657  0.00  0.00    +0.000 A 
ATOM     10  C   UNL     1      -3.761  13.113  21.025  0.00  0.00    +0.000 A 
ATOM     11  C   UNL     1      -4.603  12.346  20.190  0.00  0.00    +0.000 A 
ATOM     12  C   UNL     1      -4.120  11.876  18.964  0.00  0.00    +0.000 A 
ATOM     13  C   UNL     1      -2.810  12.161  18.574  0.00  0.00    +0.000 A 
ATOM     14  C   UNL     1      -1.983  12.981  19.390  0.00  0.00    +0.000 A 
ATOM     15 SE   UNL     1      -0.372  13.303  18.647  0.00  0.00    +0.000 Se
ATOM     16  C   UNL     1       0.477  14.025  20.013  0.00  0.00    +0.000 A 
ATOM     17  C   UNL     1       1.831  14.199  19.749  0.00  0.00    +0.000 A 
ATOM     18  C   UNL     1      -2.283  11.563  17.261  0.00  0.00    +0.000 C 
ATOM     19  C   UNL     1      -3.183  10.496  16.639  0.00  0.00    +0.000 C 
ATOM     20  C   UNL     1      -4.616  10.969  16.700  0.00  0.00    +0.000 C 
ATOM     21  N   UNL     1      -4.956  11.092  18.111  0.00  0.00    +0.000 N 
ATOM     22  C   UNL     1      -6.078  10.376  18.687  0.00  0.00    +0.000 C 
ATOM     23  C   UNL     1      -6.892  11.351  19.522  0.00  0.00    +0.000 C 
ATOM     24  C   UNL     1      -6.023  12.005  20.629  0.00  0.00    +0.000 C 
ENDROOT
BRANCH   8  25
ATOM     25  C   UNL     1      -2.144  14.819  22.857  0.00  0.00    +0.000 A 
ATOM     26  C   UNL     1      -2.091  14.212  24.126  0.00  0.00    +0.000 A 
ATOM     27  C   UNL     1      -2.729  14.937  25.149  0.00  0.00    +0.000 A 
ATOM     28  C   UNL     1      -3.303  16.121  24.723  0.00  0.00    +0.000 A 
ATOM     29  S   UNL     1      -2.994  16.271  23.084  0.00  0.00    +0.000 S 
ENDBRANCH   8  25
TORSDOF 1
ENDMDL
MODEL 8
REMARK VINA RESULT:      -5.7     10.161     12.335
REMARK  Name = 
REMARK  3 active torsions:
REMARK  status: ('A' for Active; 'I' for Inactive)
REMARK    1  A    between atoms: C_1  and  N_2
REMARK    2  A    between atoms: N_2  and  C_3
REMARK    3  A    between atoms: C_8  and  C_9
REMARK                            x       y       z     vdW  Elec       q    Type
REMARK                         _______ _______ _______ _____ _____    ______ ____
ROOT
ATOM      1  C   UNL     1      -4.220  17.766  25.458  0.00  0.00    +0.000 C 
ATOM      2  N   UNL     1      -2.794  17.674  25.119  0.00  0.00    +0.000 N 
ATOM      3  C   UNL     1      -1.883  18.544  25.861  0.00  0.00    +0.000 C 
ATOM      4  C   UNL     1      -2.361  16.849  24.182  0.00  0.00    +0.000 A 
ATOM      5  C   UNL     1      -0.990  16.721  23.846  0.00  0.00    +0.000 A 
ATOM      6  C   UNL     1      -0.542  15.840  22.840  0.00  0.00    +0.000 A 
ATOM      7  C   UNL     1      -1.417  15.015  22.077  0.00  0.00    +0.000 A 
ATOM      8  C   UNL     1      -1.000  14.139  20.995  0.00  0.00    +0.000 A 
ATOM      9  C   UNL     1      -1.962  13.327  20.242  0.00  0.00    +0.000 A 
ATOM     10  C   UNL     1      -1.582  12.584  19.074  0.00  0.00    +0.000 A 
ATOM     11  C   UNL     1      -2.489  11.800  18.329  0.00  0.00    +0.000 A 
ATOM     12  C   UNL     1      -3.840  11.773  18.691  0.00  0.00    +0.000 A 
ATOM     13  C   UNL     1      -4.285  12.522  19.781  0.00  0.00    +0.000 A 
ATOM     14  C   UNL     1      -3.360  13.265  20.565  0.00  0.00    +0.000 A 
ATOM     15 SE   UNL     1      -4.135  14.070  21.981  0.00  0.00    +0.000 Se
ATOM     16  C   UNL     1      -2.829  15.130  22.507  0.00  0.00    +0.000 A 
ATOM     17  C   UNL     1      -3.244  16.015  23.495  0.00  0.00    +0.000 A 
ATOM     18  C   UNL     1      -5.787  12.535  20.105  0.00  0.00    +0.000 C 
ATOM     19  C   UNL     1      -6.678  11.920  19.027  0.00  0.00    +0.000 C 
ATOM     20  C   UNL     1      -6.048  10.634  18.548  0.00  0.00    +0.000 C 
ATOM     21  N   UNL     1      -4.773  10.992  17.941  0.00  0.00    +0.000 N 
ATOM     22  C   UNL     1      -4.459  10.643  16.570  0.00  0.00    +0.000 C 
ATOM     23  C   UNL     1      -3.068  10.031  16.536  0.00  0.00    +0.000 C 
ATOM     24  C   UNL     1      -2.011  11.009  17.115  0.00  0.00    +0.000 C 
ENDROOT
BRANCH   8  25
ATOM     25  C   UNL     1       0.475  14.111  20.598  0.00  0.00    +0.000 A 
ATOM     26  C   UNL     1       1.472  13.237  21.069  0.00  0.00    +0.000 A 
ATOM     27  C   UNL     1       2.752  13.465  20.531  0.00  0.00    +0.000 A 
ATOM     28  C   UNL     1       2.805  14.517  19.636  0.00  0.00    +0.000 A 
ATOM     29  S   UNL     1       1.257  15.140  19.498  0.00  0.00    +0.000 S 
ENDBRANCH   8  25
TORSDOF 1
ENDMDL
MODEL 9
REMARK VINA RESULT:      -5.7      8.387      9.775
REMARK  Name = 
REMARK  3 active torsions:
REMARK  status: ('A' for Active; 'I' for Inactive)
REMARK    1  A    between atoms: C_1  and  N_2
REMARK    2  A    between atoms: N_2  and  C_3
REMARK    3  A    between atoms: C_8  and  C_9
REMARK                            x       y       z     vdW  Elec       q    Type
REMARK                         _______ _______ _______ _____ _____    ______ ____
ROOT
ATOM      1  C   UNL     1      -2.697  10.667  16.190  0.00  0.00    +0.000 C 
ATOM      2  N   UNL     1      -3.326  11.107  17.442  0.00  0.00    +0.000 N 
ATOM      3  C   UNL     1      -4.717  10.712  17.655  0.00  0.00    +0.000 C 
ATOM      4  C   UNL     1      -2.665  11.833  18.326  0.00  0.00    +0.000 A 
ATOM      5  C   UNL     1      -3.236  12.256  19.553  0.00  0.00    +0.000 A 
ATOM      6  C   UNL     1      -2.521  13.034  20.487  0.00  0.00    +0.000 A 
ATOM      7  C   UNL     1      -1.180  13.466  20.280  0.00  0.00    +0.000 A 
ATOM      8  C   UNL     1      -0.430  14.316  21.189  0.00  0.00    +0.000 A 
ATOM      9  C   UNL     1       0.947  14.733  20.903  0.00  0.00    +0.000 A 
ATOM     10  C   UNL     1       1.635  15.696  21.714  0.00  0.00    +0.000 A 
ATOM     11  C   UNL     1       2.958  16.118  21.456  0.00  0.00    +0.000 A 
ATOM     12  C   UNL     1       3.633  15.632  20.332  0.00  0.00    +0.000 A 
ATOM     13  C   UNL     1       2.997  14.737  19.469  0.00  0.00    +0.000 A 
ATOM     14  C   UNL     1       1.686  14.269  19.762  0.00  0.00    +0.000 A 
ATOM     15 SE   UNL     1       1.101  13.046  18.573  0.00  0.00    +0.000 Se
ATOM     16  C   UNL     1      -0.600  12.946  19.021  0.00  0.00    +0.000 A 
ATOM     17  C   UNL     1      -1.332  12.189  18.113  0.00  0.00    +0.000 A 
ATOM     18  C   UNL     1       3.734  14.284  18.200  0.00  0.00    +0.000 C 
ATOM     19  C   UNL     1       5.005  15.071  17.884  0.00  0.00    +0.000 C 
ATOM     20  C   UNL     1       5.795  15.256  19.158  0.00  0.00    +0.000 C 
ATOM     21  N   UNL     1       4.968  16.056  20.051  0.00  0.00    +0.000 N 
ATOM     22  C   UNL     1       5.439  17.311  20.601  0.00  0.00    +0.000 C 
ATOM     23  C   UNL     1       5.155  17.320  22.094  0.00  0.00    +0.000 C 
ATOM     24  C   UNL     1       3.642  17.122  22.378  0.00  0.00    +0.000 C 
ENDROOT
BRANCH   8  25
ATOM     25  C   UNL     1      -1.121  14.833  22.450  0.00  0.00    +0.000 A 
ATOM     26  C   UNL     1      -1.167  14.218  23.715  0.00  0.00    +0.000 A 
ATOM     27  C   UNL     1      -1.898  14.929  24.685  0.00  0.00    +0.000 A 
ATOM     28  C   UNL     1      -2.451  16.107  24.218  0.00  0.00    +0.000 A 
ATOM     29  S   UNL     1      -2.006  16.272  22.613  0.00  0.00    +0.000 S 
ENDBRANCH   8  25
TORSDOF 1
ENDMDL
