MODEL 1
REMARK VINA RESULT:      -7.4      0.000      0.000
REMARK  Name = 
REMARK  7 active torsions:
REMARK  status: ('A' for Active; 'I' for Inactive)
REMARK    1  A    between atoms: C_2  and  C_3
REMARK    2  A    between atoms: C_3  and  O_4
REMARK    3  A    between atoms: O_4  and  C_5
REMARK    4  A    between atoms: N_11  and  C_12
REMARK    5  A    between atoms: C_12  and  C_13
REMARK    6  A    between atoms: C_13  and  C_14
REMARK    7  A    between atoms: C_13  and  N_19
REMARK                            x       y       z     vdW  Elec       q    Type
REMARK                         _______ _______ _______ _____ _____    ______ ____
ROOT
ATOM      1  C   UNL     1       3.561   5.565  17.594  0.00  0.00    +0.000 C 
ENDROOT
BRANCH   1   4
ATOM      2  O   UNL     1       5.040   7.105  15.731  0.00  0.00    +0.000 OA
ATOM      3  C   UNL     1       5.645   6.328  16.466  0.00  0.00    +0.000 C 
ATOM      4  N   UNL     1       5.008   5.525  17.393  0.00  0.00    +0.000 N 
ATOM      5  H   UNL     1       5.556   4.904  17.975  0.00  0.00    +0.000 HD
BRANCH   3   6
ATOM      6  C   UNL     1       7.168   6.158  16.419  0.00  0.00    +0.000 C 
BRANCH   6   7
ATOM      7  O   UNL     1       7.516   4.863  15.938  0.00  0.00    +0.000 OA
BRANCH   7   8
ATOM      8  C   UNL     1       7.248   4.638  14.612  0.00  0.00    +0.000 A 
ATOM      9  C   UNL     1       6.220   3.732  14.338  0.00  0.00    +0.000 A 
ATOM     10  C   UNL     1       5.860   3.444  13.019  0.00  0.00    +0.000 A 
ATOM     11  C   UNL     1       6.512   4.080  11.963  0.00  0.00    +0.000 A 
ATOM     12  C   UNL     1       7.523   4.999  12.230  0.00  0.00    +0.000 A 
ATOM     13  C   UNL     1       7.889   5.279  13.550  0.00  0.00    +0.000 A 
ENDBRANCH   7   8
ENDBRANCH   6   7
ENDBRANCH   3   6
ENDBRANCH   1   4
BRANCH   1  14
ATOM     14  C   UNL     1       3.097   6.074  19.000  0.00  0.00    +0.000 C 
BRANCH  14  15
ATOM     15  N   UNL     1       2.143   5.118  19.672  0.00  0.00    +0.000 NA
ATOM     16  C   UNL     1       1.712   4.064  18.727  0.00  0.00    +0.000 C 
ATOM     17  C   UNL     1       0.746   3.061  19.364  0.00  0.00    +0.000 C 
ATOM     18  C   UNL     1       1.346   2.421  20.604  0.00  0.00    +0.000 C 
ATOM     19  C   UNL     1       1.809   3.505  21.561  0.00  0.00    +0.000 C 
ATOM     20  C   UNL     1       2.756   4.487  20.866  0.00  0.00    +0.000 C 
ENDBRANCH  14  15
BRANCH  14  21
ATOM     21  C   UNL     1       2.461   7.439  18.838  0.00  0.00    +0.000 A 
ATOM     22  C   UNL     1       2.254   8.276  17.758  0.00  0.00    +0.000 A 
ATOM     23  C   UNL     1       1.463   9.353  18.229  0.00  0.00    +0.000 A 
ATOM     24  C   UNL     1       1.248   9.114  19.566  0.00  0.00    +0.000 A 
ATOM     25  O   UNL     1       1.860   7.964  19.949  0.00  0.00    +0.000 OA
ENDBRANCH  14  21
ENDBRANCH   1  14
TORSDOF 7
ENDMDL
MODEL 2
REMARK VINA RESULT:      -7.3      4.018      5.756
REMARK  Name = 
REMARK  7 active torsions:
REMARK  status: ('A' for Active; 'I' for Inactive)
REMARK    1  A    between atoms: C_2  and  C_3
REMARK    2  A    between atoms: C_3  and  O_4
REMARK    3  A    between atoms: O_4  and  C_5
REMARK    4  A    between atoms: N_11  and  C_12
REMARK    5  A    between atoms: C_12  and  C_13
REMARK    6  A    between atoms: C_13  and  C_14
REMARK    7  A    between atoms: C_13  and  N_19
REMARK                            x       y       z     vdW  Elec       q    Type
REMARK                         _______ _______ _______ _____ _____    ______ ____
ROOT
ATOM      1  C   UNL     1       5.772   6.024  16.941  0.00  0.00    +0.000 C 
ENDROOT
BRANCH   1   4
ATOM      2  O   UNL     1       8.033   6.544  18.567  0.00  0.00    +0.000 OA
ATOM      3  C   UNL     1       7.574   7.457  17.886  0.00  0.00    +0.000 C 
ATOM      4  N   UNL     1       6.466   7.302  17.075  0.00  0.00    +0.000 N 
ATOM      5  H   UNL     1       6.131   8.089  16.533  0.00  0.00    +0.000 HD
BRANCH   3   6
ATOM      6  C   UNL     1       8.176   8.867  17.876  0.00  0.00    +0.000 C 
BRANCH   6   7
ATOM      7  O   UNL     1       8.922   9.106  19.066  0.00  0.00    +0.000 OA
BRANCH   7   8
ATOM      8  C   UNL     1       9.375  10.391  19.227  0.00  0.00    +0.000 A 
ATOM      9  C   UNL     1       9.587  11.119  18.052  0.00  0.00    +0.000 A 
ATOM     10  C   UNL     1      10.035  12.441  18.108  0.00  0.00    +0.000 A 
ATOM     11  C   UNL     1      10.252  13.053  19.342  0.00  0.00    +0.000 A 
ATOM     12  C   UNL     1      10.023  12.341  20.515  0.00  0.00    +0.000 A 
ATOM     13  C   UNL     1       9.584  11.014  20.458  0.00  0.00    +0.000 A 
ENDBRANCH   7   8
ENDBRANCH   6   7
ENDBRANCH   3   6
ENDBRANCH   1   4
BRANCH   1  14
ATOM     14  C   UNL     1       4.944   5.580  18.194  0.00  0.00    +0.000 C 
BRANCH  14  15
ATOM     15  N   UNL     1       4.472   4.151  18.094  0.00  0.00    +0.000 NA
ATOM     16  C   UNL     1       4.455   3.512  19.428  0.00  0.00    +0.000 C 
ATOM     17  C   UNL     1       3.975   2.060  19.382  0.00  0.00    +0.000 C 
ATOM     18  C   UNL     1       2.600   1.948  18.744  0.00  0.00    +0.000 C 
ATOM     19  C   UNL     1       2.614   2.624  17.385  0.00  0.00    +0.000 C 
ATOM     20  C   UNL     1       3.119   4.066  17.491  0.00  0.00    +0.000 C 
ENDBRANCH  14  15
BRANCH  14  21
ATOM     21  C   UNL     1       3.769   6.521  18.360  0.00  0.00    +0.000 A 
ATOM     22  C   UNL     1       2.840   6.724  19.362  0.00  0.00    +0.000 A 
ATOM     23  C   UNL     1       2.085   7.862  18.986  0.00  0.00    +0.000 A 
ATOM     24  C   UNL     1       2.590   8.274  17.776  0.00  0.00    +0.000 A 
ATOM     25  O   UNL     1       3.602   7.460  17.380  0.00  0.00    +0.000 OA
ENDBRANCH  14  21
ENDBRANCH   1  14
TORSDOF 7
ENDMDL
MODEL 3
REMARK VINA RESULT:      -7.3      0.829      1.457
REMARK  Name = 
REMARK  7 active torsions:
REMARK  status: ('A' for Active; 'I' for Inactive)
REMARK    1  A    between atoms: C_2  and  C_3
REMARK    2  A    between atoms: C_3  and  O_4
REMARK    3  A    between atoms: O_4  and  C_5
REMARK    4  A    between atoms: N_11  and  C_12
REMARK    5  A    between atoms: C_12  and  C_13
REMARK    6  A    between atoms: C_13  and  C_14
REMARK    7  A    between atoms: C_13  and  N_19
REMARK                            x       y       z     vdW  Elec       q    Type
REMARK                         _______ _______ _______ _____ _____    ______ ____
ROOT
ATOM      1  C   UNL     1       3.314   6.596  18.019  0.00  0.00    +0.000 C 
ENDROOT
BRANCH   1   4
ATOM      2  O   UNL     1       5.105   7.057  15.873  0.00  0.00    +0.000 OA
ATOM      3  C   UNL     1       5.399   6.212  16.714  0.00  0.00    +0.000 C 
ATOM      4  N   UNL     1       4.581   5.907  17.786  0.00  0.00    +0.000 N 
ATOM      5  H   UNL     1       4.873   5.202  18.451  0.00  0.00    +0.000 HD
BRANCH   3   6
ATOM      6  C   UNL     1       6.696   5.397  16.653  0.00  0.00    +0.000 C 
BRANCH   6   7
ATOM      7  O   UNL     1       7.420   5.690  15.462  0.00  0.00    +0.000 OA
BRANCH   7   8
ATOM      8  C   UNL     1       7.045   4.971  14.355  0.00  0.00    +0.000 A 
ATOM      9  C   UNL     1       7.737   5.256  13.174  0.00  0.00    +0.000 A 
ATOM     10  C   UNL     1       7.440   4.568  11.995  0.00  0.00    +0.000 A 
ATOM     11  C   UNL     1       6.463   3.573  11.994  0.00  0.00    +0.000 A 
ATOM     12  C   UNL     1       5.786   3.270  13.172  0.00  0.00    +0.000 A 
ATOM     13  C   UNL     1       6.078   3.966  14.349  0.00  0.00    +0.000 A 
ENDBRANCH   7   8
ENDBRANCH   6   7
ENDBRANCH   3   6
ENDBRANCH   1   4
BRANCH   1  14
ATOM     14  C   UNL     1       2.742   6.466  19.471  0.00  0.00    +0.000 C 
BRANCH  14  15
ATOM     15  N   UNL     1       1.909   5.222  19.652  0.00  0.00    +0.000 NA
ATOM     16  C   UNL     1       1.998   4.357  18.454  0.00  0.00    +0.000 C 
ATOM     17  C   UNL     1       1.174   3.074  18.590  0.00  0.00    +0.000 C 
ATOM     18  C   UNL     1       1.577   2.283  19.824  0.00  0.00    +0.000 C 
ATOM     19  C   UNL     1       1.506   3.179  21.047  0.00  0.00    +0.000 C 
ATOM     20  C   UNL     1       2.333   4.452  20.846  0.00  0.00    +0.000 C 
ENDBRANCH  14  15
BRANCH  14  21
ATOM     21  C   UNL     1       1.930   7.705  19.787  0.00  0.00    +0.000 A 
ATOM     22  C   UNL     1       1.364   8.209  20.942  0.00  0.00    +0.000 A 
ATOM     23  C   UNL     1       0.859   9.492  20.616  0.00  0.00    +0.000 A 
ATOM     24  C   UNL     1       1.135   9.685  19.283  0.00  0.00    +0.000 A 
ATOM     25  O   UNL     1       1.772   8.603  18.768  0.00  0.00    +0.000 OA
ENDBRANCH  14  21
ENDBRANCH   1  14
TORSDOF 7
ENDMDL
MODEL 4
REMARK VINA RESULT:      -7.3      2.299      8.018
REMARK  Name = 
REMARK  7 active torsions:
REMARK  status: ('A' for Active; 'I' for Inactive)
REMARK    1  A    between atoms: C_2  and  C_3
REMARK    2  A    between atoms: C_3  and  O_4
REMARK    3  A    between atoms: O_4  and  C_5
REMARK    4  A    between atoms: N_11  and  C_12
REMARK    5  A    between atoms: C_12  and  C_13
REMARK    6  A    between atoms: C_13  and  C_14
REMARK    7  A    between atoms: C_13  and  N_19
REMARK                            x       y       z     vdW  Elec       q    Type
REMARK                         _______ _______ _______ _____ _____    ______ ____
ROOT
ATOM      1  C   UNL     1       4.449   5.478  19.492  0.00  0.00    +0.000 C 
ENDROOT
BRANCH   1   4
ATOM      2  O   UNL     1       2.642   7.536  18.767  0.00  0.00    +0.000 OA
ATOM      3  C   UNL     1       2.419   6.888  19.787  0.00  0.00    +0.000 C 
ATOM      4  N   UNL     1       3.252   5.877  20.227  0.00  0.00    +0.000 N 
ATOM      5  H   UNL     1       3.019   5.373  21.075  0.00  0.00    +0.000 HD
BRANCH   3   6
ATOM      6  C   UNL     1       1.202   7.145  20.683  0.00  0.00    +0.000 C 
BRANCH   6   7
ATOM      7  O   UNL     1       1.489   8.154  21.647  0.00  0.00    +0.000 OA
BRANCH   7   8
ATOM      8  C   UNL     1       0.609   9.206  21.674  0.00  0.00    +0.000 A 
ATOM      9  C   UNL     1       0.058   9.514  22.921  0.00  0.00    +0.000 A 
ATOM     10  C   UNL     1      -0.838  10.577  23.058  0.00  0.00    +0.000 A 
ATOM     11  C   UNL     1      -1.173  11.355  21.950  0.00  0.00    +0.000 A 
ATOM     12  C   UNL     1      -0.611  11.066  20.710  0.00  0.00    +0.000 A 
ATOM     13  C   UNL     1       0.278   9.996  20.572  0.00  0.00    +0.000 A 
ENDBRANCH   7   8
ENDBRANCH   6   7
ENDBRANCH   3   6
ENDBRANCH   1   4
BRANCH   1  14
ATOM     14  C   UNL     1       4.272   4.236  18.554  0.00  0.00    +0.000 C 
BRANCH  14  15
ATOM     15  N   UNL     1       4.468   4.582  17.099  0.00  0.00    +0.000 NA
ATOM     16  C   UNL     1       4.987   5.960  16.957  0.00  0.00    +0.000 C 
ATOM     17  C   UNL     1       5.210   6.359  15.496  0.00  0.00    +0.000 C 
ATOM     18  C   UNL     1       6.141   5.387  14.790  0.00  0.00    +0.000 C 
ATOM     19  C   UNL     1       5.617   3.971  14.957  0.00  0.00    +0.000 C 
ATOM     20  C   UNL     1       5.397   3.636  16.435  0.00  0.00    +0.000 C 
ENDBRANCH  14  15
BRANCH  14  21
ATOM     21  C   UNL     1       2.897   3.645  18.784  0.00  0.00    +0.000 A 
ATOM     22  C   UNL     1       1.780   3.482  17.986  0.00  0.00    +0.000 A 
ATOM     23  C   UNL     1       0.856   2.717  18.739  0.00  0.00    +0.000 A 
ATOM     24  C   UNL     1       1.459   2.471  19.950  0.00  0.00    +0.000 A 
ATOM     25  O   UNL     1       2.690   3.040  19.993  0.00  0.00    +0.000 OA
ENDBRANCH  14  21
ENDBRANCH   1  14
TORSDOF 7
ENDMDL
MODEL 5
REMARK VINA RESULT:      -7.3      0.970      1.489
REMARK  Name = 
REMARK  7 active torsions:
REMARK  status: ('A' for Active; 'I' for Inactive)
REMARK    1  A    between atoms: C_2  and  C_3
REMARK    2  A    between atoms: C_3  and  O_4
REMARK    3  A    between atoms: O_4  and  C_5
REMARK    4  A    between atoms: N_11  and  C_12
REMARK    5  A    between atoms: C_12  and  C_13
REMARK    6  A    between atoms: C_13  and  C_14
REMARK    7  A    between atoms: C_13  and  N_19
REMARK                            x       y       z     vdW  Elec       q    Type
REMARK                         _______ _______ _______ _____ _____    ______ ____
ROOT
ATOM      1  C   UNL     1       3.431   5.121  17.456  0.00  0.00    +0.000 C 
ENDROOT
BRANCH   1   4
ATOM      2  O   UNL     1       5.731   3.978  18.651  0.00  0.00    +0.000 OA
ATOM      3  C   UNL     1       5.849   4.541  17.566  0.00  0.00    +0.000 C 
ATOM      4  N   UNL     1       4.788   5.141  16.916  0.00  0.00    +0.000 N 
ATOM      5  H   UNL     1       4.941   5.591  16.021  0.00  0.00    +0.000 HD
BRANCH   3   6
ATOM      6  C   UNL     1       7.189   4.650  16.830  0.00  0.00    +0.000 C 
BRANCH   6   7
ATOM      7  O   UNL     1       7.098   5.576  15.750  0.00  0.00    +0.000 OA
BRANCH   7   8
ATOM      8  C   UNL     1       6.984   5.013  14.504  0.00  0.00    +0.000 A 
ATOM      9  C   UNL     1       7.841   5.519  13.521  0.00  0.00    +0.000 A 
ATOM     10  C   UNL     1       7.813   5.004  12.223  0.00  0.00    +0.000 A 
ATOM     11  C   UNL     1       6.943   3.962  11.904  0.00  0.00    +0.000 A 
ATOM     12  C   UNL     1       6.103   3.440  12.883  0.00  0.00    +0.000 A 
ATOM     13  C   UNL     1       6.124   3.963  14.180  0.00  0.00    +0.000 A 
ENDBRANCH   7   8
ENDBRANCH   6   7
ENDBRANCH   3   6
ENDBRANCH   1   4
BRANCH   1  14
ATOM     14  C   UNL     1       3.260   5.805  18.854  0.00  0.00    +0.000 C 
BRANCH  14  15
ATOM     15  N   UNL     1       2.346   5.026  19.767  0.00  0.00    +0.000 NA
ATOM     16  C   UNL     1       1.551   4.045  18.995  0.00  0.00    +0.000 C 
ATOM     17  C   UNL     1       0.611   3.222  19.879  0.00  0.00    +0.000 C 
ATOM     18  C   UNL     1       1.370   2.508  20.985  0.00  0.00    +0.000 C 
ATOM     19  C   UNL     1       2.201   3.514  21.760  0.00  0.00    +0.000 C 
ATOM     20  C   UNL     1       3.107   4.319  20.825  0.00  0.00    +0.000 C 
ENDBRANCH  14  15
BRANCH  14  21
ATOM     21  C   UNL     1       2.738   7.212  18.647  0.00  0.00    +0.000 A 
ATOM     22  C   UNL     1       2.728   8.080  17.572  0.00  0.00    +0.000 A 
ATOM     23  C   UNL     1       1.950   9.197  17.964  0.00  0.00    +0.000 A 
ATOM     24  C   UNL     1       1.545   8.948  19.254  0.00  0.00    +0.000 A 
ATOM     25  O   UNL     1       2.028   7.754  19.682  0.00  0.00    +0.000 OA
ENDBRANCH  14  21
ENDBRANCH   1  14
TORSDOF 7
ENDMDL
MODEL 6
REMARK VINA RESULT:      -7.2      2.776      7.811
REMARK  Name = 
REMARK  7 active torsions:
REMARK  status: ('A' for Active; 'I' for Inactive)
REMARK    1  A    between atoms: C_2  and  C_3
REMARK    2  A    between atoms: C_3  and  O_4
REMARK    3  A    between atoms: O_4  and  C_5
REMARK    4  A    between atoms: N_11  and  C_12
REMARK    5  A    between atoms: C_12  and  C_13
REMARK    6  A    between atoms: C_13  and  C_14
REMARK    7  A    between atoms: C_13  and  N_19
REMARK                            x       y       z     vdW  Elec       q    Type
REMARK                         _______ _______ _______ _____ _____    ______ ____
ROOT
ATOM      1  C   UNL     1       3.027   7.353  17.963  0.00  0.00    +0.000 C 
ENDROOT
BRANCH   1   4
ATOM      2  O   UNL     1       2.191  10.026  17.531  0.00  0.00    +0.000 OA
ATOM      3  C   UNL     1       1.668   9.384  18.439  0.00  0.00    +0.000 C 
ATOM      4  N   UNL     1       2.022   8.081  18.734  0.00  0.00    +0.000 N 
ATOM      5  H   UNL     1       1.556   7.598  19.492  0.00  0.00    +0.000 HD
BRANCH   3   6
ATOM      6  C   UNL     1       0.579   9.968  19.346  0.00  0.00    +0.000 C 
BRANCH   6   7
ATOM      7  O   UNL     1      -0.001  11.128  18.756  0.00  0.00    +0.000 OA
BRANCH   7   8
ATOM      8  C   UNL     1      -1.315  11.002  18.383  0.00  0.00    +0.000 A 
ATOM      9  C   UNL     1      -1.597   9.995  17.455  0.00  0.00    +0.000 A 
ATOM     10  C   UNL     1      -2.906   9.775  17.022  0.00  0.00    +0.000 A 
ATOM     11  C   UNL     1      -3.949  10.548  17.532  0.00  0.00    +0.000 A 
ATOM     12  C   UNL     1      -3.678  11.538  18.472  0.00  0.00    +0.000 A 
ATOM     13  C   UNL     1      -2.365  11.763  18.898  0.00  0.00    +0.000 A 
ENDBRANCH   7   8
ENDBRANCH   6   7
ENDBRANCH   3   6
ENDBRANCH   1   4
BRANCH   1  14
ATOM     14  C   UNL     1       3.684   6.140  18.703  0.00  0.00    +0.000 C 
BRANCH  14  15
ATOM     15  N   UNL     1       4.701   5.428  17.847  0.00  0.00    +0.000 NA
ATOM     16  C   UNL     1       4.851   6.107  16.541  0.00  0.00    +0.000 C 
ATOM     17  C   UNL     1       5.880   5.426  15.636  0.00  0.00    +0.000 C 
ATOM     18  C   UNL     1       7.235   5.321  16.315  0.00  0.00    +0.000 C 
ATOM     19  C   UNL     1       7.076   4.645  17.664  0.00  0.00    +0.000 C 
ATOM     20  C   UNL     1       6.023   5.357  18.518  0.00  0.00    +0.000 C 
ENDBRANCH  14  15
BRANCH  14  21
ATOM     21  C   UNL     1       2.592   5.187  19.141  0.00  0.00    +0.000 A 
ATOM     22  C   UNL     1       2.042   4.044  18.591  0.00  0.00    +0.000 A 
ATOM     23  C   UNL     1       1.155   3.517  19.562  0.00  0.00    +0.000 A 
ATOM     24  C   UNL     1       1.209   4.374  20.635  0.00  0.00    +0.000 A 
ATOM     25  O   UNL     1       2.066   5.397  20.386  0.00  0.00    +0.000 OA
ENDBRANCH  14  21
ENDBRANCH   1  14
TORSDOF 7
ENDMDL
MODEL 7
REMARK VINA RESULT:      -7.2      2.544      8.148
REMARK  Name = 
REMARK  7 active torsions:
REMARK  status: ('A' for Active; 'I' for Inactive)
REMARK    1  A    between atoms: C_2  and  C_3
REMARK    2  A    between atoms: C_3  and  O_4
REMARK    3  A    between atoms: O_4  and  C_5
REMARK    4  A    between atoms: N_11  and  C_12
REMARK    5  A    between atoms: C_12  and  C_13
REMARK    6  A    between atoms: C_13  and  C_14
REMARK    7  A    between atoms: C_13  and  N_19
REMARK                            x       y       z     vdW  Elec       q    Type
REMARK                         _______ _______ _______ _____ _____    ______ ____
ROOT
ATOM      1  C   UNL     1       2.814   6.379  18.240  0.00  0.00    +0.000 C 
ENDROOT
BRANCH   1   4
ATOM      2  O   UNL     1       2.404   8.985  17.204  0.00  0.00    +0.000 OA
ATOM      3  C   UNL     1       1.946   8.711  18.311  0.00  0.00    +0.000 C 
ATOM      4  N   UNL     1       2.109   7.474  18.903  0.00  0.00    +0.000 N 
ATOM      5  H   UNL     1       1.708   7.302  19.817  0.00  0.00    +0.000 HD
BRANCH   3   6
ATOM      6  C   UNL     1       1.159   9.721  19.154  0.00  0.00    +0.000 C 
BRANCH   6   7
ATOM      7  O   UNL     1       1.313   9.446  20.544  0.00  0.00    +0.000 OA
BRANCH   7   8
ATOM      8  C   UNL     1       0.491  10.161  21.378  0.00  0.00    +0.000 A 
ATOM      9  C   UNL     1       0.384  11.529  21.111  0.00  0.00    +0.000 A 
ATOM     10  C   UNL     1      -0.440  12.342  21.894  0.00  0.00    +0.000 A 
ATOM     11  C   UNL     1      -1.182  11.787  22.936  0.00  0.00    +0.000 A 
ATOM     12  C   UNL     1      -1.096  10.421  23.193  0.00  0.00    +0.000 A 
ATOM     13  C   UNL     1      -0.263   9.610  22.415  0.00  0.00    +0.000 A 
ENDBRANCH   7   8
ENDBRANCH   6   7
ENDBRANCH   3   6
ENDBRANCH   1   4
BRANCH   1  14
ATOM     14  C   UNL     1       3.777   5.553  19.158  0.00  0.00    +0.000 C 
BRANCH  14  15
ATOM     15  N   UNL     1       4.826   4.810  18.369  0.00  0.00    +0.000 NA
ATOM     16  C   UNL     1       4.465   4.766  16.935  0.00  0.00    +0.000 C 
ATOM     17  C   UNL     1       5.504   4.027  16.087  0.00  0.00    +0.000 C 
ATOM     18  C   UNL     1       6.887   4.635  16.247  0.00  0.00    +0.000 C 
ATOM     19  C   UNL     1       7.245   4.700  17.721  0.00  0.00    +0.000 C 
ATOM     20  C   UNL     1       6.163   5.433  18.520  0.00  0.00    +0.000 C 
ENDBRANCH  14  15
BRANCH  14  21
ATOM     21  C   UNL     1       2.952   4.593  19.990  0.00  0.00    +0.000 A 
ATOM     22  C   UNL     1       1.649   4.602  20.449  0.00  0.00    +0.000 A 
ATOM     23  C   UNL     1       1.425   3.337  21.047  0.00  0.00    +0.000 A 
ATOM     24  C   UNL     1       2.605   2.642  20.927  0.00  0.00    +0.000 A 
ATOM     25  O   UNL     1       3.542   3.399  20.300  0.00  0.00    +0.000 OA
ENDBRANCH  14  21
ENDBRANCH   1  14
TORSDOF 7
ENDMDL
MODEL 8
REMARK VINA RESULT:      -7.2      2.533      8.113
REMARK  Name = 
REMARK  7 active torsions:
REMARK  status: ('A' for Active; 'I' for Inactive)
REMARK    1  A    between atoms: C_2  and  C_3
REMARK    2  A    between atoms: C_3  and  O_4
REMARK    3  A    between atoms: O_4  and  C_5
REMARK    4  A    between atoms: N_11  and  C_12
REMARK    5  A    between atoms: C_12  and  C_13
REMARK    6  A    between atoms: C_13  and  C_14
REMARK    7  A    between atoms: C_13  and  N_19
REMARK                            x       y       z     vdW  Elec       q    Type
REMARK                         _______ _______ _______ _____ _____    ______ ____
ROOT
ATOM      1  C   UNL     1       3.390   6.998  18.144  0.00  0.00    +0.000 C 
ENDROOT
BRANCH   1   4
ATOM      2  O   UNL     1       2.288   9.454  17.261  0.00  0.00    +0.000 OA
ATOM      3  C   UNL     1       1.812   8.920  18.260  0.00  0.00    +0.000 C 
ATOM      4  N   UNL     1       2.294   7.731  18.773  0.00  0.00    +0.000 N 
ATOM      5  H   UNL     1       1.863   7.334  19.599  0.00  0.00    +0.000 HD
BRANCH   3   6
ATOM      6  C   UNL     1       0.645   9.526  19.048  0.00  0.00    +0.000 C 
BRANCH   6   7
ATOM      7  O   UNL     1       1.095  10.600  19.869  0.00  0.00    +0.000 OA
BRANCH   7   8
ATOM      8  C   UNL     1       0.297  10.886  20.949  0.00  0.00    +0.000 A 
ATOM      9  C   UNL     1       0.018   9.818  21.806  0.00  0.00    +0.000 A 
ATOM     10  C   UNL     1      -0.773  10.007  22.942  0.00  0.00    +0.000 A 
ATOM     11  C   UNL     1      -1.272  11.275  23.241  0.00  0.00    +0.000 A 
ATOM     12  C   UNL     1      -0.980  12.347  22.403  0.00  0.00    +0.000 A 
ATOM     13  C   UNL     1      -0.196  12.153  21.261  0.00  0.00    +0.000 A 
ENDBRANCH   7   8
ENDBRANCH   6   7
ENDBRANCH   3   6
ENDBRANCH   1   4
BRANCH   1  14
ATOM     14  C   UNL     1       3.883   5.735  18.927  0.00  0.00    +0.000 C 
BRANCH  14  15
ATOM     15  N   UNL     1       4.913   4.947  18.156  0.00  0.00    +0.000 NA
ATOM     16  C   UNL     1       4.687   5.078  16.700  0.00  0.00    +0.000 C 
ATOM     17  C   UNL     1       5.713   4.301  15.871  0.00  0.00    +0.000 C 
ATOM     18  C   UNL     1       7.134   4.723  16.207  0.00  0.00    +0.000 C 
ATOM     19  C   UNL     1       7.356   4.611  17.705  0.00  0.00    +0.000 C 
ATOM     20  C   UNL     1       6.291   5.390  18.481  0.00  0.00    +0.000 C 
ENDBRANCH  14  15
BRANCH  14  21
ATOM     21  C   UNL     1       2.685   4.869  19.258  0.00  0.00    +0.000 A 
ATOM     22  C   UNL     1       2.125   3.748  18.676  0.00  0.00    +0.000 A 
ATOM     23  C   UNL     1       1.100   3.311  19.550  0.00  0.00    +0.000 A 
ATOM     24  C   UNL     1       1.089   4.196  20.602  0.00  0.00    +0.000 A 
ATOM     25  O   UNL     1       2.037   5.152  20.428  0.00  0.00    +0.000 OA
ENDBRANCH  14  21
ENDBRANCH   1  14
TORSDOF 7
ENDMDL
MODEL 9
REMARK VINA RESULT:      -7.2      2.425      7.930
REMARK  Name = 
REMARK  7 active torsions:
REMARK  status: ('A' for Active; 'I' for Inactive)
REMARK    1  A    between atoms: C_2  and  C_3
REMARK    2  A    between atoms: C_3  and  O_4
REMARK    3  A    between atoms: O_4  and  C_5
REMARK    4  A    between atoms: N_11  and  C_12
REMARK    5  A    between atoms: C_12  and  C_13
REMARK    6  A    between atoms: C_13  and  C_14
REMARK    7  A    between atoms: C_13  and  N_19
REMARK                            x       y       z     vdW  Elec       q    Type
REMARK                         _______ _______ _______ _____ _____    ______ ____
ROOT
ATOM      1  C   UNL     1       3.463   7.042  17.864  0.00  0.00    +0.000 C 
ENDROOT
BRANCH   1   4
ATOM      2  O   UNL     1       2.533   9.647  17.246  0.00  0.00    +0.000 OA
ATOM      3  C   UNL     1       1.823   8.914  17.930  0.00  0.00    +0.000 C 
ATOM      4  N   UNL     1       2.199   7.636  18.295  0.00  0.00    +0.000 N 
ATOM      5  H   UNL     1       1.574   7.074  18.859  0.00  0.00    +0.000 HD
BRANCH   3   6
ATOM      6  C   UNL     1       0.453   9.350  18.462  0.00  0.00    +0.000 C 
BRANCH   6   7
ATOM      7  O   UNL     1       0.575  10.509  19.282  0.00  0.00    +0.000 OA
BRANCH   7   8
ATOM      8  C   UNL     1       0.139  10.361  20.574  0.00  0.00    +0.000 A 
ATOM      9  C   UNL     1      -0.246  11.534  21.231  0.00  0.00    +0.000 A 
ATOM     10  C   UNL     1      -0.718  11.490  22.545  0.00  0.00    +0.000 A 
ATOM     11  C   UNL     1      -0.830  10.267  23.205  0.00  0.00    +0.000 A 
ATOM     12  C   UNL     1      -0.469   9.093  22.550  0.00  0.00    +0.000 A 
ATOM     13  C   UNL     1       0.013   9.140  21.238  0.00  0.00    +0.000 A 
ENDBRANCH   7   8
ENDBRANCH   6   7
ENDBRANCH   3   6
ENDBRANCH   1   4
BRANCH   1  14
ATOM     14  C   UNL     1       4.034   5.931  18.807  0.00  0.00    +0.000 C 
BRANCH  14  15
ATOM     15  N   UNL     1       5.052   5.058  18.116  0.00  0.00    +0.000 NA
ATOM     16  C   UNL     1       4.833   5.060  16.653  0.00  0.00    +0.000 C 
ATOM     17  C   UNL     1       5.847   4.194  15.903  0.00  0.00    +0.000 C 
ATOM     18  C   UNL     1       7.275   4.619  16.206  0.00  0.00    +0.000 C 
ATOM     19  C   UNL     1       7.489   4.638  17.709  0.00  0.00    +0.000 C 
ATOM     20  C   UNL     1       6.436   5.504  18.406  0.00  0.00    +0.000 C 
ENDBRANCH  14  15
BRANCH  14  21
ATOM     21  C   UNL     1       2.882   5.098  19.330  0.00  0.00    +0.000 A 
ATOM     22  C   UNL     1       2.286   4.960  20.569  0.00  0.00    +0.000 A 
ATOM     23  C   UNL     1       1.149   4.137  20.380  0.00  0.00    +0.000 A 
ATOM     24  C   UNL     1       1.128   3.814  19.043  0.00  0.00    +0.000 A 
ATOM     25  O   UNL     1       2.181   4.380  18.401  0.00  0.00    +0.000 OA
ENDBRANCH  14  21
ENDBRANCH   1  14
TORSDOF 7
ENDMDL
