MODEL 1
REMARK VINA RESULT:      -7.9      0.000      0.000
REMARK  Name = 
REMARK  11 active torsions:
REMARK  status: ('A' for Active; 'I' for Inactive)
REMARK    1  A    between atoms: C_2  and  OXT_3
REMARK    2  A    between atoms: C_2  and  CA_4
REMARK    3  A    between atoms: CA_4  and  C_5
REMARK    4  A    between atoms: CA_4  and  N_20
REMARK    5  A    between atoms: C_5  and  C_6
REMARK    6  A    between atoms: C_9  and  O_10
REMARK    7  A    between atoms: O_10  and  C_11
REMARK    8  A    between atoms: C_11  and  C_12
REMARK    9  A    between atoms: N_20  and  C_21
REMARK   10  A    between atoms: C_21  and  C_22
REMARK   11  A    between atoms: N_26  and  C_27
REMARK                            x       y       z     vdW  Elec       q    Type
REMARK                         _______ _______ _______ _____ _____    ______ ____
ROOT
ATOM      1  CA  UNL     1       3.852   3.595  18.315  0.00  0.00    +0.000 C 
ENDROOT
BRANCH   1   3
ATOM      2  O   UNL     1       2.895   1.878  19.767  0.00  0.00    +0.000 OA
ATOM      3  C   UNL     1       3.894   2.467  19.370  0.00  0.00    +0.000 C 
BRANCH   3   4
ATOM      4  OXT UNL     1       5.136   2.161  19.812  0.00  0.00    +0.000 OA
ATOM      5  HXT UNL     1       5.823   2.800  19.544  0.00  0.00    +0.000 HD
ENDBRANCH   3   4
ENDBRANCH   1   3
BRANCH   1   6
ATOM      6  N   UNL     1       4.549   3.069  17.115  0.00  0.00    +0.000 NA
ATOM      7  H   UNL     1       4.140   2.150  16.911  0.00  0.00    +0.000 HD
BRANCH   6   8
ATOM      8  C   UNL     1       4.457   3.911  15.927  0.00  0.00    +0.000 C 
BRANCH   8   9
ATOM      9  C   UNL     1       5.755   4.492  15.460  0.00  0.00    +0.000 A 
ATOM     10  N   UNL     1       6.534   3.936  14.550  0.00  0.00    +0.000 NA
ATOM     11  N   UNL     1       7.659   4.711  14.470  0.00  0.00    +0.000 NA
ATOM     12  N   UNL     1       7.591   5.741  15.299  0.00  0.00    +0.000 NA
ATOM     13  N   UNL     1       6.424   5.603  15.957  0.00  0.00    +0.000 N 
BRANCH  13  14
ATOM     14  C   UNL     1       6.119   6.400  17.145  0.00  0.00    +0.000 C 
ATOM     15  C   UNL     1       6.380   5.560  18.392  0.00  0.00    +0.000 C 
ATOM     16  C   UNL     1       7.881   5.430  18.610  0.00  0.00    +0.000 C 
ATOM     17  C   UNL     1       8.355   6.745  19.182  0.00  0.00    +0.000 C 
ATOM     18  C   UNL     1       8.083   7.890  18.209  0.00  0.00    +0.000 C 
ATOM     19  C   UNL     1       6.809   7.792  17.326  0.00  0.00    +0.000 C 
ENDBRANCH  13  14
ENDBRANCH   8   9
ENDBRANCH   6   8
ENDBRANCH   1   6
BRANCH   1  20
ATOM     20  C   UNL     1       2.372   4.019  18.132  0.00  0.00    +0.000 C 
BRANCH  20  21
ATOM     21  C   UNL     1       2.080   5.308  18.874  0.00  0.00    +0.000 A 
ATOM     22  C   UNL     1       2.375   6.532  18.265  0.00  0.00    +0.000 A 
ATOM     23  C   UNL     1       2.251   7.720  18.977  0.00  0.00    +0.000 A 
ATOM     24  C   UNL     1       1.748   7.713  20.276  0.00  0.00    +0.000 A 
ATOM     25  C   UNL     1       1.425   6.501  20.885  0.00  0.00    +0.000 A 
ATOM     26  C   UNL     1       1.592   5.300  20.189  0.00  0.00    +0.000 A 
BRANCH  24  27
ATOM     27  O   UNL     1       1.535   8.837  21.026  0.00  0.00    +0.000 OA
BRANCH  27  28
ATOM     28  C   UNL     1       0.164   9.231  21.132  0.00  0.00    +0.000 C 
BRANCH  28  29
ATOM     29  C   UNL     1      -0.094  10.399  20.222  0.00  0.00    +0.000 A 
ATOM     30  C   UNL     1       0.646  11.585  20.353  0.00  0.00    +0.000 A 
ATOM     31  C   UNL     1       0.447  12.634  19.458  0.00  0.00    +0.000 A 
ATOM     32  C   UNL     1      -0.484  12.518  18.432  0.00  0.00    +0.000 A 
ATOM     33  C   UNL     1      -1.232  11.341  18.305  0.00  0.00    +0.000 A 
ATOM     34  C   UNL     1      -1.036  10.286  19.190  0.00  0.00    +0.000 A 
ENDBRANCH  28  29
ENDBRANCH  27  28
ENDBRANCH  24  27
ENDBRANCH  20  21
ENDBRANCH   1  20
TORSDOF 11
ENDMDL
MODEL 2
REMARK VINA RESULT:      -7.8      4.484      7.310
REMARK  Name = 
REMARK  11 active torsions:
REMARK  status: ('A' for Active; 'I' for Inactive)
REMARK    1  A    between atoms: C_2  and  OXT_3
REMARK    2  A    between atoms: C_2  and  CA_4
REMARK    3  A    between atoms: CA_4  and  C_5
REMARK    4  A    between atoms: CA_4  and  N_20
REMARK    5  A    between atoms: C_5  and  C_6
REMARK    6  A    between atoms: C_9  and  O_10
REMARK    7  A    between atoms: O_10  and  C_11
REMARK    8  A    between atoms: C_11  and  C_12
REMARK    9  A    between atoms: N_20  and  C_21
REMARK   10  A    between atoms: C_21  and  C_22
REMARK   11  A    between atoms: N_26  and  C_27
REMARK                            x       y       z     vdW  Elec       q    Type
REMARK                         _______ _______ _______ _____ _____    ______ ____
ROOT
ATOM      1  CA  UNL     1       7.453   7.043  18.419  0.00  0.00    +0.000 C 
ENDROOT
BRANCH   1   3
ATOM      2  O   UNL     1       7.395   5.402  20.229  0.00  0.00    +0.000 OA
ATOM      3  C   UNL     1       7.743   5.680  19.087  0.00  0.00    +0.000 C 
BRANCH   3   4
ATOM      4  OXT UNL     1       8.403   4.801  18.298  0.00  0.00    +0.000 OA
ATOM      5  HXT UNL     1       9.372   4.823  18.399  0.00  0.00    +0.000 HD
ENDBRANCH   3   4
ENDBRANCH   1   3
BRANCH   1   6
ATOM      6  N   UNL     1       8.648   7.889  18.663  0.00  0.00    +0.000 NA
ATOM      7  H   UNL     1       9.429   7.454  18.159  0.00  0.00    +0.000 HD
BRANCH   6   8
ATOM      8  C   UNL     1       8.518   9.280  18.241  0.00  0.00    +0.000 C 
BRANCH   8   9
ATOM      9  C   UNL     1       9.091  10.286  19.190  0.00  0.00    +0.000 A 
ATOM     10  N   UNL     1       9.097  10.150  20.503  0.00  0.00    +0.000 NA
ATOM     11  N   UNL     1       9.613  11.308  21.016  0.00  0.00    +0.000 NA
ATOM     12  N   UNL     1       9.941  12.155  20.051  0.00  0.00    +0.000 NA
ATOM     13  N   UNL     1       9.587  11.551  18.900  0.00  0.00    +0.000 N 
BRANCH  13  14
ATOM     14  C   UNL     1       9.545  12.283  17.635  0.00  0.00    +0.000 C 
ATOM     15  C   UNL     1       8.129  12.802  17.404  0.00  0.00    +0.000 C 
ATOM     16  C   UNL     1       7.863  13.979  18.333  0.00  0.00    +0.000 C 
ATOM     17  C   UNL     1       8.585  15.170  17.748  0.00  0.00    +0.000 C 
ATOM     18  C   UNL     1      10.088  14.912  17.676  0.00  0.00    +0.000 C 
ATOM     19  C   UNL     1      10.552  13.456  17.401  0.00  0.00    +0.000 C 
ENDBRANCH  13  14
ENDBRANCH   8   9
ENDBRANCH   6   8
ENDBRANCH   1   6
BRANCH   1  20
ATOM     20  C   UNL     1       7.079   6.775  16.938  0.00  0.00    +0.000 C 
BRANCH  20  21
ATOM     21  C   UNL     1       5.840   5.909  16.838  0.00  0.00    +0.000 A 
ATOM     22  C   UNL     1       4.676   6.298  17.510  0.00  0.00    +0.000 A 
ATOM     23  C   UNL     1       3.573   5.452  17.553  0.00  0.00    +0.000 A 
ATOM     24  C   UNL     1       3.582   4.247  16.853  0.00  0.00    +0.000 A 
ATOM     25  C   UNL     1       4.727   3.861  16.157  0.00  0.00    +0.000 A 
ATOM     26  C   UNL     1       5.855   4.687  16.150  0.00  0.00    +0.000 A 
BRANCH  24  27
ATOM     27  O   UNL     1       2.522   3.385  16.789  0.00  0.00    +0.000 OA
BRANCH  27  28
ATOM     28  C   UNL     1       2.663   2.207  17.588  0.00  0.00    +0.000 C 
BRANCH  28  29
ATOM     29  C   UNL     1       2.347   2.533  19.021  0.00  0.00    +0.000 A 
ATOM     30  C   UNL     1       1.063   2.965  19.389  0.00  0.00    +0.000 A 
ATOM     31  C   UNL     1       0.762   3.195  20.730  0.00  0.00    +0.000 A 
ATOM     32  C   UNL     1       1.727   3.001  21.712  0.00  0.00    +0.000 A 
ATOM     33  C   UNL     1       3.012   2.580  21.348  0.00  0.00    +0.000 A 
ATOM     34  C   UNL     1       3.320   2.343  20.012  0.00  0.00    +0.000 A 
ENDBRANCH  28  29
ENDBRANCH  27  28
ENDBRANCH  24  27
ENDBRANCH  20  21
ENDBRANCH   1  20
TORSDOF 11
ENDMDL
MODEL 3
REMARK VINA RESULT:      -7.6      3.847      7.845
REMARK  Name = 
REMARK  11 active torsions:
REMARK  status: ('A' for Active; 'I' for Inactive)
REMARK    1  A    between atoms: C_2  and  OXT_3
REMARK    2  A    between atoms: C_2  and  CA_4
REMARK    3  A    between atoms: CA_4  and  C_5
REMARK    4  A    between atoms: CA_4  and  N_20
REMARK    5  A    between atoms: C_5  and  C_6
REMARK    6  A    between atoms: C_9  and  O_10
REMARK    7  A    between atoms: O_10  and  C_11
REMARK    8  A    between atoms: C_11  and  C_12
REMARK    9  A    between atoms: N_20  and  C_21
REMARK   10  A    between atoms: C_21  and  C_22
REMARK   11  A    between atoms: N_26  and  C_27
REMARK                            x       y       z     vdW  Elec       q    Type
REMARK                         _______ _______ _______ _____ _____    ______ ____
ROOT
ATOM      1  CA  UNL     1       3.247   5.068  18.171  0.00  0.00    +0.000 C 
ENDROOT
BRANCH   1   3
ATOM      2  O   UNL     1       2.206   3.321  19.527  0.00  0.00    +0.000 OA
ATOM      3  C   UNL     1       2.243   3.930  18.464  0.00  0.00    +0.000 C 
BRANCH   3   4
ATOM      4  OXT UNL     1       1.386   3.669  17.451  0.00  0.00    +0.000 OA
ATOM      5  HXT UNL     1       1.812   3.317  16.647  0.00  0.00    +0.000 HD
ENDBRANCH   3   4
ENDBRANCH   1   3
BRANCH   1   6
ATOM      6  N   UNL     1       3.021   6.101  19.213  0.00  0.00    +0.000 NA
ATOM      7  H   UNL     1       3.946   6.409  19.534  0.00  0.00    +0.000 HD
BRANCH   6   8
ATOM      8  C   UNL     1       2.252   7.262  18.777  0.00  0.00    +0.000 C 
BRANCH   8   9
ATOM      9  C   UNL     1       1.722   8.122  19.881  0.00  0.00    +0.000 A 
ATOM     10  N   UNL     1       1.453   7.688  21.098  0.00  0.00    +0.000 NA
ATOM     11  N   UNL     1       0.902   8.739  21.778  0.00  0.00    +0.000 NA
ATOM     12  N   UNL     1       0.835   9.820  21.016  0.00  0.00    +0.000 NA
ATOM     13  N   UNL     1       1.307   9.446  19.811  0.00  0.00    +0.000 N 
BRANCH  13  14
ATOM     14  C   UNL     1       1.141  10.292  18.630  0.00  0.00    +0.000 C 
ATOM     15  C   UNL     1      -0.147   9.902  17.911  0.00  0.00    +0.000 C 
ATOM     16  C   UNL     1      -1.343  10.413  18.702  0.00  0.00    +0.000 C 
ATOM     17  C   UNL     1      -1.439  11.898  18.440  0.00  0.00    +0.000 C 
ATOM     18  C   UNL     1      -0.176  12.615  18.912  0.00  0.00    +0.000 C 
ATOM     19  C   UNL     1       1.169  11.847  18.798  0.00  0.00    +0.000 C 
ENDBRANCH  13  14
ENDBRANCH   8   9
ENDBRANCH   6   8
ENDBRANCH   1   6
BRANCH   1  20
ATOM     20  C   UNL     1       4.665   4.444  18.105  0.00  0.00    +0.000 C 
BRANCH  20  21
ATOM     21  C   UNL     1       5.735   5.514  18.193  0.00  0.00    +0.000 A 
ATOM     22  C   UNL     1       5.689   6.603  17.316  0.00  0.00    +0.000 A 
ATOM     23  C   UNL     1       6.733   7.521  17.279  0.00  0.00    +0.000 A 
ATOM     24  C   UNL     1       7.794   7.417  18.176  0.00  0.00    +0.000 A 
ATOM     25  C   UNL     1       7.837   6.351  19.073  0.00  0.00    +0.000 A 
ATOM     26  C   UNL     1       6.813   5.399  19.083  0.00  0.00    +0.000 A 
BRANCH  24  27
ATOM     27  O   UNL     1       8.829   8.308  18.252  0.00  0.00    +0.000 OA
BRANCH  27  28
ATOM     28  C   UNL     1       8.438   9.682  18.193  0.00  0.00    +0.000 C 
BRANCH  28  29
ATOM     29  C   UNL     1       9.493  10.532  18.842  0.00  0.00    +0.000 A 
ATOM     30  C   UNL     1      10.562  11.044  18.089  0.00  0.00    +0.000 A 
ATOM     31  C   UNL     1      11.494  11.890  18.687  0.00  0.00    +0.000 A 
ATOM     32  C   UNL     1      11.377  12.231  20.030  0.00  0.00    +0.000 A 
ATOM     33  C   UNL     1      10.318  11.714  20.787  0.00  0.00    +0.000 A 
ATOM     34  C   UNL     1       9.379  10.873  20.197  0.00  0.00    +0.000 A 
ENDBRANCH  28  29
ENDBRANCH  27  28
ENDBRANCH  24  27
ENDBRANCH  20  21
ENDBRANCH   1  20
TORSDOF 11
ENDMDL
MODEL 4
REMARK VINA RESULT:      -7.5      0.713      1.229
REMARK  Name = 
REMARK  11 active torsions:
REMARK  status: ('A' for Active; 'I' for Inactive)
REMARK    1  A    between atoms: C_2  and  OXT_3
REMARK    2  A    between atoms: C_2  and  CA_4
REMARK    3  A    between atoms: CA_4  and  C_5
REMARK    4  A    between atoms: CA_4  and  N_20
REMARK    5  A    between atoms: C_5  and  C_6
REMARK    6  A    between atoms: C_9  and  O_10
REMARK    7  A    between atoms: O_10  and  C_11
REMARK    8  A    between atoms: C_11  and  C_12
REMARK    9  A    between atoms: N_20  and  C_21
REMARK   10  A    between atoms: C_21  and  C_22
REMARK   11  A    between atoms: N_26  and  C_27
REMARK                            x       y       z     vdW  Elec       q    Type
REMARK                         _______ _______ _______ _____ _____    ______ ____
ROOT
ATOM      1  CA  UNL     1       3.317   3.283  18.508  0.00  0.00    +0.000 C 
ENDROOT
BRANCH   1   3
ATOM      2  O   UNL     1       3.811   0.891  18.586  0.00  0.00    +0.000 OA
ATOM      3  C   UNL     1       3.067   1.788  18.208  0.00  0.00    +0.000 C 
BRANCH   3   4
ATOM      4  OXT UNL     1       1.938   1.542  17.503  0.00  0.00    +0.000 OA
ATOM      5  HXT UNL     1       1.875   2.036  16.665  0.00  0.00    +0.000 HD
ENDBRANCH   3   4
ENDBRANCH   1   3
BRANCH   1   6
ATOM      6  N   UNL     1       4.592   3.635  17.834  0.00  0.00    +0.000 NA
ATOM      7  H   UNL     1       5.217   2.828  17.938  0.00  0.00    +0.000 HD
BRANCH   6   8
ATOM      8  C   UNL     1       4.472   3.973  16.419  0.00  0.00    +0.000 C 
BRANCH   8   9
ATOM      9  C   UNL     1       5.718   4.511  15.789  0.00  0.00    +0.000 A 
ATOM     10  N   UNL     1       6.452   3.852  14.911  0.00  0.00    +0.000 NA
ATOM     11  N   UNL     1       7.545   4.632  14.649  0.00  0.00    +0.000 NA
ATOM     12  N   UNL     1       7.500   5.766  15.333  0.00  0.00    +0.000 NA
ATOM     13  N   UNL     1       6.384   5.694  16.083  0.00  0.00    +0.000 N 
BRANCH  13  14
ATOM     14  C   UNL     1       6.133   6.640  17.170  0.00  0.00    +0.000 C 
ATOM     15  C   UNL     1       6.350   5.936  18.506  0.00  0.00    +0.000 C 
ATOM     16  C   UNL     1       7.842   5.743  18.740  0.00  0.00    +0.000 C 
ATOM     17  C   UNL     1       8.397   7.084  19.156  0.00  0.00    +0.000 C 
ATOM     18  C   UNL     1       8.189   8.123  18.057  0.00  0.00    +0.000 C 
ATOM     19  C   UNL     1       6.907   8.000  17.189  0.00  0.00    +0.000 C 
ENDBRANCH  13  14
ENDBRANCH   8   9
ENDBRANCH   6   8
ENDBRANCH   1   6
BRANCH   1  20
ATOM     20  C   UNL     1       2.057   4.073  18.070  0.00  0.00    +0.000 C 
BRANCH  20  21
ATOM     21  C   UNL     1       1.915   5.356  18.864  0.00  0.00    +0.000 A 
ATOM     22  C   UNL     1       2.282   6.571  18.275  0.00  0.00    +0.000 A 
ATOM     23  C   UNL     1       2.299   7.740  19.026  0.00  0.00    +0.000 A 
ATOM     24  C   UNL     1       1.866   7.732  20.351  0.00  0.00    +0.000 A 
ATOM     25  C   UNL     1       1.473   6.532  20.942  0.00  0.00    +0.000 A 
ATOM     26  C   UNL     1       1.498   5.345  20.203  0.00  0.00    +0.000 A 
BRANCH  24  27
ATOM     27  O   UNL     1       1.790   8.844  21.144  0.00  0.00    +0.000 OA
BRANCH  27  28
ATOM     28  C   UNL     1       0.459   9.265  21.453  0.00  0.00    +0.000 C 
BRANCH  28  29
ATOM     29  C   UNL     1       0.042  10.351  20.501  0.00  0.00    +0.000 A 
ATOM     30  C   UNL     1      -0.716  10.047  19.359  0.00  0.00    +0.000 A 
ATOM     31  C   UNL     1      -1.156  11.071  18.522  0.00  0.00    +0.000 A 
ATOM     32  C   UNL     1      -0.850  12.396  18.808  0.00  0.00    +0.000 A 
ATOM     33  C   UNL     1      -0.085  12.702  19.940  0.00  0.00    +0.000 A 
ATOM     34  C   UNL     1       0.356  11.687  20.785  0.00  0.00    +0.000 A 
ENDBRANCH  28  29
ENDBRANCH  27  28
ENDBRANCH  24  27
ENDBRANCH  20  21
ENDBRANCH   1  20
TORSDOF 11
ENDMDL
MODEL 5
REMARK VINA RESULT:      -7.4      3.377      7.925
REMARK  Name = 
REMARK  11 active torsions:
REMARK  status: ('A' for Active; 'I' for Inactive)
REMARK    1  A    between atoms: C_2  and  OXT_3
REMARK    2  A    between atoms: C_2  and  CA_4
REMARK    3  A    between atoms: CA_4  and  C_5
REMARK    4  A    between atoms: CA_4  and  N_20
REMARK    5  A    between atoms: C_5  and  C_6
REMARK    6  A    between atoms: C_9  and  O_10
REMARK    7  A    between atoms: O_10  and  C_11
REMARK    8  A    between atoms: C_11  and  C_12
REMARK    9  A    between atoms: N_20  and  C_21
REMARK   10  A    between atoms: C_21  and  C_22
REMARK   11  A    between atoms: N_26  and  C_27
REMARK                            x       y       z     vdW  Elec       q    Type
REMARK                         _______ _______ _______ _____ _____    ______ ____
ROOT
ATOM      1  CA  UNL     1       4.022   2.872  19.768  0.00  0.00    +0.000 C 
ENDROOT
BRANCH   1   3
ATOM      2  O   UNL     1       5.417   1.101  20.713  0.00  0.00    +0.000 OA
ATOM      3  C   UNL     1       4.696   1.481  19.797  0.00  0.00    +0.000 C 
BRANCH   3   4
ATOM      4  OXT UNL     1       4.410   0.700  18.731  0.00  0.00    +0.000 OA
ATOM      5  HXT UNL     1       3.855  -0.075  18.941  0.00  0.00    +0.000 HD
ENDBRANCH   3   4
ENDBRANCH   1   3
BRANCH   1   6
ATOM      6  N   UNL     1       3.082   2.903  20.916  0.00  0.00    +0.000 NA
ATOM      7  H   UNL     1       3.437   3.607  21.573  0.00  0.00    +0.000 HD
BRANCH   6   8
ATOM      8  C   UNL     1       1.698   3.218  20.575  0.00  0.00    +0.000 C 
BRANCH   8   9
ATOM      9  C   UNL     1       1.503   3.838  19.227  0.00  0.00    +0.000 A 
ATOM     10  N   UNL     1       1.112   3.178  18.153  0.00  0.00    +0.000 NA
ATOM     11  N   UNL     1       1.147   4.064  17.112  0.00  0.00    +0.000 NA
ATOM     12  N   UNL     1       1.538   5.264  17.516  0.00  0.00    +0.000 NA
ATOM     13  N   UNL     1       1.804   5.136  18.831  0.00  0.00    +0.000 N 
BRANCH  13  14
ATOM     14  C   UNL     1       2.516   6.177  19.570  0.00  0.00    +0.000 C 
ATOM     15  C   UNL     1       3.109   7.176  18.582  0.00  0.00    +0.000 C 
ATOM     16  C   UNL     1       1.998   8.048  18.014  0.00  0.00    +0.000 C 
ATOM     17  C   UNL     1       1.640   9.052  19.084  0.00  0.00    +0.000 C 
ATOM     18  C   UNL     1       1.137   8.349  20.343  0.00  0.00    +0.000 C 
ATOM     19  C   UNL     1       1.761   6.969  20.689  0.00  0.00    +0.000 C 
ENDBRANCH  13  14
ENDBRANCH   8   9
ENDBRANCH   6   8
ENDBRANCH   1   6
BRANCH   1  20
ATOM     20  C   UNL     1       5.143   3.943  19.755  0.00  0.00    +0.000 C 
BRANCH  20  21
ATOM     21  C   UNL     1       5.633   4.201  18.345  0.00  0.00    +0.000 A 
ATOM     22  C   UNL     1       4.799   3.897  17.263  0.00  0.00    +0.000 A 
ATOM     23  C   UNL     1       5.276   3.989  15.960  0.00  0.00    +0.000 A 
ATOM     24  C   UNL     1       6.560   4.469  15.712  0.00  0.00    +0.000 A 
ATOM     25  C   UNL     1       7.391   4.801  16.781  0.00  0.00    +0.000 A 
ATOM     26  C   UNL     1       6.932   4.667  18.095  0.00  0.00    +0.000 A 
BRANCH  24  27
ATOM     27  O   UNL     1       7.088   4.651  14.463  0.00  0.00    +0.000 OA
BRANCH  27  28
ATOM     28  C   UNL     1       6.118   4.786  13.421  0.00  0.00    +0.000 C 
BRANCH  28  29
ATOM     29  C   UNL     1       6.220   3.614  12.486  0.00  0.00    +0.000 A 
ATOM     30  C   UNL     1       7.472   3.180  12.018  0.00  0.00    +0.000 A 
ATOM     31  C   UNL     1       7.560   2.050  11.209  0.00  0.00    +0.000 A 
ATOM     32  C   UNL     1       6.415   1.345  10.855  0.00  0.00    +0.000 A 
ATOM     33  C   UNL     1       5.165   1.781  11.310  0.00  0.00    +0.000 A 
ATOM     34  C   UNL     1       5.067   2.906  12.123  0.00  0.00    +0.000 A 
ENDBRANCH  28  29
ENDBRANCH  27  28
ENDBRANCH  24  27
ENDBRANCH  20  21
ENDBRANCH   1  20
TORSDOF 11
ENDMDL
MODEL 6
REMARK VINA RESULT:      -7.4      3.971      8.447
REMARK  Name = 
REMARK  11 active torsions:
REMARK  status: ('A' for Active; 'I' for Inactive)
REMARK    1  A    between atoms: C_2  and  OXT_3
REMARK    2  A    between atoms: C_2  and  CA_4
REMARK    3  A    between atoms: CA_4  and  C_5
REMARK    4  A    between atoms: CA_4  and  N_20
REMARK    5  A    between atoms: C_5  and  C_6
REMARK    6  A    between atoms: C_9  and  O_10
REMARK    7  A    between atoms: O_10  and  C_11
REMARK    8  A    between atoms: C_11  and  C_12
REMARK    9  A    between atoms: N_20  and  C_21
REMARK   10  A    between atoms: C_21  and  C_22
REMARK   11  A    between atoms: N_26  and  C_27
REMARK                            x       y       z     vdW  Elec       q    Type
REMARK                         _______ _______ _______ _____ _____    ______ ____
ROOT
ATOM      1  CA  UNL     1       2.146   5.287  20.117  0.00  0.00    +0.000 C 
ENDROOT
BRANCH   1   3
ATOM      2  O   UNL     1       0.377   3.621  19.859  0.00  0.00    +0.000 OA
ATOM      3  C   UNL     1       1.282   4.080  20.546  0.00  0.00    +0.000 C 
BRANCH   3   4
ATOM      4  OXT UNL     1       1.619   3.551  21.746  0.00  0.00    +0.000 OA
ATOM      5  HXT UNL     1       1.012   3.790  22.471  0.00  0.00    +0.000 HD
ENDBRANCH   3   4
ENDBRANCH   1   3
BRANCH   1   6
ATOM      6  N   UNL     1       1.651   6.451  20.894  0.00  0.00    +0.000 NA
ATOM      7  H   UNL     1       2.170   6.462  21.779  0.00  0.00    +0.000 HD
BRANCH   6   8
ATOM      8  C   UNL     1       1.797   7.744  20.234  0.00  0.00    +0.000 C 
BRANCH   8   9
ATOM      9  C   UNL     1       1.307   8.917  21.023  0.00  0.00    +0.000 A 
ATOM     10  N   UNL     1       0.906   8.854  22.279  0.00  0.00    +0.000 NA
ATOM     11  N   UNL     1       0.448  10.100  22.609  0.00  0.00    +0.000 NA
ATOM     12  N   UNL     1       0.567  10.939  21.591  0.00  0.00    +0.000 NA
ATOM     13  N   UNL     1       1.067  10.210  20.575  0.00  0.00    +0.000 N 
BRANCH  13  14
ATOM     14  C   UNL     1       1.087  10.723  19.206  0.00  0.00    +0.000 C 
ATOM     15  C   UNL     1      -0.066  10.102  18.422  0.00  0.00    +0.000 C 
ATOM     16  C   UNL     1      -1.378  10.737  18.862  0.00  0.00    +0.000 C 
ATOM     17  C   UNL     1      -1.441  12.101  18.216  0.00  0.00    +0.000 C 
ATOM     18  C   UNL     1      -0.277  12.975  18.677  0.00  0.00    +0.000 C 
ATOM     19  C   UNL     1       1.075  12.270  18.971  0.00  0.00    +0.000 C 
ENDBRANCH  13  14
ENDBRANCH   8   9
ENDBRANCH   6   8
ENDBRANCH   1   6
BRANCH   1  20
ATOM     20  C   UNL     1       3.634   4.900  20.314  0.00  0.00    +0.000 C 
BRANCH  20  21
ATOM     21  C   UNL     1       4.469   5.326  19.124  0.00  0.00    +0.000 A 
ATOM     22  C   UNL     1       3.840   5.905  18.017  0.00  0.00    +0.000 A 
ATOM     23  C   UNL     1       4.560   6.172  16.858  0.00  0.00    +0.000 A 
ATOM     24  C   UNL     1       5.935   5.949  16.816  0.00  0.00    +0.000 A 
ATOM     25  C   UNL     1       6.579   5.396  17.922  0.00  0.00    +0.000 A 
ATOM     26  C   UNL     1       5.850   5.083  19.074  0.00  0.00    +0.000 A 
BRANCH  24  27
ATOM     27  O   UNL     1       6.731   6.240  15.742  0.00  0.00    +0.000 OA
BRANCH  27  28
ATOM     28  C   UNL     1       7.504   5.138  15.259  0.00  0.00    +0.000 C 
BRANCH  28  29
ATOM     29  C   UNL     1       6.842   4.555  14.042  0.00  0.00    +0.000 A 
ATOM     30  C   UNL     1       7.516   4.516  12.811  0.00  0.00    +0.000 A 
ATOM     31  C   UNL     1       6.919   3.909  11.708  0.00  0.00    +0.000 A 
ATOM     32  C   UNL     1       5.655   3.341  11.815  0.00  0.00    +0.000 A 
ATOM     33  C   UNL     1       4.975   3.388  13.038  0.00  0.00    +0.000 A 
ATOM     34  C   UNL     1       5.565   3.988  14.146  0.00  0.00    +0.000 A 
ENDBRANCH  28  29
ENDBRANCH  27  28
ENDBRANCH  24  27
ENDBRANCH  20  21
ENDBRANCH   1  20
TORSDOF 11
ENDMDL
MODEL 7
REMARK VINA RESULT:      -7.4      3.571      7.490
REMARK  Name = 
REMARK  11 active torsions:
REMARK  status: ('A' for Active; 'I' for Inactive)
REMARK    1  A    between atoms: C_2  and  OXT_3
REMARK    2  A    between atoms: C_2  and  CA_4
REMARK    3  A    between atoms: CA_4  and  C_5
REMARK    4  A    between atoms: CA_4  and  N_20
REMARK    5  A    between atoms: C_5  and  C_6
REMARK    6  A    between atoms: C_9  and  O_10
REMARK    7  A    between atoms: O_10  and  C_11
REMARK    8  A    between atoms: C_11  and  C_12
REMARK    9  A    between atoms: N_20  and  C_21
REMARK   10  A    between atoms: C_21  and  C_22
REMARK   11  A    between atoms: N_26  and  C_27
REMARK                            x       y       z     vdW  Elec       q    Type
REMARK                         _______ _______ _______ _____ _____    ______ ____
ROOT
ATOM      1  CA  UNL     1       4.192   4.582  17.080  0.00  0.00    +0.000 C 
ENDROOT
BRANCH   1   3
ATOM      2  O   UNL     1       4.348   3.282  19.143  0.00  0.00    +0.000 OA
ATOM      3  C   UNL     1       3.841   3.420  18.036  0.00  0.00    +0.000 C 
BRANCH   3   4
ATOM      4  OXT UNL     1       2.906   2.567  17.558  0.00  0.00    +0.000 OA
ATOM      5  HXT UNL     1       2.073   2.564  18.065  0.00  0.00    +0.000 HD
ENDBRANCH   3   4
ENDBRANCH   1   3
BRANCH   1   6
ATOM      6  N   UNL     1       3.881   5.834  17.815  0.00  0.00    +0.000 NA
ATOM      7  H   UNL     1       4.324   6.602  17.297  0.00  0.00    +0.000 HD
BRANCH   6   8
ATOM      8  C   UNL     1       2.459   6.120  17.976  0.00  0.00    +0.000 C 
BRANCH   8   9
ATOM      9  C   UNL     1       2.112   6.955  19.168  0.00  0.00    +0.000 A 
ATOM     10  N   UNL     1       1.931   6.476  20.385  0.00  0.00    +0.000 NA
ATOM     11  N   UNL     1       1.538   7.527  21.167  0.00  0.00    +0.000 NA
ATOM     12  N   UNL     1       1.483   8.651  20.468  0.00  0.00    +0.000 NA
ATOM     13  N   UNL     1       1.802   8.309  19.204  0.00  0.00    +0.000 N 
BRANCH  13  14
ATOM     14  C   UNL     1       1.590   9.229  18.088  0.00  0.00    +0.000 C 
ATOM     15  C   UNL     1       0.099   9.527  17.961  0.00  0.00    +0.000 C 
ATOM     16  C   UNL     1      -0.329  10.462  19.084  0.00  0.00    +0.000 C 
ATOM     17  C   UNL     1       0.158  11.842  18.713  0.00  0.00    +0.000 C 
ATOM     18  C   UNL     1       1.680  11.867  18.587  0.00  0.00    +0.000 C 
ATOM     19  C   UNL     1       2.374  10.583  18.057  0.00  0.00    +0.000 C 
ENDBRANCH  13  14
ENDBRANCH   8   9
ENDBRANCH   6   8
ENDBRANCH   1   6
BRANCH   1  20
ATOM     20  C   UNL     1       5.660   4.392  16.619  0.00  0.00    +0.000 C 
BRANCH  20  21
ATOM     21  C   UNL     1       6.558   5.464  17.204  0.00  0.00    +0.000 A 
ATOM     22  C   UNL     1       7.332   5.170  18.332  0.00  0.00    +0.000 A 
ATOM     23  C   UNL     1       8.051   6.172  18.972  0.00  0.00    +0.000 A 
ATOM     24  C   UNL     1       8.081   7.463  18.447  0.00  0.00    +0.000 A 
ATOM     25  C   UNL     1       7.334   7.762  17.308  0.00  0.00    +0.000 A 
ATOM     26  C   UNL     1       6.572   6.767  16.687  0.00  0.00    +0.000 A 
BRANCH  24  27
ATOM     27  O   UNL     1       8.809   8.493  18.975  0.00  0.00    +0.000 OA
BRANCH  27  28
ATOM     28  C   UNL     1       8.618   9.752  18.324  0.00  0.00    +0.000 C 
BRANCH  28  29
ATOM     29  C   UNL     1       9.624  10.742  18.841  0.00  0.00    +0.000 A 
ATOM     30  C   UNL     1       9.660  11.078  20.204  0.00  0.00    +0.000 A 
ATOM     31  C   UNL     1      10.642  11.942  20.683  0.00  0.00    +0.000 A 
ATOM     32  C   UNL     1      11.591  12.479  19.819  0.00  0.00    +0.000 A 
ATOM     33  C   UNL     1      11.551  12.155  18.458  0.00  0.00    +0.000 A 
ATOM     34  C   UNL     1      10.577  11.289  17.971  0.00  0.00    +0.000 A 
ENDBRANCH  28  29
ENDBRANCH  27  28
ENDBRANCH  24  27
ENDBRANCH  20  21
ENDBRANCH   1  20
TORSDOF 11
ENDMDL
MODEL 8
REMARK VINA RESULT:      -7.3      6.289     10.600
REMARK  Name = 
REMARK  11 active torsions:
REMARK  status: ('A' for Active; 'I' for Inactive)
REMARK    1  A    between atoms: C_2  and  OXT_3
REMARK    2  A    between atoms: C_2  and  CA_4
REMARK    3  A    between atoms: CA_4  and  C_5
REMARK    4  A    between atoms: CA_4  and  N_20
REMARK    5  A    between atoms: C_5  and  C_6
REMARK    6  A    between atoms: C_9  and  O_10
REMARK    7  A    between atoms: O_10  and  C_11
REMARK    8  A    between atoms: C_11  and  C_12
REMARK    9  A    between atoms: N_20  and  C_21
REMARK   10  A    between atoms: C_21  and  C_22
REMARK   11  A    between atoms: N_26  and  C_27
REMARK                            x       y       z     vdW  Elec       q    Type
REMARK                         _______ _______ _______ _____ _____    ______ ____
ROOT
ATOM      1  CA  UNL     1      -2.371  11.794  18.044  0.00  0.00    +0.000 C 
ENDROOT
BRANCH   1   3
ATOM      2  O   UNL     1      -2.203  10.495  15.980  0.00  0.00    +0.000 OA
ATOM      3  C   UNL     1      -2.545  10.540  17.156  0.00  0.00    +0.000 C 
BRANCH   3   4
ATOM      4  OXT UNL     1      -3.092   9.478  17.792  0.00  0.00    +0.000 OA
ATOM      5  HXT UNL     1      -2.513   9.074  18.465  0.00  0.00    +0.000 HD
ENDBRANCH   3   4
ENDBRANCH   1   3
BRANCH   1   6
ATOM      6  N   UNL     1      -3.165  11.546  19.273  0.00  0.00    +0.000 NA
ATOM      7  H   UNL     1      -2.513  11.196  19.984  0.00  0.00    +0.000 HD
BRANCH   6   8
ATOM      8  C   UNL     1      -3.870  12.711  19.800  0.00  0.00    +0.000 C 
BRANCH   8   9
ATOM      9  C   UNL     1      -4.954  12.403  20.785  0.00  0.00    +0.000 A 
ATOM     10  N   UNL     1      -6.122  11.877  20.466  0.00  0.00    +0.000 NA
ATOM     11  N   UNL     1      -6.863  11.840  21.615  0.00  0.00    +0.000 NA
ATOM     12  N   UNL     1      -6.179  12.319  22.643  0.00  0.00    +0.000 NA
ATOM     13  N   UNL     1      -4.993  12.713  22.138  0.00  0.00    +0.000 N 
BRANCH  13  14
ATOM     14  C   UNL     1      -4.070  13.539  22.916  0.00  0.00    +0.000 C 
ATOM     15  C   UNL     1      -3.322  12.654  23.909  0.00  0.00    +0.000 C 
ATOM     16  C   UNL     1      -2.283  11.825  23.166  0.00  0.00    +0.000 C 
ATOM     17  C   UNL     1      -1.130  12.749  22.851  0.00  0.00    +0.000 C 
ATOM     18  C   UNL     1      -1.586  13.904  21.962  0.00  0.00    +0.000 C 
ATOM     19  C   UNL     1      -3.032  14.435  22.164  0.00  0.00    +0.000 C 
ENDBRANCH  13  14
ENDBRANCH   8   9
ENDBRANCH   6   8
ENDBRANCH   1   6
BRANCH   1  20
ATOM     20  C   UNL     1      -0.851  12.036  18.232  0.00  0.00    +0.000 C 
BRANCH  20  21
ATOM     21  C   UNL     1      -0.172  10.808  18.804  0.00  0.00    +0.000 A 
ATOM     22  C   UNL     1      -0.402  10.456  20.138  0.00  0.00    +0.000 A 
ATOM     23  C   UNL     1       0.317   9.422  20.727  0.00  0.00    +0.000 A 
ATOM     24  C   UNL     1       1.211   8.666  19.971  0.00  0.00    +0.000 A 
ATOM     25  C   UNL     1       1.429   8.991  18.632  0.00  0.00    +0.000 A 
ATOM     26  C   UNL     1       0.742  10.059  18.049  0.00  0.00    +0.000 A 
BRANCH  24  27
ATOM     27  O   UNL     1       1.913   7.595  20.451  0.00  0.00    +0.000 OA
BRANCH  27  28
ATOM     28  C   UNL     1       2.579   6.822  19.449  0.00  0.00    +0.000 C 
BRANCH  28  29
ATOM     29  C   UNL     1       1.998   5.437  19.415  0.00  0.00    +0.000 A 
ATOM     30  C   UNL     1       1.927   4.720  18.209  0.00  0.00    +0.000 A 
ATOM     31  C   UNL     1       1.452   3.411  18.203  0.00  0.00    +0.000 A 
ATOM     32  C   UNL     1       1.043   2.803  19.385  0.00  0.00    +0.000 A 
ATOM     33  C   UNL     1       1.102   3.518  20.588  0.00  0.00    +0.000 A 
ATOM     34  C   UNL     1       1.580   4.825  20.605  0.00  0.00    +0.000 A 
ENDBRANCH  28  29
ENDBRANCH  27  28
ENDBRANCH  24  27
ENDBRANCH  20  21
ENDBRANCH   1  20
TORSDOF 11
ENDMDL
MODEL 9
REMARK VINA RESULT:      -7.3      4.066      8.726
REMARK  Name = 
REMARK  11 active torsions:
REMARK  status: ('A' for Active; 'I' for Inactive)
REMARK    1  A    between atoms: C_2  and  OXT_3
REMARK    2  A    between atoms: C_2  and  CA_4
REMARK    3  A    between atoms: CA_4  and  C_5
REMARK    4  A    between atoms: CA_4  and  N_20
REMARK    5  A    between atoms: C_5  and  C_6
REMARK    6  A    between atoms: C_9  and  O_10
REMARK    7  A    between atoms: O_10  and  C_11
REMARK    8  A    between atoms: C_11  and  C_12
REMARK    9  A    between atoms: N_20  and  C_21
REMARK   10  A    between atoms: C_21  and  C_22
REMARK   11  A    between atoms: N_26  and  C_27
REMARK                            x       y       z     vdW  Elec       q    Type
REMARK                         _______ _______ _______ _____ _____    ______ ____
ROOT
ATOM      1  CA  UNL     1       2.607   5.514  19.625  0.00  0.00    +0.000 C 
ENDROOT
BRANCH   1   3
ATOM      2  O   UNL     1       1.145   3.607  19.178  0.00  0.00    +0.000 OA
ATOM      3  C   UNL     1       1.726   4.302  20.004  0.00  0.00    +0.000 C 
BRANCH   3   4
ATOM      4  OXT UNL     1       1.660   4.054  21.332  0.00  0.00    +0.000 OA
ATOM      5  HXT UNL     1       0.767   4.149  21.712  0.00  0.00    +0.000 HD
ENDBRANCH   3   4
ENDBRANCH   1   3
BRANCH   1   6
ATOM      6  N   UNL     1       2.201   6.622  20.526  0.00  0.00    +0.000 NA
ATOM      7  H   UNL     1       3.033   6.892  21.060  0.00  0.00    +0.000 HD
BRANCH   6   8
ATOM      8  C   UNL     1       1.657   7.798  19.853  0.00  0.00    +0.000 C 
BRANCH   8   9
ATOM      9  C   UNL     1       1.283   8.928  20.759  0.00  0.00    +0.000 A 
ATOM     10  N   UNL     1       1.022   8.795  22.046  0.00  0.00    +0.000 NA
ATOM     11  N   UNL     1       0.630  10.026  22.497  0.00  0.00    +0.000 NA
ATOM     12  N   UNL     1       0.654  10.923  21.523  0.00  0.00    +0.000 NA
ATOM     13  N   UNL     1       1.024  10.249  20.416  0.00  0.00    +0.000 N 
BRANCH  13  14
ATOM     14  C   UNL     1       0.904  10.844  19.086  0.00  0.00    +0.000 C 
ATOM     15  C   UNL     1      -0.220  10.146  18.326  0.00  0.00    +0.000 C 
ATOM     16  C   UNL     1      -1.564  10.602  18.878  0.00  0.00    +0.000 C 
ATOM     17  C   UNL     1      -1.815  11.987  18.330  0.00  0.00    +0.000 C 
ATOM     18  C   UNL     1      -0.727  12.956  18.785  0.00  0.00    +0.000 C 
ATOM     19  C   UNL     1       0.709  12.391  18.958  0.00  0.00    +0.000 C 
ENDBRANCH  13  14
ENDBRANCH   8   9
ENDBRANCH   6   8
ENDBRANCH   1   6
BRANCH   1  20
ATOM     20  C   UNL     1       4.089   5.064  19.699  0.00  0.00    +0.000 C 
BRANCH  20  21
ATOM     21  C   UNL     1       4.795   5.298  18.378  0.00  0.00    +0.000 A 
ATOM     22  C   UNL     1       4.272   6.231  17.477  0.00  0.00    +0.000 A 
ATOM     23  C   UNL     1       4.815   6.361  16.204  0.00  0.00    +0.000 A 
ATOM     24  C   UNL     1       5.941   5.626  15.841  0.00  0.00    +0.000 A 
ATOM     25  C   UNL     1       6.488   4.711  16.740  0.00  0.00    +0.000 A 
ATOM     26  C   UNL     1       5.917   4.544  18.005  0.00  0.00    +0.000 A 
BRANCH  24  27
ATOM     27  O   UNL     1       6.577   5.735  14.635  0.00  0.00    +0.000 OA
BRANCH  27  28
ATOM     28  C   UNL     1       7.271   4.556  14.219  0.00  0.00    +0.000 C 
BRANCH  28  29
ATOM     29  C   UNL     1       6.453   3.830  13.188  0.00  0.00    +0.000 A 
ATOM     30  C   UNL     1       5.056   3.966  13.158  0.00  0.00    +0.000 A 
ATOM     31  C   UNL     1       4.316   3.345  12.155  0.00  0.00    +0.000 A 
ATOM     32  C   UNL     1       4.950   2.586  11.178  0.00  0.00    +0.000 A 
ATOM     33  C   UNL     1       6.342   2.439  11.210  0.00  0.00    +0.000 A 
ATOM     34  C   UNL     1       7.091   3.059  12.206  0.00  0.00    +0.000 A 
ENDBRANCH  28  29
ENDBRANCH  27  28
ENDBRANCH  24  27
ENDBRANCH  20  21
ENDBRANCH   1  20
TORSDOF 11
ENDMDL
