MODEL 1
REMARK VINA RESULT:      -7.2      0.000      0.000
REMARK  Name = 
REMARK  4 active torsions:
REMARK  status: ('A' for Active; 'I' for Inactive)
REMARK    1  A    between atoms: C_1  and  C_2
REMARK    2  A    between atoms: C_7  and  C_8
REMARK    3  A    between atoms: N_10  and  N_11
REMARK    4  A    between atoms: C_12  and  C_14
REMARK                            x       y       z     vdW  Elec       q    Type
REMARK                         _______ _______ _______ _____ _____    ______ ____
ROOT
ATOM      1  C   UNL     1       4.255   5.952  18.137  0.00  0.00    +0.000 C 
ATOM      2  O   UNL     1       4.235   5.491  19.278  0.00  0.00    +0.000 OA
ATOM      3  N   UNL     1       3.439   7.003  17.767  0.00  0.00    +0.000 N 
ATOM      4  H   UNL     1       3.600   7.576  16.943  0.00  0.00    +0.000 HD
ENDROOT
BRANCH   1  11
ATOM      5  C   UNL     1       7.072   7.149  17.511  0.00  0.00    +0.000 C 
ATOM      6  C   UNL     1       6.481   5.952  16.820  0.00  0.00    +0.000 A 
ATOM      7  C   UNL     1       7.234   5.369  15.777  0.00  0.00    +0.000 A 
ATOM      8  C   UNL     1       6.744   4.289  15.041  0.00  0.00    +0.000 A 
ATOM      9  C   UNL     1       5.495   3.762  15.338  0.00  0.00    +0.000 A 
ATOM     10  C   UNL     1       4.735   4.319  16.367  0.00  0.00    +0.000 A 
ATOM     11  C   UNL     1       5.213   5.410  17.122  0.00  0.00    +0.000 A 
ENDBRANCH   1  11
BRANCH   3  12
ATOM     12  N   UNL     1       2.593   7.559  18.745  0.00  0.00    +0.000 N 
ATOM     13  C   UNL     1       1.910   8.717  18.423  0.00  0.00    +0.000 C 
ATOM     14  O   UNL     1       1.981   9.244  17.318  0.00  0.00    +0.000 OA
ATOM     15  H   UNL     1       2.761   7.255  19.705  0.00  0.00    +0.000 HD
BRANCH  13  16
ATOM     16  C   UNL     1       1.075   9.324  19.498  0.00  0.00    +0.000 A 
ATOM     17  C   UNL     1       1.109   8.746  20.775  0.00  0.00    +0.000 A 
ATOM     18  C   UNL     1       0.382   9.310  21.828  0.00  0.00    +0.000 A 
ATOM     19  C   UNL     1      -0.366  10.466  21.607  0.00  0.00    +0.000 A 
ATOM     20 BR   UNL     1      -1.333  11.241  23.034  0.00  0.00    +0.000 Br
ATOM     21  C   UNL     1      -0.397  11.058  20.344  0.00  0.00    +0.000 A 
ATOM     22  C   UNL     1       0.321  10.487  19.286  0.00  0.00    +0.000 A 
ENDBRANCH  13  16
ENDBRANCH   3  12
TORSDOF 3
ENDMDL
MODEL 2
REMARK VINA RESULT:      -7.1      0.643      1.670
REMARK  Name = 
REMARK  4 active torsions:
REMARK  status: ('A' for Active; 'I' for Inactive)
REMARK    1  A    between atoms: C_1  and  C_2
REMARK    2  A    between atoms: C_7  and  C_8
REMARK    3  A    between atoms: N_10  and  N_11
REMARK    4  A    between atoms: C_12  and  C_14
REMARK                            x       y       z     vdW  Elec       q    Type
REMARK                         _______ _______ _______ _____ _____    ______ ____
ROOT
ATOM      1  C   UNL     1       3.860   6.146  18.363  0.00  0.00    +0.000 C 
ATOM      2  O   UNL     1       3.893   5.830  19.552  0.00  0.00    +0.000 OA
ATOM      3  N   UNL     1       2.967   7.088  17.890  0.00  0.00    +0.000 N 
ATOM      4  H   UNL     1       3.073   7.563  16.998  0.00  0.00    +0.000 HD
ENDROOT
BRANCH   1  11
ATOM      5  C   UNL     1       3.474   3.415  16.899  0.00  0.00    +0.000 C 
ATOM      6  C   UNL     1       4.676   4.304  16.741  0.00  0.00    +0.000 A 
ATOM      7  C   UNL     1       5.722   3.838  15.917  0.00  0.00    +0.000 A 
ATOM      8  C   UNL     1       6.901   4.568  15.754  0.00  0.00    +0.000 A 
ATOM      9  C   UNL     1       7.053   5.785  16.403  0.00  0.00    +0.000 A 
ATOM     10  C   UNL     1       6.029   6.268  17.219  0.00  0.00    +0.000 A 
ATOM     11  C   UNL     1       4.832   5.545  17.396  0.00  0.00    +0.000 A 
ENDBRANCH   1  11
BRANCH   3  12
ATOM     12  N   UNL     1       2.104   7.705  18.816  0.00  0.00    +0.000 N 
ATOM     13  C   UNL     1       1.667   8.986  18.535  0.00  0.00    +0.000 C 
ATOM     14  O   UNL     1       1.965   9.577  17.502  0.00  0.00    +0.000 OA
ATOM     15  H   UNL     1       2.096   7.302  19.754  0.00  0.00    +0.000 HD
BRANCH  13  16
ATOM     16  C   UNL     1       0.811   9.642  19.562  0.00  0.00    +0.000 A 
ATOM     17  C   UNL     1       0.918   9.214  20.892  0.00  0.00    +0.000 A 
ATOM     18  C   UNL     1       0.172   9.834  21.899  0.00  0.00    +0.000 A 
ATOM     19  C   UNL     1      -0.669  10.898  21.577  0.00  0.00    +0.000 A 
ATOM     20 BR   UNL     1      -1.662  11.751  22.941  0.00  0.00    +0.000 Br
ATOM     21  C   UNL     1      -0.774  11.343  20.259  0.00  0.00    +0.000 A 
ATOM     22  C   UNL     1      -0.037  10.715  19.248  0.00  0.00    +0.000 A 
ENDBRANCH  13  16
ENDBRANCH   3  12
TORSDOF 3
ENDMDL
MODEL 3
REMARK VINA RESULT:      -7.1      2.959      4.063
REMARK  Name = 
REMARK  4 active torsions:
REMARK  status: ('A' for Active; 'I' for Inactive)
REMARK    1  A    between atoms: C_1  and  C_2
REMARK    2  A    between atoms: C_7  and  C_8
REMARK    3  A    between atoms: N_10  and  N_11
REMARK    4  A    between atoms: C_12  and  C_14
REMARK                            x       y       z     vdW  Elec       q    Type
REMARK                         _______ _______ _______ _____ _____    ______ ____
ROOT
ATOM      1  C   UNL     1       2.146   6.542  20.045  0.00  0.00    +0.000 C 
ATOM      2  O   UNL     1       2.318   7.293  19.085  0.00  0.00    +0.000 OA
ATOM      3  N   UNL     1       1.760   7.024  21.280  0.00  0.00    +0.000 N 
ATOM      4  H   UNL     1       1.360   6.441  22.010  0.00  0.00    +0.000 HD
ENDROOT
BRANCH   1  11
ATOM      5  C   UNL     1       4.802   5.106  19.242  0.00  0.00    +0.000 C 
ATOM      6  C   UNL     1       3.498   4.404  19.504  0.00  0.00    +0.000 A 
ATOM      7  C   UNL     1       3.467   3.005  19.316  0.00  0.00    +0.000 A 
ATOM      8  C   UNL     1       2.289   2.275  19.481  0.00  0.00    +0.000 A 
ATOM      9  C   UNL     1       1.120   2.925  19.848  0.00  0.00    +0.000 A 
ATOM     10  C   UNL     1       1.128   4.307  20.044  0.00  0.00    +0.000 A 
ATOM     11  C   UNL     1       2.307   5.062  19.882  0.00  0.00    +0.000 A 
ENDBRANCH   1  11
BRANCH   3  12
ATOM     12  N   UNL     1       1.538   8.408  21.409  0.00  0.00    +0.000 N 
ATOM     13  C   UNL     1       0.247   8.832  21.668  0.00  0.00    +0.000 C 
ATOM     14  O   UNL     1      -0.687   8.054  21.829  0.00  0.00    +0.000 OA
ATOM     15  H   UNL     1       2.259   9.014  21.018  0.00  0.00    +0.000 HD
BRANCH  13  16
ATOM     16  C   UNL     1       0.026  10.304  21.732  0.00  0.00    +0.000 A 
ATOM     17  C   UNL     1      -0.868  10.802  22.690  0.00  0.00    +0.000 A 
ATOM     18  C   UNL     1      -1.071  12.180  22.821  0.00  0.00    +0.000 A 
ATOM     19  C   UNL     1      -0.362  13.061  22.005  0.00  0.00    +0.000 A 
ATOM     20 BR   UNL     1      -0.619  14.924  22.196  0.00  0.00    +0.000 Br
ATOM     21  C   UNL     1       0.541  12.578  21.058  0.00  0.00    +0.000 A 
ATOM     22  C   UNL     1       0.735  11.199  20.917  0.00  0.00    +0.000 A 
ENDBRANCH  13  16
ENDBRANCH   3  12
TORSDOF 3
ENDMDL
MODEL 4
REMARK VINA RESULT:      -7.0      0.697      2.008
REMARK  Name = 
REMARK  4 active torsions:
REMARK  status: ('A' for Active; 'I' for Inactive)
REMARK    1  A    between atoms: C_1  and  C_2
REMARK    2  A    between atoms: C_7  and  C_8
REMARK    3  A    between atoms: N_10  and  N_11
REMARK    4  A    between atoms: C_12  and  C_14
REMARK                            x       y       z     vdW  Elec       q    Type
REMARK                         _______ _______ _______ _____ _____    ______ ____
ROOT
ATOM      1  C   UNL     1       3.845   6.180  18.418  0.00  0.00    +0.000 C 
ATOM      2  O   UNL     1       3.829   5.759  19.574  0.00  0.00    +0.000 OA
ATOM      3  N   UNL     1       3.063   7.249  18.028  0.00  0.00    +0.000 N 
ATOM      4  H   UNL     1       3.230   7.787  17.181  0.00  0.00    +0.000 HD
ENDROOT
BRANCH   1  11
ATOM      5  C   UNL     1       3.378   3.422  17.026  0.00  0.00    +0.000 C 
ATOM      6  C   UNL     1       4.565   4.311  16.781  0.00  0.00    +0.000 A 
ATOM      7  C   UNL     1       5.561   3.833  15.902  0.00  0.00    +0.000 A 
ATOM      8  C   UNL     1       6.725   4.563  15.655  0.00  0.00    +0.000 A 
ATOM      9  C   UNL     1       6.913   5.791  16.273  0.00  0.00    +0.000 A 
ATOM     10  C   UNL     1       5.940   6.286  17.141  0.00  0.00    +0.000 A 
ATOM     11  C   UNL     1       4.758   5.564  17.404  0.00  0.00    +0.000 A 
ENDBRANCH   1  11
BRANCH   3  12
ATOM     12  N   UNL     1       2.261   7.873  19.002  0.00  0.00    +0.000 N 
ATOM     13  C   UNL     1       1.645   9.064  18.664  0.00  0.00    +0.000 C 
ATOM     14  O   UNL     1       1.738   9.565  17.549  0.00  0.00    +0.000 OA
ATOM     15  H   UNL     1       2.420   7.577  19.965  0.00  0.00    +0.000 HD
BRANCH  13  16
ATOM     16  C   UNL     1       0.858   9.738  19.734  0.00  0.00    +0.000 A 
ATOM     17  C   UNL     1       0.075  10.847  19.388  0.00  0.00    +0.000 A 
ATOM     18  C   UNL     1      -0.719  11.483  20.347  0.00  0.00    +0.000 A 
ATOM     19  C   UNL     1      -0.745  10.994  21.653  0.00  0.00    +0.000 A 
ATOM     20 BR   UNL     1      -1.835  11.838  22.946  0.00  0.00    +0.000 Br
ATOM     21  C   UNL     1       0.019   9.882  22.007  0.00  0.00    +0.000 A 
ATOM     22  C   UNL     1       0.824   9.253  21.050  0.00  0.00    +0.000 A 
ENDBRANCH  13  16
ENDBRANCH   3  12
TORSDOF 3
ENDMDL
MODEL 5
REMARK VINA RESULT:      -7.0      3.327      8.312
REMARK  Name = 
REMARK  4 active torsions:
REMARK  status: ('A' for Active; 'I' for Inactive)
REMARK    1  A    between atoms: C_1  and  C_2
REMARK    2  A    between atoms: C_7  and  C_8
REMARK    3  A    between atoms: N_10  and  N_11
REMARK    4  A    between atoms: C_12  and  C_14
REMARK                            x       y       z     vdW  Elec       q    Type
REMARK                         _______ _______ _______ _____ _____    ______ ____
ROOT
ATOM      1  C   UNL     1       0.865   9.282  19.609  0.00  0.00    +0.000 C 
ATOM      2  O   UNL     1       0.693   9.712  18.469  0.00  0.00    +0.000 OA
ATOM      3  N   UNL     1       1.724   8.231  19.863  0.00  0.00    +0.000 N 
ATOM      4  H   UNL     1       2.091   8.017  20.786  0.00  0.00    +0.000 HD
ENDROOT
BRANCH   1  11
ATOM      5  C   UNL     1       0.177  12.321  19.823  0.00  0.00    +0.000 C 
ATOM      6  C   UNL     1      -0.128  11.301  20.885  0.00  0.00    +0.000 A 
ATOM      7  C   UNL     1      -0.714  11.768  22.081  0.00  0.00    +0.000 A 
ATOM      8  C   UNL     1      -0.982  10.904  23.145  0.00  0.00    +0.000 A 
ATOM      9  C   UNL     1      -0.680   9.555  23.031  0.00  0.00    +0.000 A 
ATOM     10  C   UNL     1      -0.105   9.071  21.856  0.00  0.00    +0.000 A 
ATOM     11  C   UNL     1       0.173   9.926  20.770  0.00  0.00    +0.000 A 
ENDBRANCH   1  11
BRANCH   3  12
ATOM     12  N   UNL     1       2.428   7.675  18.778  0.00  0.00    +0.000 N 
ATOM     13  C   UNL     1       2.912   6.387  18.915  0.00  0.00    +0.000 C 
ATOM     14  O   UNL     1       2.713   5.707  19.916  0.00  0.00    +0.000 OA
ATOM     15  H   UNL     1       2.791   8.341  18.095  0.00  0.00    +0.000 HD
BRANCH  13  16
ATOM     16  C   UNL     1       3.712   5.848  17.781  0.00  0.00    +0.000 A 
ATOM     17  C   UNL     1       4.470   6.744  17.014  0.00  0.00    +0.000 A 
ATOM     18  C   UNL     1       5.277   6.279  15.971  0.00  0.00    +0.000 A 
ATOM     19  C   UNL     1       5.340   4.911  15.706  0.00  0.00    +0.000 A 
ATOM     20 BR   UNL     1       6.446   4.278  14.310  0.00  0.00    +0.000 Br
ATOM     21  C   UNL     1       4.601   4.008  16.471  0.00  0.00    +0.000 A 
ATOM     22  C   UNL     1       3.784   4.474  17.508  0.00  0.00    +0.000 A 
ENDBRANCH  13  16
ENDBRANCH   3  12
TORSDOF 3
ENDMDL
MODEL 6
REMARK VINA RESULT:      -7.0      2.910      4.025
REMARK  Name = 
REMARK  4 active torsions:
REMARK  status: ('A' for Active; 'I' for Inactive)
REMARK    1  A    between atoms: C_1  and  C_2
REMARK    2  A    between atoms: C_7  and  C_8
REMARK    3  A    between atoms: N_10  and  N_11
REMARK    4  A    between atoms: C_12  and  C_14
REMARK                            x       y       z     vdW  Elec       q    Type
REMARK                         _______ _______ _______ _____ _____    ______ ____
ROOT
ATOM      1  C   UNL     1       2.170   6.492  19.985  0.00  0.00    +0.000 C 
ATOM      2  O   UNL     1       2.379   7.300  19.081  0.00  0.00    +0.000 OA
ATOM      3  N   UNL     1       1.762   6.900  21.239  0.00  0.00    +0.000 N 
ATOM      4  H   UNL     1       1.334   6.278  21.921  0.00  0.00    +0.000 HD
ENDROOT
BRANCH   1  11
ATOM      5  C   UNL     1       4.817   5.063  19.141  0.00  0.00    +0.000 C 
ATOM      6  C   UNL     1       3.497   4.369  19.333  0.00  0.00    +0.000 A 
ATOM      7  C   UNL     1       3.446   2.987  19.054  0.00  0.00    +0.000 A 
ATOM      8  C   UNL     1       2.253   2.268  19.149  0.00  0.00    +0.000 A 
ATOM      9  C   UNL     1       1.088   2.915  19.535  0.00  0.00    +0.000 A 
ATOM     10  C   UNL     1       1.115   4.280  19.820  0.00  0.00    +0.000 A 
ATOM     11  C   UNL     1       2.310   5.023  19.730  0.00  0.00    +0.000 A 
ENDBRANCH   1  11
BRANCH   3  12
ATOM     12  N   UNL     1       1.560   8.276  21.454  0.00  0.00    +0.000 N 
ATOM     13  C   UNL     1       0.265   8.714  21.661  0.00  0.00    +0.000 C 
ATOM     14  O   UNL     1      -0.694   7.950  21.707  0.00  0.00    +0.000 OA
ATOM     15  H   UNL     1       2.318   8.890  21.153  0.00  0.00    +0.000 HD
BRANCH  13  16
ATOM     16  C   UNL     1       0.070  10.182  21.817  0.00  0.00    +0.000 A 
ATOM     17  C   UNL     1       0.788  11.043  20.975  0.00  0.00    +0.000 A 
ATOM     18  C   UNL     1       0.601  12.427  21.050  0.00  0.00    +0.000 A 
ATOM     19  C   UNL     1      -0.321  12.949  21.957  0.00  0.00    +0.000 A 
ATOM     20 BR   UNL     1      -0.590  14.818  22.044  0.00  0.00    +0.000 Br
ATOM     21  C   UNL     1      -1.051  12.103  22.790  0.00  0.00    +0.000 A 
ATOM     22  C   UNL     1      -0.856  10.717  22.724  0.00  0.00    +0.000 A 
ENDBRANCH  13  16
ENDBRANCH   3  12
TORSDOF 3
ENDMDL
MODEL 7
REMARK VINA RESULT:      -7.0      0.561      1.200
REMARK  Name = 
REMARK  4 active torsions:
REMARK  status: ('A' for Active; 'I' for Inactive)
REMARK    1  A    between atoms: C_1  and  C_2
REMARK    2  A    between atoms: C_7  and  C_8
REMARK    3  A    between atoms: N_10  and  N_11
REMARK    4  A    between atoms: C_12  and  C_14
REMARK                            x       y       z     vdW  Elec       q    Type
REMARK                         _______ _______ _______ _____ _____    ______ ____
ROOT
ATOM      1  C   UNL     1       4.282   5.836  18.459  0.00  0.00    +0.000 C 
ATOM      2  O   UNL     1       4.328   5.444  19.625  0.00  0.00    +0.000 OA
ATOM      3  N   UNL     1       3.431   6.851  18.071  0.00  0.00    +0.000 N 
ATOM      4  H   UNL     1       3.540   7.376  17.206  0.00  0.00    +0.000 HD
ENDROOT
BRANCH   1  11
ATOM      5  C   UNL     1       7.403   5.937  18.560  0.00  0.00    +0.000 C 
ATOM      6  C   UNL     1       6.605   5.299  17.456  0.00  0.00    +0.000 A 
ATOM      7  C   UNL     1       7.324   4.762  16.367  0.00  0.00    +0.000 A 
ATOM      8  C   UNL     1       6.668   4.199  15.270  0.00  0.00    +0.000 A 
ATOM      9  C   UNL     1       5.282   4.152  15.244  0.00  0.00    +0.000 A 
ATOM     10  C   UNL     1       4.552   4.674  16.313  0.00  0.00    +0.000 A 
ATOM     11  C   UNL     1       5.195   5.245  17.429  0.00  0.00    +0.000 A 
ENDBRANCH   1  11
BRANCH   3  12
ATOM     12  N   UNL     1       2.628   7.455  19.057  0.00  0.00    +0.000 N 
ATOM     13  C   UNL     1       1.923   8.592  18.708  0.00  0.00    +0.000 C 
ATOM     14  O   UNL     1       1.940   9.061  17.574  0.00  0.00    +0.000 OA
ATOM     15  H   UNL     1       2.842   7.202  20.022  0.00  0.00    +0.000 HD
BRANCH  13  16
ATOM     16  C   UNL     1       1.136   9.250  19.787  0.00  0.00    +0.000 A 
ATOM     17  C   UNL     1       0.657  10.549  19.566  0.00  0.00    +0.000 A 
ATOM     18  C   UNL     1      -0.129  11.189  20.530  0.00  0.00    +0.000 A 
ATOM     19  C   UNL     1      -0.453  10.520  21.709  0.00  0.00    +0.000 A 
ATOM     20 BR   UNL     1      -1.533  11.375  23.003  0.00  0.00    +0.000 Br
ATOM     21  C   UNL     1       0.005   9.222  21.935  0.00  0.00    +0.000 A 
ATOM     22  C   UNL     1       0.803   8.585  20.976  0.00  0.00    +0.000 A 
ENDBRANCH  13  16
ENDBRANCH   3  12
TORSDOF 3
ENDMDL
MODEL 8
REMARK VINA RESULT:      -6.9      3.322      8.300
REMARK  Name = 
REMARK  4 active torsions:
REMARK  status: ('A' for Active; 'I' for Inactive)
REMARK    1  A    between atoms: C_1  and  C_2
REMARK    2  A    between atoms: C_7  and  C_8
REMARK    3  A    between atoms: N_10  and  N_11
REMARK    4  A    between atoms: C_12  and  C_14
REMARK                            x       y       z     vdW  Elec       q    Type
REMARK                         _______ _______ _______ _____ _____    ______ ____
ROOT
ATOM      1  C   UNL     1       1.048   9.250  19.726  0.00  0.00    +0.000 C 
ATOM      2  O   UNL     1       1.295   9.959  18.750  0.00  0.00    +0.000 OA
ATOM      3  N   UNL     1       1.518   7.955  19.815  0.00  0.00    +0.000 N 
ATOM      4  H   UNL     1       1.565   7.434  20.687  0.00  0.00    +0.000 HD
ENDROOT
BRANCH   1  11
ATOM      5  C   UNL     1      -0.805  11.761  19.595  0.00  0.00    +0.000 C 
ATOM      6  C   UNL     1      -0.566  10.942  20.832  0.00  0.00    +0.000 A 
ATOM      7  C   UNL     1      -1.179  11.378  22.026  0.00  0.00    +0.000 A 
ATOM      8  C   UNL     1      -0.970  10.714  23.236  0.00  0.00    +0.000 A 
ATOM      9  C   UNL     1      -0.152   9.594  23.277  0.00  0.00    +0.000 A 
ATOM     10  C   UNL     1       0.461   9.143  22.108  0.00  0.00    +0.000 A 
ATOM     11  C   UNL     1       0.263   9.799  20.876  0.00  0.00    +0.000 A 
ENDBRANCH   1  11
BRANCH   3  12
ATOM     12  N   UNL     1       2.318   7.468  18.765  0.00  0.00    +0.000 N 
ATOM     13  C   UNL     1       2.943   6.247  18.943  0.00  0.00    +0.000 C 
ATOM     14  O   UNL     1       2.792   5.565  19.952  0.00  0.00    +0.000 OA
ATOM     15  H   UNL     1       2.624   8.159  18.080  0.00  0.00    +0.000 HD
BRANCH  13  16
ATOM     16  C   UNL     1       3.840   5.786  17.846  0.00  0.00    +0.000 A 
ATOM     17  C   UNL     1       3.907   4.413  17.573  0.00  0.00    +0.000 A 
ATOM     18  C   UNL     1       4.696   3.937  16.521  0.00  0.00    +0.000 A 
ATOM     19  C   UNL     1       5.403   4.840  15.727  0.00  0.00    +0.000 A 
ATOM     20 BR   UNL     1       6.452   4.201  14.291  0.00  0.00    +0.000 Br
ATOM     21  C   UNL     1       5.333   6.210  15.980  0.00  0.00    +0.000 A 
ATOM     22  C   UNL     1       4.553   6.686  17.041  0.00  0.00    +0.000 A 
ENDBRANCH  13  16
ENDBRANCH   3  12
TORSDOF 3
ENDMDL
MODEL 9
REMARK VINA RESULT:      -6.9      2.594      3.560
REMARK  Name = 
REMARK  4 active torsions:
REMARK  status: ('A' for Active; 'I' for Inactive)
REMARK    1  A    between atoms: C_1  and  C_2
REMARK    2  A    between atoms: C_7  and  C_8
REMARK    3  A    between atoms: N_10  and  N_11
REMARK    4  A    between atoms: C_12  and  C_14
REMARK                            x       y       z     vdW  Elec       q    Type
REMARK                         _______ _______ _______ _____ _____    ______ ____
ROOT
ATOM      1  C   UNL     1       1.768   5.371  20.120  0.00  0.00    +0.000 C 
ATOM      2  O   UNL     1       0.636   5.158  20.553  0.00  0.00    +0.000 OA
ATOM      3  N   UNL     1       2.392   6.591  20.297  0.00  0.00    +0.000 N 
ATOM      4  H   UNL     1       3.394   6.728  20.196  0.00  0.00    +0.000 HD
ENDROOT
BRANCH   1  11
ATOM      5  C   UNL     1       2.705   2.706  21.453  0.00  0.00    +0.000 C 
ATOM      6  C   UNL     1       2.968   3.082  20.021  0.00  0.00    +0.000 A 
ATOM      7  C   UNL     1       3.743   2.189  19.249  0.00  0.00    +0.000 A 
ATOM      8  C   UNL     1       4.086   2.479  17.928  0.00  0.00    +0.000 A 
ATOM      9  C   UNL     1       3.654   3.663  17.346  0.00  0.00    +0.000 A 
ATOM     10  C   UNL     1       2.884   4.558  18.089  0.00  0.00    +0.000 A 
ATOM     11  C   UNL     1       2.526   4.283  19.425  0.00  0.00    +0.000 A 
ENDBRANCH   1  11
BRANCH   3  12
ATOM     12  N   UNL     1       1.705   7.587  21.016  0.00  0.00    +0.000 N 
ATOM     13  C   UNL     1       1.271   8.700  20.320  0.00  0.00    +0.000 C 
ATOM     14  O   UNL     1       1.422   8.827  19.110  0.00  0.00    +0.000 OA
ATOM     15  H   UNL     1       1.830   7.572  22.028  0.00  0.00    +0.000 HD
BRANCH  13  16
ATOM     16  C   UNL     1       0.608   9.771  21.116  0.00  0.00    +0.000 A 
ATOM     17  C   UNL     1       0.681  11.090  20.649  0.00  0.00    +0.000 A 
ATOM     18  C   UNL     1       0.032  12.122  21.335  0.00  0.00    +0.000 A 
ATOM     19  C   UNL     1      -0.708  11.829  22.480  0.00  0.00    +0.000 A 
ATOM     20 BR   UNL     1      -1.603  13.219  23.396  0.00  0.00    +0.000 Br
ATOM     21  C   UNL     1      -0.800  10.518  22.947  0.00  0.00    +0.000 A 
ATOM     22  C   UNL     1      -0.141   9.486  22.268  0.00  0.00    +0.000 A 
ENDBRANCH  13  16
ENDBRANCH   3  12
TORSDOF 3
ENDMDL
