MODEL 1
REMARK VINA RESULT:      -8.1      0.000      0.000
REMARK  Name = 
REMARK  7 active torsions:
REMARK  status: ('A' for Active; 'I' for Inactive)
REMARK    1  A    between atoms: C_1  and  C_2
REMARK    2  A    between atoms: C_2  and  C_3
REMARK    3  A    between atoms: C_2  and  C_4
REMARK    4  A    between atoms: N_10  and  C_11
REMARK    5  A    between atoms: C_15  and  C_16
REMARK    6  A    between atoms: N_18  and  C_19
REMARK    7  A    between atoms: C_22  and  C_23
REMARK                            x       y       z     vdW  Elec       q    Type
REMARK                         _______ _______ _______ _____ _____    ______ ____
ROOT
ATOM      1  C   UNL     1       2.301   3.935  19.189  0.00  0.00    +0.000 A 
ATOM      2  S   UNL     1       3.389   3.177  18.108  0.00  0.00    +0.000 S 
ATOM      3  C   UNL     1       4.244   4.651  17.845  0.00  0.00    +0.000 A 
ATOM      4  N   UNL     1       5.269   4.763  16.954  0.00  0.00    +0.000 N 
ATOM      5  C   UNL     1       6.057   6.003  16.903  0.00  0.00    +0.000 C 
ATOM      6  C   UNL     1       6.539   6.263  15.453  0.00  0.00    +0.000 C 
ATOM      7  N   UNL     1       7.266   5.115  14.861  0.00  0.00    +0.000 NA
ATOM      8  C   UNL     1       7.611   5.385  13.467  0.00  0.00    +0.000 C 
ATOM      9  C   UNL     1       6.425   3.902  14.952  0.00  0.00    +0.000 C 
ATOM     10  C   UNL     1       5.975   3.600  16.399  0.00  0.00    +0.000 C 
ATOM     11  N   UNL     1       3.758   5.659  18.540  0.00  0.00    +0.000 NA
ATOM     12  C   UNL     1       2.674   5.268  19.344  0.00  0.00    +0.000 A 
ENDROOT
BRANCH  12  13
ATOM     13  C   UNL     1       2.007   6.253  20.209  0.00  0.00    +0.000 C 
ATOM     14  O   UNL     1       1.401   5.935  21.228  0.00  0.00    +0.000 OA
ATOM     15  N   UNL     1       2.074   7.547  19.714  0.00  0.00    +0.000 N 
ATOM     16  H   UNL     1       2.340   7.616  18.734  0.00  0.00    +0.000 HD
BRANCH  15  17
ATOM     17  C   UNL     1       1.414   8.640  20.316  0.00  0.00    +0.000 A 
ATOM     18  C   UNL     1       1.316   8.739  21.709  0.00  0.00    +0.000 A 
ATOM     19  C   UNL     1       0.632   9.803  22.304  0.00  0.00    +0.000 A 
ATOM     20  C   UNL     1       0.014  10.780  21.515  0.00  0.00    +0.000 A 
ATOM     21  C   UNL     1       0.125  10.691  20.117  0.00  0.00    +0.000 A 
ATOM     22  C   UNL     1       0.839   9.642  19.525  0.00  0.00    +0.000 A 
ATOM     23 CL   UNL     1       0.897   9.563  17.799  0.00  0.00    +0.000 Cl
BRANCH  20  24
ATOM     24  C   UNL     1      -0.767  11.908  22.139  0.00  0.00    +0.000 C 
ATOM     25  F   UNL     1      -1.884  12.255  21.437  0.00  0.00    +0.000 F 
ATOM     26  F   UNL     1      -1.200  11.606  23.397  0.00  0.00    +0.000 F 
ATOM     27  F   UNL     1      -0.034  13.045  22.259  0.00  0.00    +0.000 F 
ENDBRANCH  20  24
ENDBRANCH  15  17
ENDBRANCH  12  13
BRANCH   1  29
ATOM     28  C   UNL     1       0.644   2.080  18.788  0.00  0.00    +0.000 C 
ATOM     29  C   UNL     1       1.132   3.155  19.768  0.00  0.00    +0.000 C 
ATOM     30  C   UNL     1       1.449   2.542  21.136  0.00  0.00    +0.000 C 
ENDBRANCH   1  29
TORSDOF 4
ENDMDL
MODEL 2
REMARK VINA RESULT:      -8.0      0.861      1.208
REMARK  Name = 
REMARK  7 active torsions:
REMARK  status: ('A' for Active; 'I' for Inactive)
REMARK    1  A    between atoms: C_1  and  C_2
REMARK    2  A    between atoms: C_2  and  C_3
REMARK    3  A    between atoms: C_2  and  C_4
REMARK    4  A    between atoms: N_10  and  C_11
REMARK    5  A    between atoms: C_15  and  C_16
REMARK    6  A    between atoms: N_18  and  C_19
REMARK    7  A    between atoms: C_22  and  C_23
REMARK                            x       y       z     vdW  Elec       q    Type
REMARK                         _______ _______ _______ _____ _____    ______ ____
ROOT
ATOM      1  C   UNL     1       2.984   4.131  20.241  0.00  0.00    +0.000 A 
ATOM      2  S   UNL     1       4.314   3.514  19.359  0.00  0.00    +0.000 S 
ATOM      3  C   UNL     1       4.486   4.986  18.477  0.00  0.00    +0.000 A 
ATOM      4  N   UNL     1       5.392   5.145  17.472  0.00  0.00    +0.000 N 
ATOM      5  C   UNL     1       5.594   6.473  16.878  0.00  0.00    +0.000 C 
ATOM      6  C   UNL     1       5.959   6.332  15.378  0.00  0.00    +0.000 C 
ATOM      7  N   UNL     1       7.111   5.431  15.137  0.00  0.00    +0.000 NA
ATOM      8  C   UNL     1       7.346   5.265  13.703  0.00  0.00    +0.000 C 
ATOM      9  C   UNL     1       6.847   4.119  15.765  0.00  0.00    +0.000 C 
ATOM     10  C   UNL     1       6.530   4.237  17.272  0.00  0.00    +0.000 C 
ATOM     11  N   UNL     1       3.609   5.902  18.830  0.00  0.00    +0.000 NA
ATOM     12  C   UNL     1       2.766   5.453  19.862  0.00  0.00    +0.000 A 
ENDROOT
BRANCH  12  13
ATOM     13  C   UNL     1       1.730   6.344  20.405  0.00  0.00    +0.000 C 
ATOM     14  O   UNL     1       0.587   5.962  20.641  0.00  0.00    +0.000 OA
ATOM     15  N   UNL     1       2.158   7.656  20.549  0.00  0.00    +0.000 N 
ATOM     16  H   UNL     1       3.013   7.884  20.045  0.00  0.00    +0.000 HD
BRANCH  15  17
ATOM     17  C   UNL     1       1.306   8.707  20.949  0.00  0.00    +0.000 A 
ATOM     18  C   UNL     1       0.978   8.891  22.298  0.00  0.00    +0.000 A 
ATOM     19  C   UNL     1       0.107   9.911  22.689  0.00  0.00    +0.000 A 
ATOM     20  C   UNL     1      -0.472  10.757  21.735  0.00  0.00    +0.000 A 
ATOM     21  C   UNL     1      -0.131  10.584  20.382  0.00  0.00    +0.000 A 
ATOM     22  C   UNL     1       0.769   9.583  19.997  0.00  0.00    +0.000 A 
ATOM     23 CL   UNL     1       1.109   9.391  18.313  0.00  0.00    +0.000 Cl
BRANCH  20  24
ATOM     24  C   UNL     1      -1.450  11.832  22.135  0.00  0.00    +0.000 C 
ATOM     25  F   UNL     1      -0.856  12.965  22.606  0.00  0.00    +0.000 F 
ATOM     26  F   UNL     1      -2.236  12.231  21.093  0.00  0.00    +0.000 F 
ATOM     27  F   UNL     1      -2.303  11.423  23.110  0.00  0.00    +0.000 F 
ENDBRANCH  20  24
ENDBRANCH  15  17
ENDBRANCH  12  13
BRANCH   1  29
ATOM     28  C   UNL     1       0.904   2.759  20.611  0.00  0.00    +0.000 C 
ATOM     29  C   UNL     1       2.232   3.237  21.213  0.00  0.00    +0.000 C 
ATOM     30  C   UNL     1       3.071   2.050  21.698  0.00  0.00    +0.000 C 
ENDBRANCH   1  29
TORSDOF 4
ENDMDL
MODEL 3
REMARK VINA RESULT:      -7.7      5.432      8.584
REMARK  Name = 
REMARK  7 active torsions:
REMARK  status: ('A' for Active; 'I' for Inactive)
REMARK    1  A    between atoms: C_1  and  C_2
REMARK    2  A    between atoms: C_2  and  C_3
REMARK    3  A    between atoms: C_2  and  C_4
REMARK    4  A    between atoms: N_10  and  C_11
REMARK    5  A    between atoms: C_15  and  C_16
REMARK    6  A    between atoms: N_18  and  C_19
REMARK    7  A    between atoms: C_22  and  C_23
REMARK                            x       y       z     vdW  Elec       q    Type
REMARK                         _______ _______ _______ _____ _____    ______ ____
ROOT
ATOM      1  C   UNL     1       0.341  11.255  20.989  0.00  0.00    +0.000 A 
ATOM      2  S   UNL     1       0.658  12.926  21.167  0.00  0.00    +0.000 S 
ATOM      3  C   UNL     1       1.725  12.927  19.812  0.00  0.00    +0.000 A 
ATOM      4  N   UNL     1       2.434  14.025  19.429  0.00  0.00    +0.000 N 
ATOM      5  C   UNL     1       3.195  13.999  18.173  0.00  0.00    +0.000 C 
ATOM      6  C   UNL     1       4.465  14.877  18.305  0.00  0.00    +0.000 C 
ATOM      7  N   UNL     1       4.178  16.260  18.754  0.00  0.00    +0.000 NA
ATOM      8  C   UNL     1       5.419  17.008  18.950  0.00  0.00    +0.000 C 
ATOM      9  C   UNL     1       3.406  16.216  20.015  0.00  0.00    +0.000 C 
ATOM     10  C   UNL     1       2.111  15.384  19.887  0.00  0.00    +0.000 C 
ATOM     11  N   UNL     1       1.831  11.745  19.241  0.00  0.00    +0.000 NA
ATOM     12  C   UNL     1       1.021  10.783  19.869  0.00  0.00    +0.000 A 
ENDROOT
BRANCH  12  13
ATOM     13  C   UNL     1       0.990   9.403  19.361  0.00  0.00    +0.000 C 
ATOM     14  O   UNL     1       0.209   9.038  18.487  0.00  0.00    +0.000 OA
ATOM     15  N   UNL     1       1.873   8.560  20.019  0.00  0.00    +0.000 N 
ATOM     16  H   UNL     1       2.231   8.920  20.901  0.00  0.00    +0.000 HD
BRANCH  15  17
ATOM     17  C   UNL     1       1.940   7.171  19.776  0.00  0.00    +0.000 A 
ATOM     18  C   UNL     1       1.374   6.258  20.674  0.00  0.00    +0.000 A 
ATOM     19  C   UNL     1       1.472   4.882  20.451  0.00  0.00    +0.000 A 
ATOM     20  C   UNL     1       2.156   4.390  19.333  0.00  0.00    +0.000 A 
ATOM     21  C   UNL     1       2.711   5.305  18.423  0.00  0.00    +0.000 A 
ATOM     22  C   UNL     1       2.583   6.684  18.631  0.00  0.00    +0.000 A 
ATOM     23 CL   UNL     1       3.330   7.756  17.500  0.00  0.00    +0.000 Cl
BRANCH  20  24
ATOM     24  C   UNL     1       2.311   2.908  19.102  0.00  0.00    +0.000 C 
ATOM     25  F   UNL     1       1.837   2.489  17.894  0.00  0.00    +0.000 F 
ATOM     26  F   UNL     1       3.616   2.510  19.145  0.00  0.00    +0.000 F 
ATOM     27  F   UNL     1       1.664   2.165  20.036  0.00  0.00    +0.000 F 
ENDBRANCH  20  24
ENDBRANCH  15  17
ENDBRANCH  12  13
BRANCH   1  29
ATOM     28  C   UNL     1       0.319   9.637  22.920  0.00  0.00    +0.000 C 
ATOM     29  C   UNL     1      -0.528  10.530  22.004  0.00  0.00    +0.000 C 
ATOM     30  C   UNL     1      -1.400  11.484  22.826  0.00  0.00    +0.000 C 
ENDBRANCH   1  29
TORSDOF 4
ENDMDL
MODEL 4
REMARK VINA RESULT:      -7.6      5.887     11.178
REMARK  Name = 
REMARK  7 active torsions:
REMARK  status: ('A' for Active; 'I' for Inactive)
REMARK    1  A    between atoms: C_1  and  C_2
REMARK    2  A    between atoms: C_2  and  C_3
REMARK    3  A    between atoms: C_2  and  C_4
REMARK    4  A    between atoms: N_10  and  C_11
REMARK    5  A    between atoms: C_15  and  C_16
REMARK    6  A    between atoms: N_18  and  C_19
REMARK    7  A    between atoms: C_22  and  C_23
REMARK                            x       y       z     vdW  Elec       q    Type
REMARK                         _______ _______ _______ _____ _____    ______ ____
ROOT
ATOM      1  C   UNL     1      -0.596  14.368  20.374  0.00  0.00    +0.000 A 
ATOM      2  S   UNL     1      -1.925  15.274  20.957  0.00  0.00    +0.000 S 
ATOM      3  C   UNL     1      -2.456  13.965  21.948  0.00  0.00    +0.000 A 
ATOM      4  N   UNL     1      -3.605  14.009  22.679  0.00  0.00    +0.000 N 
ATOM      5  C   UNL     1      -3.908  12.926  23.624  0.00  0.00    +0.000 C 
ATOM      6  C   UNL     1      -5.441  12.713  23.710  0.00  0.00    +0.000 C 
ATOM      7  N   UNL     1      -6.189  13.953  24.024  0.00  0.00    +0.000 NA
ATOM      8  C   UNL     1      -7.630  13.708  23.998  0.00  0.00    +0.000 C 
ATOM      9  C   UNL     1      -5.833  15.002  23.043  0.00  0.00    +0.000 C 
ATOM     10  C   UNL     1      -4.312  15.262  22.979  0.00  0.00    +0.000 C 
ATOM     11  N   UNL     1      -1.674  12.908  21.866  0.00  0.00    +0.000 NA
ATOM     12  C   UNL     1      -0.584  13.126  21.005  0.00  0.00    +0.000 A 
ENDROOT
BRANCH  12  13
ATOM     13  C   UNL     1       0.412  12.064  20.797  0.00  0.00    +0.000 C 
ATOM     14  O   UNL     1       1.562  12.146  21.219  0.00  0.00    +0.000 OA
ATOM     15  N   UNL     1      -0.063  11.015  20.023  0.00  0.00    +0.000 N 
ATOM     16  H   UNL     1      -0.915  11.218  19.505  0.00  0.00    +0.000 HD
BRANCH  15  17
ATOM     17  C   UNL     1       0.747   9.938  19.603  0.00  0.00    +0.000 A 
ATOM     18  C   UNL     1       1.249   9.886  18.297  0.00  0.00    +0.000 A 
ATOM     19  C   UNL     1       2.021   8.802  17.871  0.00  0.00    +0.000 A 
ATOM     20  C   UNL     1       2.291   7.737  18.739  0.00  0.00    +0.000 A 
ATOM     21  C   UNL     1       1.801   7.795  20.055  0.00  0.00    +0.000 A 
ATOM     22  C   UNL     1       1.056   8.899  20.488  0.00  0.00    +0.000 A 
ATOM     23 CL   UNL     1       0.441   8.888  22.104  0.00  0.00    +0.000 Cl
BRANCH  20  24
ATOM     24  C   UNL     1       3.082   6.538  18.282  0.00  0.00    +0.000 C 
ATOM     25  F   UNL     1       3.855   5.986  19.260  0.00  0.00    +0.000 F 
ATOM     26  F   UNL     1       2.282   5.529  17.830  0.00  0.00    +0.000 F 
ATOM     27  F   UNL     1       3.927   6.831  17.259  0.00  0.00    +0.000 F 
ENDBRANCH  20  24
ENDBRANCH  15  17
ENDBRANCH  12  13
BRANCH   1  29
ATOM     28  C   UNL     1      -0.365  16.119  18.578  0.00  0.00    +0.000 C 
ATOM     29  C   UNL     1       0.312  14.947  19.302  0.00  0.00    +0.000 C 
ATOM     30  C   UNL     1       1.683  15.362  19.846  0.00  0.00    +0.000 C 
ENDBRANCH   1  29
TORSDOF 4
ENDMDL
MODEL 5
REMARK VINA RESULT:      -7.6      5.912     11.148
REMARK  Name = 
REMARK  7 active torsions:
REMARK  status: ('A' for Active; 'I' for Inactive)
REMARK    1  A    between atoms: C_1  and  C_2
REMARK    2  A    between atoms: C_2  and  C_3
REMARK    3  A    between atoms: C_2  and  C_4
REMARK    4  A    between atoms: N_10  and  C_11
REMARK    5  A    between atoms: C_15  and  C_16
REMARK    6  A    between atoms: N_18  and  C_19
REMARK    7  A    between atoms: C_22  and  C_23
REMARK                            x       y       z     vdW  Elec       q    Type
REMARK                         _______ _______ _______ _____ _____    ______ ____
ROOT
ATOM      1  C   UNL     1      -1.005  13.903  19.810  0.00  0.00    +0.000 A 
ATOM      2  S   UNL     1      -1.912  14.976  20.785  0.00  0.00    +0.000 S 
ATOM      3  C   UNL     1      -2.855  13.684  21.430  0.00  0.00    +0.000 A 
ATOM      4  N   UNL     1      -3.899  13.884  22.283  0.00  0.00    +0.000 N 
ATOM      5  C   UNL     1      -4.551  12.731  22.919  0.00  0.00    +0.000 C 
ATOM      6  C   UNL     1      -6.056  13.027  23.134  0.00  0.00    +0.000 C 
ATOM      7  N   UNL     1      -6.307  14.287  23.873  0.00  0.00    +0.000 NA
ATOM      8  C   UNL     1      -7.741  14.558  23.962  0.00  0.00    +0.000 C 
ATOM      9  C   UNL     1      -5.619  15.403  23.188  0.00  0.00    +0.000 C 
ATOM     10  C   UNL     1      -4.107  15.146  23.008  0.00  0.00    +0.000 C 
ATOM     11  N   UNL     1      -2.504  12.506  20.958  0.00  0.00    +0.000 NA
ATOM     12  C   UNL     1      -1.425  12.599  20.062  0.00  0.00    +0.000 A 
ENDROOT
BRANCH  12  13
ATOM     13  C   UNL     1      -0.877  11.383  19.442  0.00  0.00    +0.000 C 
ATOM     14  O   UNL     1      -1.536  10.671  18.690  0.00  0.00    +0.000 OA
ATOM     15  N   UNL     1       0.416  11.096  19.854  0.00  0.00    +0.000 N 
ATOM     16  H   UNL     1       0.719  11.593  20.688  0.00  0.00    +0.000 HD
BRANCH  15  17
ATOM     17  C   UNL     1       1.104   9.923  19.475  0.00  0.00    +0.000 A 
ATOM     18  C   UNL     1       1.657   9.797  18.195  0.00  0.00    +0.000 A 
ATOM     19  C   UNL     1       2.307   8.621  17.810  0.00  0.00    +0.000 A 
ATOM     20  C   UNL     1       2.401   7.539  18.693  0.00  0.00    +0.000 A 
ATOM     21  C   UNL     1       1.861   7.670  19.984  0.00  0.00    +0.000 A 
ATOM     22  C   UNL     1       1.239   8.861  20.378  0.00  0.00    +0.000 A 
ATOM     23 CL   UNL     1       0.553   8.940  21.962  0.00  0.00    +0.000 Cl
BRANCH  20  24
ATOM     24  C   UNL     1       3.058   6.247  18.277  0.00  0.00    +0.000 C 
ATOM     25  F   UNL     1       2.175   5.241  18.018  0.00  0.00    +0.000 F 
ATOM     26  F   UNL     1       3.804   6.386  17.143  0.00  0.00    +0.000 F 
ATOM     27  F   UNL     1       3.905   5.766  19.224  0.00  0.00    +0.000 F 
ENDBRANCH  20  24
ENDBRANCH  15  17
ENDBRANCH  12  13
BRANCH   1  29
ATOM     28  C   UNL     1      -0.260  15.907  18.479  0.00  0.00    +0.000 C 
ATOM     29  C   UNL     1       0.029  14.444  18.836  0.00  0.00    +0.000 C 
ATOM     30  C   UNL     1       1.465  14.280  19.344  0.00  0.00    +0.000 C 
ENDBRANCH   1  29
TORSDOF 4
ENDMDL
MODEL 6
REMARK VINA RESULT:      -7.5      5.730      8.972
REMARK  Name = 
REMARK  7 active torsions:
REMARK  status: ('A' for Active; 'I' for Inactive)
REMARK    1  A    between atoms: C_1  and  C_2
REMARK    2  A    between atoms: C_2  and  C_3
REMARK    3  A    between atoms: C_2  and  C_4
REMARK    4  A    between atoms: N_10  and  C_11
REMARK    5  A    between atoms: C_15  and  C_16
REMARK    6  A    between atoms: N_18  and  C_19
REMARK    7  A    between atoms: C_22  and  C_23
REMARK                            x       y       z     vdW  Elec       q    Type
REMARK                         _______ _______ _______ _____ _____    ______ ____
ROOT
ATOM      1  C   UNL     1      -0.495  12.401  19.114  0.00  0.00    +0.000 A 
ATOM      2  S   UNL     1      -0.127  14.069  19.210  0.00  0.00    +0.000 S 
ATOM      3  C   UNL     1       1.519  13.790  18.777  0.00  0.00    +0.000 A 
ATOM      4  N   UNL     1       2.453  14.781  18.744  0.00  0.00    +0.000 N 
ATOM      5  C   UNL     1       3.793  14.501  18.209  0.00  0.00    +0.000 C 
ATOM      6  C   UNL     1       4.848  15.361  18.949  0.00  0.00    +0.000 C 
ATOM      7  N   UNL     1       4.536  16.810  18.940  0.00  0.00    +0.000 NA
ATOM      8  C   UNL     1       5.514  17.555  19.730  0.00  0.00    +0.000 C 
ATOM      9  C   UNL     1       3.176  17.021  19.481  0.00  0.00    +0.000 C 
ATOM     10  C   UNL     1       2.104  16.208  18.724  0.00  0.00    +0.000 C 
ATOM     11  N   UNL     1       1.783  12.520  18.553  0.00  0.00    +0.000 NA
ATOM     12  C   UNL     1       0.642  11.712  18.700  0.00  0.00    +0.000 A 
ENDROOT
BRANCH  12  13
ATOM     13  C   UNL     1       0.734  10.261  18.473  0.00  0.00    +0.000 C 
ATOM     14  O   UNL     1      -0.078   9.647  17.787  0.00  0.00    +0.000 OA
ATOM     15  N   UNL     1       1.777   9.666  19.168  0.00  0.00    +0.000 N 
ATOM     16  H   UNL     1       2.173  10.233  19.914  0.00  0.00    +0.000 HD
BRANCH  15  17
ATOM     17  C   UNL     1       1.993   8.271  19.189  0.00  0.00    +0.000 A 
ATOM     18  C   UNL     1       2.486   7.605  18.060  0.00  0.00    +0.000 A 
ATOM     19  C   UNL     1       2.667   6.219  18.071  0.00  0.00    +0.000 A 
ATOM     20  C   UNL     1       2.339   5.468  19.205  0.00  0.00    +0.000 A 
ATOM     21  C   UNL     1       1.860   6.137  20.345  0.00  0.00    +0.000 A 
ATOM     22  C   UNL     1       1.711   7.529  20.343  0.00  0.00    +0.000 A 
ATOM     23 CL   UNL     1       1.071   8.286  21.758  0.00  0.00    +0.000 Cl
BRANCH  20  24
ATOM     24  C   UNL     1       2.484   3.968  19.218  0.00  0.00    +0.000 C 
ATOM     25  F   UNL     1       1.350   3.304  18.851  0.00  0.00    +0.000 F 
ATOM     26  F   UNL     1       3.458   3.533  18.366  0.00  0.00    +0.000 F 
ATOM     27  F   UNL     1       2.819   3.486  20.443  0.00  0.00    +0.000 F 
ENDBRANCH  20  24
ENDBRANCH  15  17
ENDBRANCH  12  13
BRANCH   1  29
ATOM     28  C   UNL     1      -2.544  12.839  20.513  0.00  0.00    +0.000 C 
ATOM     29  C   UNL     1      -1.878  11.901  19.498  0.00  0.00    +0.000 C 
ATOM     30  C   UNL     1      -2.786  11.678  18.284  0.00  0.00    +0.000 C 
ENDBRANCH   1  29
TORSDOF 4
ENDMDL
MODEL 7
REMARK VINA RESULT:      -7.4      5.461     10.577
REMARK  Name = 
REMARK  7 active torsions:
REMARK  status: ('A' for Active; 'I' for Inactive)
REMARK    1  A    between atoms: C_1  and  C_2
REMARK    2  A    between atoms: C_2  and  C_3
REMARK    3  A    between atoms: C_2  and  C_4
REMARK    4  A    between atoms: N_10  and  C_11
REMARK    5  A    between atoms: C_15  and  C_16
REMARK    6  A    between atoms: N_18  and  C_19
REMARK    7  A    between atoms: C_22  and  C_23
REMARK                            x       y       z     vdW  Elec       q    Type
REMARK                         _______ _______ _______ _____ _____    ______ ____
ROOT
ATOM      1  C   UNL     1       0.563  12.782  20.844  0.00  0.00    +0.000 A 
ATOM      2  S   UNL     1      -0.121  14.026  21.798  0.00  0.00    +0.000 S 
ATOM      3  C   UNL     1      -1.551  13.103  22.078  0.00  0.00    +0.000 A 
ATOM      4  N   UNL     1      -2.625  13.590  22.761  0.00  0.00    +0.000 N 
ATOM      5  C   UNL     1      -3.738  12.695  23.102  0.00  0.00    +0.000 C 
ATOM      6  C   UNL     1      -5.071  13.485  23.101  0.00  0.00    +0.000 C 
ATOM      7  N   UNL     1      -5.040  14.690  23.964  0.00  0.00    +0.000 NA
ATOM      8  C   UNL     1      -6.289  15.441  23.848  0.00  0.00    +0.000 C 
ATOM      9  C   UNL     1      -3.896  15.541  23.575  0.00  0.00    +0.000 C 
ATOM     10  C   UNL     1      -2.551  14.783  23.618  0.00  0.00    +0.000 C 
ATOM     11  N   UNL     1      -1.519  11.918  21.505  0.00  0.00    +0.000 NA
ATOM     12  C   UNL     1      -0.307  11.695  20.827  0.00  0.00    +0.000 A 
ENDROOT
BRANCH  12  13
ATOM     13  C   UNL     1      -0.076  10.417  20.137  0.00  0.00    +0.000 C 
ATOM     14  O   UNL     1      -0.884   9.936  19.349  0.00  0.00    +0.000 OA
ATOM     15  N   UNL     1       1.101   9.792  20.526  0.00  0.00    +0.000 N 
ATOM     16  H   UNL     1       1.510  10.151  21.386  0.00  0.00    +0.000 HD
BRANCH  15  17
ATOM     17  C   UNL     1       1.477   8.507  20.079  0.00  0.00    +0.000 A 
ATOM     18  C   UNL     1       1.369   7.395  20.923  0.00  0.00    +0.000 A 
ATOM     19  C   UNL     1       1.775   6.129  20.492  0.00  0.00    +0.000 A 
ATOM     20  C   UNL     1       2.316   5.954  19.212  0.00  0.00    +0.000 A 
ATOM     21  C   UNL     1       2.409   7.066  18.359  0.00  0.00    +0.000 A 
ATOM     22  C   UNL     1       1.971   8.327  18.782  0.00  0.00    +0.000 A 
ATOM     23 CL   UNL     1       2.159   9.663  17.702  0.00  0.00    +0.000 Cl
BRANCH  20  24
ATOM     24  C   UNL     1       2.801   4.604  18.748  0.00  0.00    +0.000 C 
ATOM     25  F   UNL     1       3.464   4.640  17.557  0.00  0.00    +0.000 F 
ATOM     26  F   UNL     1       3.666   4.031  19.635  0.00  0.00    +0.000 F 
ATOM     27  F   UNL     1       1.788   3.714  18.586  0.00  0.00    +0.000 F 
ENDBRANCH  20  24
ENDBRANCH  15  17
ENDBRANCH  12  13
BRANCH   1  29
ATOM     28  C   UNL     1       1.699  13.349  18.668  0.00  0.00    +0.000 C 
ATOM     29  C   UNL     1       1.897  12.999  20.149  0.00  0.00    +0.000 C 
ATOM     30  C   UNL     1       2.765  14.052  20.846  0.00  0.00    +0.000 C 
ENDBRANCH   1  29
TORSDOF 4
ENDMDL
MODEL 8
REMARK VINA RESULT:      -7.4      5.341     10.414
REMARK  Name = 
REMARK  7 active torsions:
REMARK  status: ('A' for Active; 'I' for Inactive)
REMARK    1  A    between atoms: C_1  and  C_2
REMARK    2  A    between atoms: C_2  and  C_3
REMARK    3  A    between atoms: C_2  and  C_4
REMARK    4  A    between atoms: N_10  and  C_11
REMARK    5  A    between atoms: C_15  and  C_16
REMARK    6  A    between atoms: N_18  and  C_19
REMARK    7  A    between atoms: C_22  and  C_23
REMARK                            x       y       z     vdW  Elec       q    Type
REMARK                         _______ _______ _______ _____ _____    ______ ____
ROOT
ATOM      1  C   UNL     1       0.688  12.565  20.910  0.00  0.00    +0.000 A 
ATOM      2  S   UNL     1      -0.359  13.866  21.279  0.00  0.00    +0.000 S 
ATOM      3  C   UNL     1      -1.376  12.853  22.235  0.00  0.00    +0.000 A 
ATOM      4  N   UNL     1      -2.533  13.291  22.804  0.00  0.00    +0.000 N 
ATOM      5  C   UNL     1      -3.261  12.420  23.738  0.00  0.00    +0.000 C 
ATOM      6  C   UNL     1      -4.784  12.681  23.626  0.00  0.00    +0.000 C 
ATOM      7  N   UNL     1      -5.149  14.108  23.794  0.00  0.00    +0.000 NA
ATOM      8  C   UNL     1      -6.583  14.302  23.585  0.00  0.00    +0.000 C 
ATOM      9  C   UNL     1      -4.379  14.927  22.834  0.00  0.00    +0.000 C 
ATOM     10  C   UNL     1      -2.855  14.716  22.964  0.00  0.00    +0.000 C 
ATOM     11  N   UNL     1      -0.950  11.608  22.294  0.00  0.00    +0.000 NA
ATOM     12  C   UNL     1       0.247  11.427  21.579  0.00  0.00    +0.000 A 
ENDROOT
BRANCH  12  13
ATOM     13  C   UNL     1       0.888  10.104  21.543  0.00  0.00    +0.000 C 
ATOM     14  O   UNL     1       1.543   9.661  22.483  0.00  0.00    +0.000 OA
ATOM     15  N   UNL     1       0.737   9.457  20.325  0.00  0.00    +0.000 N 
ATOM     16  H   UNL     1       0.436  10.055  19.558  0.00  0.00    +0.000 HD
BRANCH  15  17
ATOM     17  C   UNL     1       1.357   8.226  20.022  0.00  0.00    +0.000 A 
ATOM     18  C   UNL     1       1.262   7.140  20.901  0.00  0.00    +0.000 A 
ATOM     19  C   UNL     1       1.906   5.932  20.616  0.00  0.00    +0.000 A 
ATOM     20  C   UNL     1       2.675   5.793  19.455  0.00  0.00    +0.000 A 
ATOM     21  C   UNL     1       2.758   6.877  18.564  0.00  0.00    +0.000 A 
ATOM     22  C   UNL     1       2.085   8.075  18.835  0.00  0.00    +0.000 A 
ATOM     23 CL   UNL     1       2.266   9.386  17.724  0.00  0.00    +0.000 Cl
BRANCH  20  24
ATOM     24  C   UNL     1       3.414   4.514  19.156  0.00  0.00    +0.000 C 
ATOM     25  F   UNL     1       4.771   4.640  19.205  0.00  0.00    +0.000 F 
ATOM     26  F   UNL     1       3.103   3.518  20.035  0.00  0.00    +0.000 F 
ATOM     27  F   UNL     1       3.129   4.023  17.922  0.00  0.00    +0.000 F 
ENDBRANCH  20  24
ENDBRANCH  15  17
ENDBRANCH  12  13
BRANCH   1  29
ATOM     28  C   UNL     1       1.346  12.965  18.511  0.00  0.00    +0.000 C 
ATOM     29  C   UNL     1       1.847  12.767  19.948  0.00  0.00    +0.000 C 
ATOM     30  C   UNL     1       2.772  13.915  20.366  0.00  0.00    +0.000 C 
ENDBRANCH   1  29
TORSDOF 4
ENDMDL
MODEL 9
REMARK VINA RESULT:      -7.4      5.587     10.259
REMARK  Name = 
REMARK  7 active torsions:
REMARK  status: ('A' for Active; 'I' for Inactive)
REMARK    1  A    between atoms: C_1  and  C_2
REMARK    2  A    between atoms: C_2  and  C_3
REMARK    3  A    between atoms: C_2  and  C_4
REMARK    4  A    between atoms: N_10  and  C_11
REMARK    5  A    between atoms: C_15  and  C_16
REMARK    6  A    between atoms: N_18  and  C_19
REMARK    7  A    between atoms: C_22  and  C_23
REMARK                            x       y       z     vdW  Elec       q    Type
REMARK                         _______ _______ _______ _____ _____    ______ ____
ROOT
ATOM      1  C   UNL     1      -3.250  11.551  18.819  0.00  0.00    +0.000 A 
ATOM      2  S   UNL     1      -3.932  12.794  19.776  0.00  0.00    +0.000 S 
ATOM      3  C   UNL     1      -2.464  12.999  20.658  0.00  0.00    +0.000 A 
ATOM      4  N   UNL     1      -2.346  13.856  21.711  0.00  0.00    +0.000 N 
ATOM      5  C   UNL     1      -1.026  14.099  22.308  0.00  0.00    +0.000 C 
ATOM      6  C   UNL     1      -1.175  14.372  23.826  0.00  0.00    +0.000 C 
ATOM      7  N   UNL     1      -2.136  15.457  24.136  0.00  0.00    +0.000 NA
ATOM      8  C   UNL     1      -2.302  15.603  25.582  0.00  0.00    +0.000 C 
ATOM      9  C   UNL     1      -3.437  15.155  23.502  0.00  0.00    +0.000 C 
ATOM     10  C   UNL     1      -3.315  14.928  21.979  0.00  0.00    +0.000 C 
ATOM     11  N   UNL     1      -1.503  12.196  20.251  0.00  0.00    +0.000 NA
ATOM     12  C   UNL     1      -1.914  11.387  19.177  0.00  0.00    +0.000 A 
ENDROOT
BRANCH  12  13
ATOM     13  C   UNL     1      -0.971  10.434  18.572  0.00  0.00    +0.000 C 
ATOM     14  O   UNL     1      -1.191   9.878  17.499  0.00  0.00    +0.000 OA
ATOM     15  N   UNL     1       0.136  10.182  19.368  0.00  0.00    +0.000 N 
ATOM     16  H   UNL     1       0.040  10.474  20.338  0.00  0.00    +0.000 HD
BRANCH  15  17
ATOM     17  C   UNL     1       1.119   9.222  19.043  0.00  0.00    +0.000 A 
ATOM     18  C   UNL     1       1.806   9.283  17.825  0.00  0.00    +0.000 A 
ATOM     19  C   UNL     1       2.753   8.312  17.489  0.00  0.00    +0.000 A 
ATOM     20  C   UNL     1       3.018   7.247  18.358  0.00  0.00    +0.000 A 
ATOM     21  C   UNL     1       2.341   7.193  19.589  0.00  0.00    +0.000 A 
ATOM     22  C   UNL     1       1.417   8.186  19.937  0.00  0.00    +0.000 A 
ATOM     23 CL   UNL     1       0.583   8.035  21.443  0.00  0.00    +0.000 Cl
BRANCH  20  24
ATOM     24  C   UNL     1       4.003   6.166  17.991  0.00  0.00    +0.000 C 
ATOM     25  F   UNL     1       3.437   4.933  17.851  0.00  0.00    +0.000 F 
ATOM     26  F   UNL     1       4.634   6.419  16.809  0.00  0.00    +0.000 F 
ATOM     27  F   UNL     1       4.987   6.022  18.916  0.00  0.00    +0.000 F 
ENDBRANCH  20  24
ENDBRANCH  15  17
ENDBRANCH  12  13
BRANCH   1  29
ATOM     28  C   UNL     1      -5.569  10.731  18.276  0.00  0.00    +0.000 C 
ATOM     29  C   UNL     1      -4.108  10.805  17.811  0.00  0.00    +0.000 C 
ATOM     30  C   UNL     1      -4.014  11.394  16.400  0.00  0.00    +0.000 C 
ENDBRANCH   1  29
TORSDOF 4
ENDMDL
