MODEL 1
REMARK VINA RESULT:      -8.4      0.000      0.000
REMARK  Name = 
REMARK  5 active torsions:
REMARK  status: ('A' for Active; 'I' for Inactive)
REMARK    1  A    between atoms: C_1  and  C_2
REMARK    2  A    between atoms: C_4  and  N_5
REMARK    3  A    between atoms: N_5  and  C_6
REMARK    4  A    between atoms: C_6  and  C_7
REMARK    5  A    between atoms: C_19  and  C_20
REMARK                            x       y       z     vdW  Elec       q    Type
REMARK                         _______ _______ _______ _____ _____    ______ ____
ROOT
ATOM      1  C   UNL     1       5.686   5.717  16.422  0.00  0.00    +0.000 C 
ATOM      2  C   UNL     1       4.636   5.710  17.493  0.00  0.00    +0.000 A 
ATOM      3  C   UNL     1       3.872   6.824  17.774  0.00  0.00    +0.000 A 
ATOM      4  C   UNL     1       2.871   6.759  18.755  0.00  0.00    +0.000 A 
ATOM      5  C   UNL     1       2.713   5.540  19.492  0.00  0.00    +0.000 A 
ATOM      6  C   UNL     1       1.795   5.340  20.562  0.00  0.00    +0.000 A 
ATOM      7  C   UNL     1       1.651   4.131  21.231  0.00  0.00    +0.000 A 
ATOM      8  C   UNL     1       2.456   3.077  20.873  0.00  0.00    +0.000 A 
ATOM      9  C   UNL     1       3.405   3.227  19.851  0.00  0.00    +0.000 A 
ATOM     10  C   UNL     1       3.549   4.442  19.144  0.00  0.00    +0.000 A 
ATOM     11  N   UNL     1       4.475   4.553  18.161  0.00  0.00    +0.000 NA
ENDROOT
BRANCH   9  12
ATOM     12  C   UNL     1       4.248   2.018  19.591  0.00  0.00    +0.000 C 
ATOM     13  N   UNL     1       4.055   1.322  18.437  0.00  0.00    +0.000 N 
ATOM     14  O   UNL     1       5.107   1.651  20.388  0.00  0.00    +0.000 OA
ATOM     15  H   UNL     1       3.344   1.622  17.774  0.00  0.00    +0.000 HD
ATOM     16  H   UNL     1       4.621   0.510  18.246  0.00  0.00    +0.000 HD
ENDBRANCH   9  12
BRANCH   4  17
ATOM     17  N   UNL     1       2.167   7.968  18.933  0.00  0.00    +0.000 N 
ATOM     18  H   UNL     1       1.278   7.792  19.400  0.00  0.00    +0.000 HD
BRANCH  17  19
ATOM     19  C   UNL     1       2.032   8.952  17.873  0.00  0.00    +0.000 C 
BRANCH  19  20
ATOM     20  C   UNL     1       0.858   9.865  18.119  0.00  0.00    +0.000 A 
ATOM     21  C   UNL     1      -0.437   9.481  17.746  0.00  0.00    +0.000 A 
ATOM     22  C   UNL     1      -1.523  10.299  18.050  0.00  0.00    +0.000 A 
ATOM     23 CL   UNL     1      -3.108   9.808  17.595  0.00  0.00    +0.000 Cl
ATOM     24  C   UNL     1      -1.341  11.501  18.731  0.00  0.00    +0.000 A 
ATOM     25  C   UNL     1      -0.058  11.881  19.109  0.00  0.00    +0.000 A 
ATOM     26 CL   UNL     1       0.183  13.353  19.969  0.00  0.00    +0.000 Cl
ATOM     27  C   UNL     1       1.038  11.075  18.810  0.00  0.00    +0.000 A 
ENDBRANCH  19  20
ENDBRANCH  17  19
ENDBRANCH   4  17
TORSDOF 4
ENDMDL
MODEL 2
REMARK VINA RESULT:      -8.3      1.569      1.787
REMARK  Name = 
REMARK  5 active torsions:
REMARK  status: ('A' for Active; 'I' for Inactive)
REMARK    1  A    between atoms: C_1  and  C_2
REMARK    2  A    between atoms: C_4  and  N_5
REMARK    3  A    between atoms: N_5  and  C_6
REMARK    4  A    between atoms: C_6  and  C_7
REMARK    5  A    between atoms: C_19  and  C_20
REMARK                            x       y       z     vdW  Elec       q    Type
REMARK                         _______ _______ _______ _____ _____    ______ ____
ROOT
ATOM      1  C   UNL     1       6.054   4.771  16.466  0.00  0.00    +0.000 C 
ATOM      2  C   UNL     1       4.876   4.865  17.389  0.00  0.00    +0.000 A 
ATOM      3  C   UNL     1       3.976   5.908  17.322  0.00  0.00    +0.000 A 
ATOM      4  C   UNL     1       2.865   5.931  18.179  0.00  0.00    +0.000 A 
ATOM      5  C   UNL     1       2.730   4.891  19.155  0.00  0.00    +0.000 A 
ATOM      6  C   UNL     1       1.703   4.814  20.137  0.00  0.00    +0.000 A 
ATOM      7  C   UNL     1       1.590   3.770  21.047  0.00  0.00    +0.000 A 
ATOM      8  C   UNL     1       2.535   2.773  21.030  0.00  0.00    +0.000 A 
ATOM      9  C   UNL     1       3.592   2.816  20.109  0.00  0.00    +0.000 A 
ATOM     10  C   UNL     1       3.709   3.858  19.161  0.00  0.00    +0.000 A 
ATOM     11  N   UNL     1       4.742   3.869  18.285  0.00  0.00    +0.000 NA
ENDROOT
BRANCH   9  12
ATOM     12  C   UNL     1       4.577   1.695  20.227  0.00  0.00    +0.000 C 
ATOM     13  N   UNL     1       4.608   0.747  19.250  0.00  0.00    +0.000 N 
ATOM     14  O   UNL     1       5.355   1.621  21.174  0.00  0.00    +0.000 OA
ATOM     15  H   UNL     1       3.965   0.804  18.464  0.00  0.00    +0.000 HD
ATOM     16  H   UNL     1       5.272  -0.010  19.313  0.00  0.00    +0.000 HD
ENDBRANCH   9  12
BRANCH   4  17
ATOM     17  N   UNL     1       2.028   7.052  17.997  0.00  0.00    +0.000 N 
ATOM     18  H   UNL     1       1.482   6.948  17.142  0.00  0.00    +0.000 HD
BRANCH  17  19
ATOM     19  C   UNL     1       2.504   8.414  18.169  0.00  0.00    +0.000 C 
BRANCH  19  20
ATOM     20  C   UNL     1       1.519   9.245  18.950  0.00  0.00    +0.000 A 
ATOM     21  C   UNL     1       0.891  10.352  18.362  0.00  0.00    +0.000 A 
ATOM     22  C   UNL     1      -0.076  11.063  19.069  0.00  0.00    +0.000 A 
ATOM     23 CL   UNL     1      -0.845  12.413  18.329  0.00  0.00    +0.000 Cl
ATOM     24  C   UNL     1      -0.437  10.685  20.361  0.00  0.00    +0.000 A 
ATOM     25  C   UNL     1       0.179   9.583  20.943  0.00  0.00    +0.000 A 
ATOM     26 CL   UNL     1      -0.271   9.089  22.531  0.00  0.00    +0.000 Cl
ATOM     27  C   UNL     1       1.148   8.862  20.250  0.00  0.00    +0.000 A 
ENDBRANCH  19  20
ENDBRANCH  17  19
ENDBRANCH   4  17
TORSDOF 4
ENDMDL
MODEL 3
REMARK VINA RESULT:      -8.3      0.224      1.846
REMARK  Name = 
REMARK  5 active torsions:
REMARK  status: ('A' for Active; 'I' for Inactive)
REMARK    1  A    between atoms: C_1  and  C_2
REMARK    2  A    between atoms: C_4  and  N_5
REMARK    3  A    between atoms: N_5  and  C_6
REMARK    4  A    between atoms: C_6  and  C_7
REMARK    5  A    between atoms: C_19  and  C_20
REMARK                            x       y       z     vdW  Elec       q    Type
REMARK                         _______ _______ _______ _____ _____    ______ ____
ROOT
ATOM      1  C   UNL     1       5.731   5.674  16.448  0.00  0.00    +0.000 C 
ATOM      2  C   UNL     1       4.670   5.670  17.508  0.00  0.00    +0.000 A 
ATOM      3  C   UNL     1       3.900   6.783  17.776  0.00  0.00    +0.000 A 
ATOM      4  C   UNL     1       2.889   6.719  18.748  0.00  0.00    +0.000 A 
ATOM      5  C   UNL     1       2.727   5.503  19.488  0.00  0.00    +0.000 A 
ATOM      6  C   UNL     1       1.799   5.306  20.551  0.00  0.00    +0.000 A 
ATOM      7  C   UNL     1       1.652   4.099  21.224  0.00  0.00    +0.000 A 
ATOM      8  C   UNL     1       2.464   3.046  20.879  0.00  0.00    +0.000 A 
ATOM      9  C   UNL     1       3.422   3.194  19.865  0.00  0.00    +0.000 A 
ATOM     10  C   UNL     1       3.569   4.407  19.154  0.00  0.00    +0.000 A 
ATOM     11  N   UNL     1       4.506   4.515  18.180  0.00  0.00    +0.000 NA
ENDROOT
BRANCH   9  12
ATOM     12  C   UNL     1       4.272   1.986  19.620  0.00  0.00    +0.000 C 
ATOM     13  N   UNL     1       4.074   1.269  18.479  0.00  0.00    +0.000 N 
ATOM     14  O   UNL     1       5.139   1.639  20.416  0.00  0.00    +0.000 OA
ATOM     15  H   UNL     1       3.356   1.553  17.817  0.00  0.00    +0.000 HD
ATOM     16  H   UNL     1       4.644   0.458  18.298  0.00  0.00    +0.000 HD
ENDBRANCH   9  12
BRANCH   4  17
ATOM     17  N   UNL     1       2.180   7.927  18.913  0.00  0.00    +0.000 N 
ATOM     18  H   UNL     1       1.342   7.769  19.474  0.00  0.00    +0.000 HD
BRANCH  17  19
ATOM     19  C   UNL     1       1.925   8.836  17.809  0.00  0.00    +0.000 C 
BRANCH  19  20
ATOM     20  C   UNL     1       0.873   9.854  18.168  0.00  0.00    +0.000 A 
ATOM     21  C   UNL     1       1.233  11.086  18.731  0.00  0.00    +0.000 A 
ATOM     22  C   UNL     1       0.258  12.049  18.984  0.00  0.00    +0.000 A 
ATOM     23 CL   UNL     1       0.718  13.561  19.665  0.00  0.00    +0.000 Cl
ATOM     24  C   UNL     1      -1.080  11.807  18.680  0.00  0.00    +0.000 A 
ATOM     25  C   UNL     1      -1.438  10.588  18.115  0.00  0.00    +0.000 A 
ATOM     26 CL   UNL     1      -3.084  10.281  17.712  0.00  0.00    +0.000 Cl
ATOM     27  C   UNL     1      -0.476   9.615  17.856  0.00  0.00    +0.000 A 
ENDBRANCH  19  20
ENDBRANCH  17  19
ENDBRANCH   4  17
TORSDOF 4
ENDMDL
MODEL 4
REMARK VINA RESULT:      -8.3      1.150      1.909
REMARK  Name = 
REMARK  5 active torsions:
REMARK  status: ('A' for Active; 'I' for Inactive)
REMARK    1  A    between atoms: C_1  and  C_2
REMARK    2  A    between atoms: C_4  and  N_5
REMARK    3  A    between atoms: N_5  and  C_6
REMARK    4  A    between atoms: C_6  and  C_7
REMARK    5  A    between atoms: C_19  and  C_20
REMARK                            x       y       z     vdW  Elec       q    Type
REMARK                         _______ _______ _______ _____ _____    ______ ____
ROOT
ATOM      1  C   UNL     1       5.447   5.816  16.011  0.00  0.00    +0.000 C 
ATOM      2  C   UNL     1       4.465   5.843  17.145  0.00  0.00    +0.000 A 
ATOM      3  C   UNL     1       3.818   7.001  17.524  0.00  0.00    +0.000 A 
ATOM      4  C   UNL     1       2.876   6.970  18.563  0.00  0.00    +0.000 A 
ATOM      5  C   UNL     1       2.657   5.732  19.252  0.00  0.00    +0.000 A 
ATOM      6  C   UNL     1       1.791   5.556  20.369  0.00  0.00    +0.000 A 
ATOM      7  C   UNL     1       1.583   4.331  20.990  0.00  0.00    +0.000 A 
ATOM      8  C   UNL     1       2.272   3.233  20.535  0.00  0.00    +0.000 A 
ATOM      9  C   UNL     1       3.167   3.355  19.462  0.00  0.00    +0.000 A 
ATOM     10  C   UNL     1       3.373   4.588  18.803  0.00  0.00    +0.000 A 
ATOM     11  N   UNL     1       4.245   4.671  17.769  0.00  0.00    +0.000 NA
ENDROOT
BRANCH   9  12
ATOM     12  C   UNL     1       3.886   2.094  19.094  0.00  0.00    +0.000 C 
ATOM     13  N   UNL     1       4.994   1.744  19.804  0.00  0.00    +0.000 N 
ATOM     14  O   UNL     1       3.494   1.376  18.180  0.00  0.00    +0.000 OA
ATOM     15  H   UNL     1       5.322   2.337  20.562  0.00  0.00    +0.000 HD
ATOM     16  H   UNL     1       5.484   0.893  19.572  0.00  0.00    +0.000 HD
ENDBRANCH   9  12
BRANCH   4  17
ATOM     17  N   UNL     1       2.290   8.223  18.840  0.00  0.00    +0.000 N 
ATOM     18  H   UNL     1       1.851   8.210  19.761  0.00  0.00    +0.000 HD
BRANCH  17  19
ATOM     19  C   UNL     1       1.479   8.934  17.867  0.00  0.00    +0.000 C 
BRANCH  19  20
ATOM     20  C   UNL     1       0.401   9.744  18.540  0.00  0.00    +0.000 A 
ATOM     21  C   UNL     1       0.537  10.149  19.875  0.00  0.00    +0.000 A 
ATOM     22  C   UNL     1      -0.430  10.964  20.459  0.00  0.00    +0.000 A 
ATOM     23 CL   UNL     1      -0.241  11.461  22.096  0.00  0.00    +0.000 Cl
ATOM     24  C   UNL     1      -1.537  11.392  19.731  0.00  0.00    +0.000 A 
ATOM     25  C   UNL     1      -1.671  10.998  18.404  0.00  0.00    +0.000 A 
ATOM     26 CL   UNL     1      -3.023  11.536  17.482  0.00  0.00    +0.000 Cl
ATOM     27  C   UNL     1      -0.714  10.182  17.805  0.00  0.00    +0.000 A 
ENDBRANCH  19  20
ENDBRANCH  17  19
ENDBRANCH   4  17
TORSDOF 4
ENDMDL
MODEL 5
REMARK VINA RESULT:      -8.2      4.336      7.111
REMARK  Name = 
REMARK  5 active torsions:
REMARK  status: ('A' for Active; 'I' for Inactive)
REMARK    1  A    between atoms: C_1  and  C_2
REMARK    2  A    between atoms: C_4  and  N_5
REMARK    3  A    between atoms: N_5  and  C_6
REMARK    4  A    between atoms: C_6  and  C_7
REMARK    5  A    between atoms: C_19  and  C_20
REMARK                            x       y       z     vdW  Elec       q    Type
REMARK                         _______ _______ _______ _____ _____    ______ ____
ROOT
ATOM      1  C   UNL     1       7.720   6.852  17.661  0.00  0.00    +0.000 C 
ATOM      2  C   UNL     1       7.060   5.841  16.772  0.00  0.00    +0.000 A 
ATOM      3  C   UNL     1       6.122   4.949  17.250  0.00  0.00    +0.000 A 
ATOM      4  C   UNL     1       5.498   4.050  16.372  0.00  0.00    +0.000 A 
ATOM      5  C   UNL     1       5.906   4.039  14.998  0.00  0.00    +0.000 A 
ATOM      6  C   UNL     1       5.422   3.142  14.004  0.00  0.00    +0.000 A 
ATOM      7  C   UNL     1       5.820   3.185  12.674  0.00  0.00    +0.000 A 
ATOM      8  C   UNL     1       6.758   4.115  12.295  0.00  0.00    +0.000 A 
ATOM      9  C   UNL     1       7.298   5.001  13.239  0.00  0.00    +0.000 A 
ATOM     10  C   UNL     1       6.886   4.987  14.591  0.00  0.00    +0.000 A 
ATOM     11  N   UNL     1       7.428   5.857  15.477  0.00  0.00    +0.000 NA
ENDROOT
BRANCH   9  12
ATOM     12  C   UNL     1       8.341   5.932  12.705  0.00  0.00    +0.000 C 
ATOM     13  N   UNL     1       9.506   6.072  13.396  0.00  0.00    +0.000 N 
ATOM     14  O   UNL     1       8.170   6.559  11.664  0.00  0.00    +0.000 OA
ATOM     15  H   UNL     1       9.652   5.555  14.260  0.00  0.00    +0.000 HD
ATOM     16  H   UNL     1      10.221   6.691  13.044  0.00  0.00    +0.000 HD
ENDBRANCH   9  12
BRANCH   4  17
ATOM     17  N   UNL     1       4.560   3.202  16.996  0.00  0.00    +0.000 N 
ATOM     18  H   UNL     1       4.735   2.231  16.737  0.00  0.00    +0.000 HD
BRANCH  17  19
ATOM     19  C   UNL     1       3.139   3.502  17.024  0.00  0.00    +0.000 C 
BRANCH  19  20
ATOM     20  C   UNL     1       2.719   4.049  18.364  0.00  0.00    +0.000 A 
ATOM     21  C   UNL     1       2.624   5.432  18.575  0.00  0.00    +0.000 A 
ATOM     22  C   UNL     1       2.159   5.922  19.794  0.00  0.00    +0.000 A 
ATOM     23 CL   UNL     1       2.038   7.622  20.032  0.00  0.00    +0.000 Cl
ATOM     24  C   UNL     1       1.778   5.053  20.813  0.00  0.00    +0.000 A 
ATOM     25  C   UNL     1       1.864   3.680  20.604  0.00  0.00    +0.000 A 
ATOM     26 CL   UNL     1       1.377   2.591  21.846  0.00  0.00    +0.000 Cl
ATOM     27  C   UNL     1       2.328   3.175  19.392  0.00  0.00    +0.000 A 
ENDBRANCH  19  20
ENDBRANCH  17  19
ENDBRANCH   4  17
TORSDOF 4
ENDMDL
MODEL 6
REMARK VINA RESULT:      -8.2      4.325      6.957
REMARK  Name = 
REMARK  5 active torsions:
REMARK  status: ('A' for Active; 'I' for Inactive)
REMARK    1  A    between atoms: C_1  and  C_2
REMARK    2  A    between atoms: C_4  and  N_5
REMARK    3  A    between atoms: N_5  and  C_6
REMARK    4  A    between atoms: C_6  and  C_7
REMARK    5  A    between atoms: C_19  and  C_20
REMARK                            x       y       z     vdW  Elec       q    Type
REMARK                         _______ _______ _______ _____ _____    ______ ____
ROOT
ATOM      1  C   UNL     1       7.675   6.899  17.665  0.00  0.00    +0.000 C 
ATOM      2  C   UNL     1       7.019   5.880  16.782  0.00  0.00    +0.000 A 
ATOM      3  C   UNL     1       6.075   4.996  17.262  0.00  0.00    +0.000 A 
ATOM      4  C   UNL     1       5.456   4.088  16.389  0.00  0.00    +0.000 A 
ATOM      5  C   UNL     1       5.875   4.062  15.019  0.00  0.00    +0.000 A 
ATOM      6  C   UNL     1       5.397   3.155  14.031  0.00  0.00    +0.000 A 
ATOM      7  C   UNL     1       5.807   3.182  12.704  0.00  0.00    +0.000 A 
ATOM      8  C   UNL     1       6.750   4.106  12.322  0.00  0.00    +0.000 A 
ATOM      9  C   UNL     1       7.284   5.001  13.261  0.00  0.00    +0.000 A 
ATOM     10  C   UNL     1       6.861   5.002  14.610  0.00  0.00    +0.000 A 
ATOM     11  N   UNL     1       7.398   5.880  15.491  0.00  0.00    +0.000 NA
ENDROOT
BRANCH   9  12
ATOM     12  C   UNL     1       8.335   5.923  12.726  0.00  0.00    +0.000 C 
ATOM     13  N   UNL     1       9.502   6.052  13.414  0.00  0.00    +0.000 N 
ATOM     14  O   UNL     1       8.167   6.552  11.685  0.00  0.00    +0.000 OA
ATOM     15  H   UNL     1       9.646   5.533  14.278  0.00  0.00    +0.000 HD
ATOM     16  H   UNL     1      10.222   6.665  13.061  0.00  0.00    +0.000 HD
ENDBRANCH   9  12
BRANCH   4  17
ATOM     17  N   UNL     1       4.510   3.250  17.014  0.00  0.00    +0.000 N 
ATOM     18  H   UNL     1       4.721   2.272  16.816  0.00  0.00    +0.000 HD
BRANCH  17  19
ATOM     19  C   UNL     1       3.082   3.513  16.961  0.00  0.00    +0.000 C 
BRANCH  19  20
ATOM     20  C   UNL     1       2.573   4.046  18.276  0.00  0.00    +0.000 A 
ATOM     21  C   UNL     1       2.240   3.172  19.321  0.00  0.00    +0.000 A 
ATOM     22  C   UNL     1       1.847   3.680  20.557  0.00  0.00    +0.000 A 
ATOM     23 CL   UNL     1       1.452   2.594  21.832  0.00  0.00    +0.000 Cl
ATOM     24  C   UNL     1       1.784   5.054  20.776  0.00  0.00    +0.000 A 
ATOM     25  C   UNL     1       2.121   5.923  19.744  0.00  0.00    +0.000 A 
ATOM     26 CL   UNL     1       2.069   7.625  20.003  0.00  0.00    +0.000 Cl
ATOM     27  C   UNL     1       2.515   5.431  18.502  0.00  0.00    +0.000 A 
ENDBRANCH  19  20
ENDBRANCH  17  19
ENDBRANCH   4  17
TORSDOF 4
ENDMDL
MODEL 7
REMARK VINA RESULT:      -8.1      1.438      1.961
REMARK  Name = 
REMARK  5 active torsions:
REMARK  status: ('A' for Active; 'I' for Inactive)
REMARK    1  A    between atoms: C_1  and  C_2
REMARK    2  A    between atoms: C_4  and  N_5
REMARK    3  A    between atoms: N_5  and  C_6
REMARK    4  A    between atoms: C_6  and  C_7
REMARK    5  A    between atoms: C_19  and  C_20
REMARK                            x       y       z     vdW  Elec       q    Type
REMARK                         _______ _______ _______ _____ _____    ______ ____
ROOT
ATOM      1  C   UNL     1       5.830   5.177  15.676  0.00  0.00    +0.000 C 
ATOM      2  C   UNL     1       4.880   5.483  16.795  0.00  0.00    +0.000 A 
ATOM      3  C   UNL     1       4.335   6.739  16.968  0.00  0.00    +0.000 A 
ATOM      4  C   UNL     1       3.416   6.968  18.004  0.00  0.00    +0.000 A 
ATOM      5  C   UNL     1       3.116   5.893  18.903  0.00  0.00    +0.000 A 
ATOM      6  C   UNL     1       2.264   5.987  20.040  0.00  0.00    +0.000 A 
ATOM      7  C   UNL     1       1.974   4.912  20.871  0.00  0.00    +0.000 A 
ATOM      8  C   UNL     1       2.564   3.698  20.611  0.00  0.00    +0.000 A 
ATOM      9  C   UNL     1       3.442   3.556  19.526  0.00  0.00    +0.000 A 
ATOM     10  C   UNL     1       3.729   4.633  18.657  0.00  0.00    +0.000 A 
ATOM     11  N   UNL     1       4.582   4.461  17.618  0.00  0.00    +0.000 NA
ENDROOT
BRANCH   9  12
ATOM     12  C   UNL     1       4.051   2.196  19.382  0.00  0.00    +0.000 C 
ATOM     13  N   UNL     1       3.647   1.405  18.350  0.00  0.00    +0.000 N 
ATOM     14  O   UNL     1       4.904   1.789  20.165  0.00  0.00    +0.000 OA
ATOM     15  H   UNL     1       2.940   1.739  17.698  0.00  0.00    +0.000 HD
ATOM     16  H   UNL     1       4.055   0.490  18.236  0.00  0.00    +0.000 HD
ENDBRANCH   9  12
BRANCH   4  17
ATOM     17  N   UNL     1       2.938   8.293  18.059  0.00  0.00    +0.000 N 
ATOM     18  H   UNL     1       3.371   8.791  18.837  0.00  0.00    +0.000 HD
BRANCH  17  19
ATOM     19  C   UNL     1       1.528   8.617  17.931  0.00  0.00    +0.000 C 
BRANCH  19  20
ATOM     20  C   UNL     1       1.092   9.598  18.990  0.00  0.00    +0.000 A 
ATOM     21  C   UNL     1       0.800  10.928  18.656  0.00  0.00    +0.000 A 
ATOM     22  C   UNL     1       0.322  11.803  19.630  0.00  0.00    +0.000 A 
ATOM     23 CL   UNL     1      -0.042  13.429  19.201  0.00  0.00    +0.000 Cl
ATOM     24  C   UNL     1       0.122  11.372  20.939  0.00  0.00    +0.000 A 
ATOM     25  C   UNL     1       0.404  10.051  21.271  0.00  0.00    +0.000 A 
ATOM     26 CL   UNL     1       0.142   9.497  22.880  0.00  0.00    +0.000 Cl
ATOM     27  C   UNL     1       0.883   9.165  20.310  0.00  0.00    +0.000 A 
ENDBRANCH  19  20
ENDBRANCH  17  19
ENDBRANCH   4  17
TORSDOF 4
ENDMDL
MODEL 8
REMARK VINA RESULT:      -8.1      1.435      1.828
REMARK  Name = 
REMARK  5 active torsions:
REMARK  status: ('A' for Active; 'I' for Inactive)
REMARK    1  A    between atoms: C_1  and  C_2
REMARK    2  A    between atoms: C_4  and  N_5
REMARK    3  A    between atoms: N_5  and  C_6
REMARK    4  A    between atoms: C_6  and  C_7
REMARK    5  A    between atoms: C_19  and  C_20
REMARK                            x       y       z     vdW  Elec       q    Type
REMARK                         _______ _______ _______ _____ _____    ______ ____
ROOT
ATOM      1  C   UNL     1       5.846   5.388  15.719  0.00  0.00    +0.000 C 
ATOM      2  C   UNL     1       4.879   5.657  16.833  0.00  0.00    +0.000 A 
ATOM      3  C   UNL     1       4.304   6.898  17.018  0.00  0.00    +0.000 A 
ATOM      4  C   UNL     1       3.371   7.092  18.047  0.00  0.00    +0.000 A 
ATOM      5  C   UNL     1       3.086   5.999  18.928  0.00  0.00    +0.000 A 
ATOM      6  C   UNL     1       2.221   6.058  20.058  0.00  0.00    +0.000 A 
ATOM      7  C   UNL     1       1.946   4.965  20.870  0.00  0.00    +0.000 A 
ATOM      8  C   UNL     1       2.565   3.769  20.600  0.00  0.00    +0.000 A 
ATOM      9  C   UNL     1       3.456   3.660  19.522  0.00  0.00    +0.000 A 
ATOM     10  C   UNL     1       3.729   4.756  18.672  0.00  0.00    +0.000 A 
ATOM     11  N   UNL     1       4.595   4.617  17.639  0.00  0.00    +0.000 NA
ENDROOT
BRANCH   9  12
ATOM     12  C   UNL     1       4.097   2.316  19.366  0.00  0.00    +0.000 C 
ATOM     13  N   UNL     1       3.809   1.582  18.256  0.00  0.00    +0.000 N 
ATOM     14  O   UNL     1       4.873   1.874  20.207  0.00  0.00    +0.000 OA
ATOM     15  H   UNL     1       3.165   1.945  17.557  0.00  0.00    +0.000 HD
ATOM     16  H   UNL     1       4.239   0.677  18.134  0.00  0.00    +0.000 HD
ENDBRANCH   9  12
BRANCH   4  17
ATOM     17  N   UNL     1       2.863   8.406  18.116  0.00  0.00    +0.000 N 
ATOM     18  H   UNL     1       3.209   8.873  18.955  0.00  0.00    +0.000 HD
BRANCH  17  19
ATOM     19  C   UNL     1       1.466   8.714  17.866  0.00  0.00    +0.000 C 
BRANCH  19  20
ATOM     20  C   UNL     1       0.902   9.614  18.936  0.00  0.00    +0.000 A 
ATOM     21  C   UNL     1       0.844   9.189  20.271  0.00  0.00    +0.000 A 
ATOM     22  C   UNL     1       0.396  10.060  21.261  0.00  0.00    +0.000 A 
ATOM     23 CL   UNL     1       0.341   9.527  22.897  0.00  0.00    +0.000 Cl
ATOM     24  C   UNL     1       0.006  11.360  20.946  0.00  0.00    +0.000 A 
ATOM     25  C   UNL     1       0.070  11.786  19.623  0.00  0.00    +0.000 A 
ATOM     26 CL   UNL     1      -0.388  13.396  19.218  0.00  0.00    +0.000 Cl
ATOM     27  C   UNL     1       0.515  10.927  18.622  0.00  0.00    +0.000 A 
ENDBRANCH  19  20
ENDBRANCH  17  19
ENDBRANCH   4  17
TORSDOF 4
ENDMDL
MODEL 9
REMARK VINA RESULT:      -8.1      1.130      2.040
REMARK  Name = 
REMARK  5 active torsions:
REMARK  status: ('A' for Active; 'I' for Inactive)
REMARK    1  A    between atoms: C_1  and  C_2
REMARK    2  A    between atoms: C_4  and  N_5
REMARK    3  A    between atoms: N_5  and  C_6
REMARK    4  A    between atoms: C_6  and  C_7
REMARK    5  A    between atoms: C_19  and  C_20
REMARK                            x       y       z     vdW  Elec       q    Type
REMARK                         _______ _______ _______ _____ _____    ______ ____
ROOT
ATOM      1  C   UNL     1       5.960   5.153  15.745  0.00  0.00    +0.000 C 
ATOM      2  C   UNL     1       4.979   5.461  16.837  0.00  0.00    +0.000 A 
ATOM      3  C   UNL     1       4.411   6.711  16.977  0.00  0.00    +0.000 A 
ATOM      4  C   UNL     1       3.465   6.941  17.988  0.00  0.00    +0.000 A 
ATOM      5  C   UNL     1       3.160   5.876  18.897  0.00  0.00    +0.000 A 
ATOM      6  C   UNL     1       2.281   5.974  20.012  0.00  0.00    +0.000 A 
ATOM      7  C   UNL     1       1.988   4.907  20.853  0.00  0.00    +0.000 A 
ATOM      8  C   UNL     1       2.603   3.700  20.627  0.00  0.00    +0.000 A 
ATOM      9  C   UNL     1       3.508   3.554  19.565  0.00  0.00    +0.000 A 
ATOM     10  C   UNL     1       3.799   4.622  18.686  0.00  0.00    +0.000 A 
ATOM     11  N   UNL     1       4.678   4.448  17.670  0.00  0.00    +0.000 NA
ENDROOT
BRANCH   9  12
ATOM     12  C   UNL     1       4.142   2.202  19.457  0.00  0.00    +0.000 C 
ATOM     13  N   UNL     1       3.810   1.408  18.402  0.00  0.00    +0.000 N 
ATOM     14  O   UNL     1       4.951   1.805  20.289  0.00  0.00    +0.000 OA
ATOM     15  H   UNL     1       3.139   1.734  17.709  0.00  0.00    +0.000 HD
ATOM     16  H   UNL     1       4.235   0.498  18.313  0.00  0.00    +0.000 HD
ENDBRANCH   9  12
BRANCH   4  17
ATOM     17  N   UNL     1       2.964   8.260  18.011  0.00  0.00    +0.000 N 
ATOM     18  H   UNL     1       3.243   8.727  18.874  0.00  0.00    +0.000 HD
BRANCH  17  19
ATOM     19  C   UNL     1       1.595   8.578  17.645  0.00  0.00    +0.000 C 
BRANCH  19  20
ATOM     20  C   UNL     1       1.203   9.951  18.130  0.00  0.00    +0.000 A 
ATOM     21  C   UNL     1       2.146  10.986  18.186  0.00  0.00    +0.000 A 
ATOM     22  C   UNL     1       1.752  12.269  18.560  0.00  0.00    +0.000 A 
ATOM     23 CL   UNL     1       2.921  13.532  18.613  0.00  0.00    +0.000 Cl
ATOM     24  C   UNL     1       0.424  12.544  18.876  0.00  0.00    +0.000 A 
ATOM     25  C   UNL     1      -0.515  11.520  18.814  0.00  0.00    +0.000 A 
ATOM     26 CL   UNL     1      -2.166  11.846  19.181  0.00  0.00    +0.000 Cl
ATOM     27  C   UNL     1      -0.137  10.232  18.443  0.00  0.00    +0.000 A 
ENDBRANCH  19  20
ENDBRANCH  17  19
ENDBRANCH   4  17
TORSDOF 4
ENDMDL
