MODEL 1
REMARK VINA RESULT:      -7.3      0.000      0.000
REMARK  Name = 
REMARK  9 active torsions:
REMARK  status: ('A' for Active; 'I' for Inactive)
REMARK    1  A    between atoms: C_1  and  N_2
REMARK    2  A    between atoms: C_4  and  C_5
REMARK    3  A    between atoms: C_5  and  C_7
REMARK    4  A    between atoms: C_7  and  O_8
REMARK    5  A    between atoms: O_8  and  C_9
REMARK    6  A    between atoms: C_9  and  C_11
REMARK    7  A    between atoms: C_16  and  O_17
REMARK    8  A    between atoms: C_18  and  C_19
REMARK    9  A    between atoms: C_18  and  C_20
REMARK                            x       y       z     vdW  Elec       q    Type
REMARK                         _______ _______ _______ _____ _____    ______ ____
ROOT
ATOM      1  C   UNL     1       2.102   7.932  17.844  0.00  0.00    +0.000 C 
ATOM      2  O   UNL     1       1.242   7.124  17.483  0.00  0.00    +0.000 OA
ENDROOT
BRANCH   1   6
ATOM      3  C   UNL     1       1.444   7.889  20.974  0.00  0.00    +0.000 C 
ATOM      4  N   UNL     1       0.946   9.164  20.498  0.00  0.00    +0.000 N 
ATOM      5  C   UNL     1       1.188   9.816  19.282  0.00  0.00    +0.000 C 
ATOM      6  C   UNL     1       1.750   9.358  18.142  0.00  0.00    +0.000 C 
ATOM      7  C   UNL     1       0.570  11.264  19.392  0.00  0.00    +0.000 C 
ATOM      8  C   UNL     1      -0.503  11.504  18.318  0.00  0.00    +0.000 C 
ATOM      9  C   UNL     1       1.623  12.379  19.356  0.00  0.00    +0.000 C 
ATOM     10  C   UNL     1      -0.088  11.209  20.767  0.00  0.00    +0.000 A 
ATOM     11  C   UNL     1      -0.832  12.175  21.436  0.00  0.00    +0.000 A 
ATOM     12  C   UNL     1      -1.352  11.863  22.693  0.00  0.00    +0.000 A 
ATOM     13  C   UNL     1      -1.134  10.600  23.258  0.00  0.00    +0.000 A 
ATOM     14  C   UNL     1      -0.380   9.638  22.580  0.00  0.00    +0.000 A 
ATOM     15  C   UNL     1       0.156   9.952  21.340  0.00  0.00    +0.000 A 
ENDBRANCH   1   6
BRANCH   1  16
ATOM     16  C   UNL     1       3.577   7.536  17.877  0.00  0.00    +0.000 C 
BRANCH  16  17
ATOM     17  O   UNL     1       3.766   6.155  17.547  0.00  0.00    +0.000 OA
BRANCH  17  18
ATOM     18  C   UNL     1       4.110   5.371  18.597  0.00  0.00    +0.000 C 
ATOM     19  O   UNL     1       5.202   5.381  19.148  0.00  0.00    +0.000 OA
BRANCH  18  20
ATOM     20  C   UNL     1       2.972   4.553  19.093  0.00  0.00    +0.000 A 
ATOM     21  C   UNL     1       2.734   4.586  20.481  0.00  0.00    +0.000 A 
ATOM     22  C   UNL     1       1.692   3.846  21.046  0.00  0.00    +0.000 A 
ATOM     23  C   UNL     1       0.878   3.062  20.233  0.00  0.00    +0.000 A 
ATOM     24  C   UNL     1       1.109   3.011  18.857  0.00  0.00    +0.000 A 
ATOM     25  C   UNL     1       2.156   3.748  18.288  0.00  0.00    +0.000 A 
BRANCH  25  26
ATOM     26  O   UNL     1       2.388   3.631  16.947  0.00  0.00    +0.000 OA
ATOM     27  H   UNL     1       2.260   4.494  16.522  0.00  0.00    +0.000 HD
ENDBRANCH  25  26
ENDBRANCH  18  20
ENDBRANCH  17  18
ENDBRANCH  16  17
ENDBRANCH   1  16
TORSDOF 6
ENDMDL
MODEL 2
REMARK VINA RESULT:      -7.2      1.400      2.098
REMARK  Name = 
REMARK  9 active torsions:
REMARK  status: ('A' for Active; 'I' for Inactive)
REMARK    1  A    between atoms: C_1  and  N_2
REMARK    2  A    between atoms: C_4  and  C_5
REMARK    3  A    between atoms: C_5  and  C_7
REMARK    4  A    between atoms: C_7  and  O_8
REMARK    5  A    between atoms: O_8  and  C_9
REMARK    6  A    between atoms: C_9  and  C_11
REMARK    7  A    between atoms: C_16  and  O_17
REMARK    8  A    between atoms: C_18  and  C_19
REMARK    9  A    between atoms: C_18  and  C_20
REMARK                            x       y       z     vdW  Elec       q    Type
REMARK                         _______ _______ _______ _____ _____    ______ ____
ROOT
ATOM      1  C   UNL     1       1.347   9.465  17.996  0.00  0.00    +0.000 C 
ATOM      2  O   UNL     1       0.271   9.130  17.493  0.00  0.00    +0.000 OA
ENDROOT
BRANCH   1   6
ATOM      3  C   UNL     1       0.079   9.212  20.923  0.00  0.00    +0.000 C 
ATOM      4  N   UNL     1       0.246  10.635  20.700  0.00  0.00    +0.000 N 
ATOM      5  C   UNL     1       0.980  11.302  19.711  0.00  0.00    +0.000 C 
ATOM      6  C   UNL     1       1.539  10.834  18.574  0.00  0.00    +0.000 C 
ATOM      7  C   UNL     1       0.983  12.836  20.081  0.00  0.00    +0.000 C 
ATOM      8  C   UNL     1       0.351  13.687  18.968  0.00  0.00    +0.000 C 
ATOM      9  C   UNL     1       2.376  13.372  20.437  0.00  0.00    +0.000 C 
ATOM     10  C   UNL     1       0.084  12.854  21.312  0.00  0.00    +0.000 A 
ATOM     11  C   UNL     1      -0.335  13.927  22.091  0.00  0.00    +0.000 A 
ATOM     12  C   UNL     1      -1.190  13.675  23.166  0.00  0.00    +0.000 A 
ATOM     13  C   UNL     1      -1.621  12.371  23.441  0.00  0.00    +0.000 A 
ATOM     14  C   UNL     1      -1.189  11.299  22.655  0.00  0.00    +0.000 A 
ATOM     15  C   UNL     1      -0.323  11.542  21.599  0.00  0.00    +0.000 A 
ENDBRANCH   1   6
BRANCH   1  16
ATOM     16  C   UNL     1       2.558   8.536  17.933  0.00  0.00    +0.000 C 
BRANCH  16  17
ATOM     17  O   UNL     1       2.407   7.402  18.795  0.00  0.00    +0.000 OA
BRANCH  17  18
ATOM     18  C   UNL     1       2.834   6.232  18.261  0.00  0.00    +0.000 C 
ATOM     19  O   UNL     1       3.730   6.128  17.435  0.00  0.00    +0.000 OA
BRANCH  18  20
ATOM     20  C   UNL     1       2.164   5.053  18.867  0.00  0.00    +0.000 A 
ATOM     21  C   UNL     1       1.782   4.025  17.983  0.00  0.00    +0.000 A 
ATOM     22  C   UNL     1       1.139   2.877  18.454  0.00  0.00    +0.000 A 
ATOM     23  C   UNL     1       0.866   2.744  19.813  0.00  0.00    +0.000 A 
ATOM     24  C   UNL     1       1.228   3.759  20.699  0.00  0.00    +0.000 A 
ATOM     25  C   UNL     1       1.869   4.913  20.229  0.00  0.00    +0.000 A 
BRANCH  25  26
ATOM     26  O   UNL     1       2.158   5.911  21.117  0.00  0.00    +0.000 OA
ATOM     27  H   UNL     1       1.454   5.962  21.783  0.00  0.00    +0.000 HD
ENDBRANCH  25  26
ENDBRANCH  18  20
ENDBRANCH  17  18
ENDBRANCH  16  17
ENDBRANCH   1  16
TORSDOF 6
ENDMDL
MODEL 3
REMARK VINA RESULT:      -7.2      1.919      4.113
REMARK  Name = 
REMARK  9 active torsions:
REMARK  status: ('A' for Active; 'I' for Inactive)
REMARK    1  A    between atoms: C_1  and  N_2
REMARK    2  A    between atoms: C_4  and  C_5
REMARK    3  A    between atoms: C_5  and  C_7
REMARK    4  A    between atoms: C_7  and  O_8
REMARK    5  A    between atoms: O_8  and  C_9
REMARK    6  A    between atoms: C_9  and  C_11
REMARK    7  A    between atoms: C_16  and  O_17
REMARK    8  A    between atoms: C_18  and  C_19
REMARK    9  A    between atoms: C_18  and  C_20
REMARK                            x       y       z     vdW  Elec       q    Type
REMARK                         _______ _______ _______ _____ _____    ______ ____
ROOT
ATOM      1  C   UNL     1       2.719   6.010  19.684  0.00  0.00    +0.000 C 
ATOM      2  O   UNL     1       3.931   6.230  19.617  0.00  0.00    +0.000 OA
ENDROOT
BRANCH   1   6
ATOM      3  C   UNL     1       2.003   8.501  17.809  0.00  0.00    +0.000 C 
ATOM      4  N   UNL     1       1.589   8.895  19.141  0.00  0.00    +0.000 N 
ATOM      5  C   UNL     1       1.430   8.112  20.292  0.00  0.00    +0.000 C 
ATOM      6  C   UNL     1       1.825   6.847  20.548  0.00  0.00    +0.000 C 
ATOM      7  C   UNL     1       0.752   9.021  21.390  0.00  0.00    +0.000 C 
ATOM      8  C   UNL     1       1.634   9.146  22.643  0.00  0.00    +0.000 C 
ATOM      9  C   UNL     1      -0.660   8.560  21.773  0.00  0.00    +0.000 C 
ATOM     10  C   UNL     1       0.688  10.366  20.674  0.00  0.00    +0.000 A 
ATOM     11  C   UNL     1       0.221  11.594  21.130  0.00  0.00    +0.000 A 
ATOM     12  C   UNL     1       0.297  12.694  20.273  0.00  0.00    +0.000 A 
ATOM     13  C   UNL     1       0.842  12.560  18.990  0.00  0.00    +0.000 A 
ATOM     14  C   UNL     1       1.304  11.319  18.540  0.00  0.00    +0.000 A 
ATOM     15  C   UNL     1       1.211  10.219  19.380  0.00  0.00    +0.000 A 
ENDBRANCH   1   6
BRANCH   1  16
ATOM     16  C   UNL     1       2.108   4.798  18.983  0.00  0.00    +0.000 C 
BRANCH  16  17
ATOM     17  O   UNL     1       3.081   3.774  18.741  0.00  0.00    +0.000 OA
BRANCH  17  18
ATOM     18  C   UNL     1       3.313   3.521  17.430  0.00  0.00    +0.000 C 
ATOM     19  O   UNL     1       2.503   3.020  16.662  0.00  0.00    +0.000 OA
BRANCH  18  20
ATOM     20  C   UNL     1       4.639   4.018  16.981  0.00  0.00    +0.000 A 
ATOM     21  C   UNL     1       4.749   4.373  15.623  0.00  0.00    +0.000 A 
ATOM     22  C   UNL     1       5.957   4.844  15.101  0.00  0.00    +0.000 A 
ATOM     23  C   UNL     1       7.069   4.963  15.929  0.00  0.00    +0.000 A 
ATOM     24  C   UNL     1       6.979   4.604  17.274  0.00  0.00    +0.000 A 
ATOM     25  C   UNL     1       5.771   4.126  17.799  0.00  0.00    +0.000 A 
BRANCH  25  26
ATOM     26  O   UNL     1       5.734   3.731  19.106  0.00  0.00    +0.000 OA
ATOM     27  H   UNL     1       6.518   3.192  19.301  0.00  0.00    +0.000 HD
ENDBRANCH  25  26
ENDBRANCH  18  20
ENDBRANCH  17  18
ENDBRANCH  16  17
ENDBRANCH   1  16
TORSDOF 6
ENDMDL
MODEL 4
REMARK VINA RESULT:      -7.2      1.498      1.982
REMARK  Name = 
REMARK  9 active torsions:
REMARK  status: ('A' for Active; 'I' for Inactive)
REMARK    1  A    between atoms: C_1  and  N_2
REMARK    2  A    between atoms: C_4  and  C_5
REMARK    3  A    between atoms: C_5  and  C_7
REMARK    4  A    between atoms: C_7  and  O_8
REMARK    5  A    between atoms: O_8  and  C_9
REMARK    6  A    between atoms: C_9  and  C_11
REMARK    7  A    between atoms: C_16  and  O_17
REMARK    8  A    between atoms: C_18  and  C_19
REMARK    9  A    between atoms: C_18  and  C_20
REMARK                            x       y       z     vdW  Elec       q    Type
REMARK                         _______ _______ _______ _____ _____    ______ ____
ROOT
ATOM      1  C   UNL     1       2.489   7.267  18.010  0.00  0.00    +0.000 C 
ATOM      2  O   UNL     1       1.755   6.275  18.032  0.00  0.00    +0.000 OA
ENDROOT
BRANCH   1   6
ATOM      3  C   UNL     1       1.976   7.641  21.146  0.00  0.00    +0.000 C 
ATOM      4  N   UNL     1       1.261   8.730  20.509  0.00  0.00    +0.000 N 
ATOM      5  C   UNL     1       1.344   9.201  19.193  0.00  0.00    +0.000 C 
ATOM      6  C   UNL     1       1.925   8.652  18.104  0.00  0.00    +0.000 C 
ATOM      7  C   UNL     1       0.506  10.536  19.116  0.00  0.00    +0.000 C 
ATOM      8  C   UNL     1      -0.634  10.430  18.091  0.00  0.00    +0.000 C 
ATOM      9  C   UNL     1       1.364  11.777  18.835  0.00  0.00    +0.000 C 
ATOM     10  C   UNL     1      -0.077  10.610  20.523  0.00  0.00    +0.000 A 
ATOM     11  C   UNL     1      -0.938  11.549  21.080  0.00  0.00    +0.000 A 
ATOM     12  C   UNL     1      -1.349  11.373  22.403  0.00  0.00    +0.000 A 
ATOM     13  C   UNL     1      -0.909  10.269  23.143  0.00  0.00    +0.000 A 
ATOM     14  C   UNL     1      -0.038   9.334  22.575  0.00  0.00    +0.000 A 
ATOM     15  C   UNL     1       0.389   9.516  21.268  0.00  0.00    +0.000 A 
ENDBRANCH   1   6
BRANCH   1  16
ATOM     16  C   UNL     1       3.989   7.119  17.761  0.00  0.00    +0.000 C 
BRANCH  16  17
ATOM     17  O   UNL     1       4.262   6.309  16.611  0.00  0.00    +0.000 OA
BRANCH  17  18
ATOM     18  C   UNL     1       5.139   5.300  16.832  0.00  0.00    +0.000 C 
ATOM     19  O   UNL     1       6.315   5.311  16.499  0.00  0.00    +0.000 OA
BRANCH  18  20
ATOM     20  C   UNL     1       4.544   4.196  17.630  0.00  0.00    +0.000 A 
ATOM     21  C   UNL     1       3.444   3.529  17.056  0.00  0.00    +0.000 A 
ATOM     22  C   UNL     1       2.810   2.481  17.730  0.00  0.00    +0.000 A 
ATOM     23  C   UNL     1       3.265   2.090  18.986  0.00  0.00    +0.000 A 
ATOM     24  C   UNL     1       4.347   2.749  19.573  0.00  0.00    +0.000 A 
ATOM     25  C   UNL     1       4.981   3.803  18.902  0.00  0.00    +0.000 A 
BRANCH  25  26
ATOM     26  O   UNL     1       6.000   4.462  19.529  0.00  0.00    +0.000 OA
ATOM     27  H   UNL     1       6.178   5.295  19.063  0.00  0.00    +0.000 HD
ENDBRANCH  25  26
ENDBRANCH  18  20
ENDBRANCH  17  18
ENDBRANCH  16  17
ENDBRANCH   1  16
TORSDOF 6
ENDMDL
MODEL 5
REMARK VINA RESULT:      -7.1      1.960      3.032
REMARK  Name = 
REMARK  9 active torsions:
REMARK  status: ('A' for Active; 'I' for Inactive)
REMARK    1  A    between atoms: C_1  and  N_2
REMARK    2  A    between atoms: C_4  and  C_5
REMARK    3  A    between atoms: C_5  and  C_7
REMARK    4  A    between atoms: C_7  and  O_8
REMARK    5  A    between atoms: O_8  and  C_9
REMARK    6  A    between atoms: C_9  and  C_11
REMARK    7  A    between atoms: C_16  and  O_17
REMARK    8  A    between atoms: C_18  and  C_19
REMARK    9  A    between atoms: C_18  and  C_20
REMARK                            x       y       z     vdW  Elec       q    Type
REMARK                         _______ _______ _______ _____ _____    ______ ____
ROOT
ATOM      1  C   UNL     1       1.748   9.746  18.168  0.00  0.00    +0.000 C 
ATOM      2  O   UNL     1       2.238  10.545  17.365  0.00  0.00    +0.000 OA
ENDROOT
BRANCH   1   6
ATOM      3  C   UNL     1      -1.376  10.023  17.537  0.00  0.00    +0.000 C 
ATOM      4  N   UNL     1      -1.180  10.707  18.800  0.00  0.00    +0.000 N 
ATOM      5  C   UNL     1      -0.078  10.681  19.665  0.00  0.00    +0.000 C 
ATOM      6  C   UNL     1       1.173  10.212  19.471  0.00  0.00    +0.000 C 
ATOM      7  C   UNL     1      -0.499  11.434  20.987  0.00  0.00    +0.000 C 
ATOM      8  C   UNL     1       0.407  12.645  21.261  0.00  0.00    +0.000 C 
ATOM      9  C   UNL     1      -0.554  10.518  22.216  0.00  0.00    +0.000 C 
ATOM     10  C   UNL     1      -1.901  11.916  20.629  0.00  0.00    +0.000 A 
ATOM     11  C   UNL     1      -2.797  12.675  21.373  0.00  0.00    +0.000 A 
ATOM     12  C   UNL     1      -4.026  13.007  20.799  0.00  0.00    +0.000 A 
ATOM     13  C   UNL     1      -4.338  12.591  19.499  0.00  0.00    +0.000 A 
ATOM     14  C   UNL     1      -3.433  11.823  18.762  0.00  0.00    +0.000 A 
ATOM     15  C   UNL     1      -2.219  11.473  19.336  0.00  0.00    +0.000 A 
ENDBRANCH   1   6
BRANCH   1  16
ATOM     16  C   UNL     1       1.824   8.242  17.915  0.00  0.00    +0.000 C 
BRANCH  16  17
ATOM     17  O   UNL     1       2.739   7.596  18.808  0.00  0.00    +0.000 OA
BRANCH  17  18
ATOM     18  C   UNL     1       3.201   6.400  18.368  0.00  0.00    +0.000 C 
ATOM     19  O   UNL     1       4.221   6.243  17.712  0.00  0.00    +0.000 OA
BRANCH  18  20
ATOM     20  C   UNL     1       2.384   5.260  18.861  0.00  0.00    +0.000 A 
ATOM     21  C   UNL     1       2.014   4.294  17.905  0.00  0.00    +0.000 A 
ATOM     22  C   UNL     1       1.240   3.188  18.266  0.00  0.00    +0.000 A 
ATOM     23  C   UNL     1       0.823   3.036  19.585  0.00  0.00    +0.000 A 
ATOM     24  C   UNL     1       1.172   3.991  20.541  0.00  0.00    +0.000 A 
ATOM     25  C   UNL     1       1.943   5.103  20.181  0.00  0.00    +0.000 A 
BRANCH  25  26
ATOM     26  O   UNL     1       2.219   6.047  21.130  0.00  0.00    +0.000 OA
ATOM     27  H   UNL     1       3.058   5.828  21.566  0.00  0.00    +0.000 HD
ENDBRANCH  25  26
ENDBRANCH  18  20
ENDBRANCH  17  18
ENDBRANCH  16  17
ENDBRANCH   1  16
TORSDOF 6
ENDMDL
MODEL 6
REMARK VINA RESULT:      -7.1      2.871      7.063
REMARK  Name = 
REMARK  9 active torsions:
REMARK  status: ('A' for Active; 'I' for Inactive)
REMARK    1  A    between atoms: C_1  and  N_2
REMARK    2  A    between atoms: C_4  and  C_5
REMARK    3  A    between atoms: C_5  and  C_7
REMARK    4  A    between atoms: C_7  and  O_8
REMARK    5  A    between atoms: O_8  and  C_9
REMARK    6  A    between atoms: C_9  and  C_11
REMARK    7  A    between atoms: C_16  and  O_17
REMARK    8  A    between atoms: C_18  and  C_19
REMARK    9  A    between atoms: C_18  and  C_20
REMARK                            x       y       z     vdW  Elec       q    Type
REMARK                         _______ _______ _______ _____ _____    ______ ____
ROOT
ATOM      1  C   UNL     1       2.713   3.041  17.572  0.00  0.00    +0.000 C 
ATOM      2  O   UNL     1       2.826   1.814  17.629  0.00  0.00    +0.000 OA
ENDROOT
BRANCH   1   6
ATOM      3  C   UNL     1       5.252   3.401  19.485  0.00  0.00    +0.000 C 
ATOM      4  N   UNL     1       5.437   4.366  18.419  0.00  0.00    +0.000 N 
ATOM      5  C   UNL     1       4.776   4.472  17.189  0.00  0.00    +0.000 C 
ATOM      6  C   UNL     1       3.651   3.868  16.747  0.00  0.00    +0.000 C 
ATOM      7  C   UNL     1       5.531   5.568  16.341  0.00  0.00    +0.000 C 
ATOM      8  C   UNL     1       4.599   6.731  15.963  0.00  0.00    +0.000 C 
ATOM      9  C   UNL     1       6.216   5.004  15.089  0.00  0.00    +0.000 C 
ATOM     10  C   UNL     1       6.578   6.055  17.337  0.00  0.00    +0.000 A 
ATOM     11  C   UNL     1       7.540   7.049  17.200  0.00  0.00    +0.000 A 
ATOM     12  C   UNL     1       8.374   7.323  18.287  0.00  0.00    +0.000 A 
ATOM     13  C   UNL     1       8.232   6.615  19.487  0.00  0.00    +0.000 A 
ATOM     14  C   UNL     1       7.265   5.614  19.612  0.00  0.00    +0.000 A 
ATOM     15  C   UNL     1       6.448   5.325  18.528  0.00  0.00    +0.000 A 
ENDBRANCH   1   6
BRANCH   1  16
ATOM     16  C   UNL     1       1.689   3.770  18.439  0.00  0.00    +0.000 C 
BRANCH  16  17
ATOM     17  O   UNL     1       1.748   5.190  18.257  0.00  0.00    +0.000 OA
BRANCH  17  18
ATOM     18  C   UNL     1       2.165   5.877  19.347  0.00  0.00    +0.000 C 
ATOM     19  O   UNL     1       2.801   5.398  20.275  0.00  0.00    +0.000 OA
BRANCH  18  20
ATOM     20  C   UNL     1       1.856   7.329  19.255  0.00  0.00    +0.000 A 
ATOM     21  C   UNL     1       1.941   7.908  17.974  0.00  0.00    +0.000 A 
ATOM     22  C   UNL     1       1.678   9.267  17.784  0.00  0.00    +0.000 A 
ATOM     23  C   UNL     1       1.328  10.064  18.871  0.00  0.00    +0.000 A 
ATOM     24  C   UNL     1       1.251   9.506  20.148  0.00  0.00    +0.000 A 
ATOM     25  C   UNL     1       1.520   8.145  20.342  0.00  0.00    +0.000 A 
BRANCH  25  26
ATOM     26  O   UNL     1       1.490   7.645  21.614  0.00  0.00    +0.000 OA
ATOM     27  H   UNL     1       2.337   7.828  22.051  0.00  0.00    +0.000 HD
ENDBRANCH  25  26
ENDBRANCH  18  20
ENDBRANCH  17  18
ENDBRANCH  16  17
ENDBRANCH   1  16
TORSDOF 6
ENDMDL
MODEL 7
REMARK VINA RESULT:      -7.0      3.180      7.989
REMARK  Name = 
REMARK  9 active torsions:
REMARK  status: ('A' for Active; 'I' for Inactive)
REMARK    1  A    between atoms: C_1  and  N_2
REMARK    2  A    between atoms: C_4  and  C_5
REMARK    3  A    between atoms: C_5  and  C_7
REMARK    4  A    between atoms: C_7  and  O_8
REMARK    5  A    between atoms: O_8  and  C_9
REMARK    6  A    between atoms: C_9  and  C_11
REMARK    7  A    between atoms: C_16  and  O_17
REMARK    8  A    between atoms: C_18  and  C_19
REMARK    9  A    between atoms: C_18  and  C_20
REMARK                            x       y       z     vdW  Elec       q    Type
REMARK                         _______ _______ _______ _____ _____    ______ ____
ROOT
ATOM      1  C   UNL     1       3.760   4.293  19.804  0.00  0.00    +0.000 C 
ATOM      2  O   UNL     1       3.867   3.133  20.213  0.00  0.00    +0.000 OA
ENDROOT
BRANCH   1   6
ATOM      3  C   UNL     1       3.170   3.903  16.684  0.00  0.00    +0.000 C 
ATOM      4  N   UNL     1       4.543   4.362  16.758  0.00  0.00    +0.000 N 
ATOM      5  C   UNL     1       5.236   4.926  17.837  0.00  0.00    +0.000 C 
ATOM      6  C   UNL     1       4.910   4.992  19.146  0.00  0.00    +0.000 C 
ATOM      7  C   UNL     1       6.627   5.434  17.290  0.00  0.00    +0.000 C 
ATOM      8  C   UNL     1       7.801   4.751  18.009  0.00  0.00    +0.000 C 
ATOM      9  C   UNL     1       6.780   6.960  17.345  0.00  0.00    +0.000 C 
ATOM     10  C   UNL     1       6.573   4.965  15.840  0.00  0.00    +0.000 A 
ATOM     11  C   UNL     1       7.523   5.082  14.832  0.00  0.00    +0.000 A 
ATOM     12  C   UNL     1       7.234   4.538  13.578  0.00  0.00    +0.000 A 
ATOM     13  C   UNL     1       6.018   3.882  13.351  0.00  0.00    +0.000 A 
ATOM     14  C   UNL     1       5.067   3.776  14.370  0.00  0.00    +0.000 A 
ATOM     15  C   UNL     1       5.341   4.332  15.611  0.00  0.00    +0.000 A 
ENDBRANCH   1   6
BRANCH   1  16
ATOM     16  C   UNL     1       2.488   5.097  20.068  0.00  0.00    +0.000 C 
BRANCH  16  17
ATOM     17  O   UNL     1       2.755   6.500  20.169  0.00  0.00    +0.000 OA
BRANCH  17  18
ATOM     18  C   UNL     1       2.258   7.239  19.148  0.00  0.00    +0.000 C 
ATOM     19  O   UNL     1       2.271   6.904  17.971  0.00  0.00    +0.000 OA
BRANCH  18  20
ATOM     20  C   UNL     1       1.585   8.478  19.618  0.00  0.00    +0.000 A 
ATOM     21  C   UNL     1       1.148   8.485  20.957  0.00  0.00    +0.000 A 
ATOM     22  C   UNL     1       0.498   9.600  21.493  0.00  0.00    +0.000 A 
ATOM     23  C   UNL     1       0.274  10.719  20.697  0.00  0.00    +0.000 A 
ATOM     24  C   UNL     1       0.691  10.724  19.366  0.00  0.00    +0.000 A 
ATOM     25  C   UNL     1       1.338   9.605  18.824  0.00  0.00    +0.000 A 
BRANCH  25  26
ATOM     26  O   UNL     1       1.682   9.622  17.502  0.00  0.00    +0.000 OA
ATOM     27  H   UNL     1       2.343   8.932  17.334  0.00  0.00    +0.000 HD
ENDBRANCH  25  26
ENDBRANCH  18  20
ENDBRANCH  17  18
ENDBRANCH  16  17
ENDBRANCH   1  16
TORSDOF 6
ENDMDL
MODEL 8
REMARK VINA RESULT:      -7.0      1.238      1.463
REMARK  Name = 
REMARK  9 active torsions:
REMARK  status: ('A' for Active; 'I' for Inactive)
REMARK    1  A    between atoms: C_1  and  N_2
REMARK    2  A    between atoms: C_4  and  C_5
REMARK    3  A    between atoms: C_5  and  C_7
REMARK    4  A    between atoms: C_7  and  O_8
REMARK    5  A    between atoms: O_8  and  C_9
REMARK    6  A    between atoms: C_9  and  C_11
REMARK    7  A    between atoms: C_16  and  O_17
REMARK    8  A    between atoms: C_18  and  C_19
REMARK    9  A    between atoms: C_18  and  C_20
REMARK                            x       y       z     vdW  Elec       q    Type
REMARK                         _______ _______ _______ _____ _____    ______ ____
ROOT
ATOM      1  C   UNL     1       1.954   8.488  17.800  0.00  0.00    +0.000 C 
ATOM      2  O   UNL     1       1.023   7.789  17.390  0.00  0.00    +0.000 OA
ENDROOT
BRANCH   1   6
ATOM      3  C   UNL     1       1.154   8.250  20.889  0.00  0.00    +0.000 C 
ATOM      4  N   UNL     1       0.808   9.605  20.508  0.00  0.00    +0.000 N 
ATOM      5  C   UNL     1       1.168  10.328  19.364  0.00  0.00    +0.000 C 
ATOM      6  C   UNL     1       1.733   9.912  18.209  0.00  0.00    +0.000 C 
ATOM      7  C   UNL     1       0.693  11.818  19.579  0.00  0.00    +0.000 C 
ATOM      8  C   UNL     1      -0.301  12.257  18.491  0.00  0.00    +0.000 C 
ATOM      9  C   UNL     1       1.852  12.818  19.678  0.00  0.00    +0.000 C 
ATOM     10  C   UNL     1      -0.029  11.716  20.918  0.00  0.00    +0.000 A 
ATOM     11  C   UNL     1      -0.702  12.694  21.641  0.00  0.00    +0.000 A 
ATOM     12  C   UNL     1      -1.307  12.333  22.847  0.00  0.00    +0.000 A 
ATOM     13  C   UNL     1      -1.242  11.011  23.306  0.00  0.00    +0.000 A 
ATOM     14  C   UNL     1      -0.557  10.037  22.574  0.00  0.00    +0.000 A 
ATOM     15  C   UNL     1       0.062  10.397  21.386  0.00  0.00    +0.000 A 
ENDBRANCH   1   6
BRANCH   1  16
ATOM     16  C   UNL     1       3.388   7.961  17.785  0.00  0.00    +0.000 C 
BRANCH  16  17
ATOM     17  O   UNL     1       3.503   6.706  18.466  0.00  0.00    +0.000 OA
BRANCH  17  18
ATOM     18  C   UNL     1       3.882   5.673  17.675  0.00  0.00    +0.000 C 
ATOM     19  O   UNL     1       4.679   5.756  16.752  0.00  0.00    +0.000 OA
BRANCH  18  20
ATOM     20  C   UNL     1       3.301   4.377  18.116  0.00  0.00    +0.000 A 
ATOM     21  C   UNL     1       1.903   4.247  18.004  0.00  0.00    +0.000 A 
ATOM     22  C   UNL     1       1.260   3.071  18.399  0.00  0.00    +0.000 A 
ATOM     23  C   UNL     1       2.005   2.013  18.912  0.00  0.00    +0.000 A 
ATOM     24  C   UNL     1       3.390   2.132  19.039  0.00  0.00    +0.000 A 
ATOM     25  C   UNL     1       4.036   3.311  18.649  0.00  0.00    +0.000 A 
BRANCH  25  26
ATOM     26  O   UNL     1       5.385   3.414  18.840  0.00  0.00    +0.000 OA
ATOM     27  H   UNL     1       5.837   3.339  17.984  0.00  0.00    +0.000 HD
ENDBRANCH  25  26
ENDBRANCH  18  20
ENDBRANCH  17  18
ENDBRANCH  16  17
ENDBRANCH   1  16
TORSDOF 6
ENDMDL
MODEL 9
REMARK VINA RESULT:      -7.0      1.734      2.643
REMARK  Name = 
REMARK  9 active torsions:
REMARK  status: ('A' for Active; 'I' for Inactive)
REMARK    1  A    between atoms: C_1  and  N_2
REMARK    2  A    between atoms: C_4  and  C_5
REMARK    3  A    between atoms: C_5  and  C_7
REMARK    4  A    between atoms: C_7  and  O_8
REMARK    5  A    between atoms: O_8  and  C_9
REMARK    6  A    between atoms: C_9  and  C_11
REMARK    7  A    between atoms: C_16  and  O_17
REMARK    8  A    between atoms: C_18  and  C_19
REMARK    9  A    between atoms: C_18  and  C_20
REMARK                            x       y       z     vdW  Elec       q    Type
REMARK                         _______ _______ _______ _____ _____    ______ ____
ROOT
ATOM      1  C   UNL     1       1.728   9.350  18.195  0.00  0.00    +0.000 C 
ATOM      2  O   UNL     1       2.234  10.107  17.362  0.00  0.00    +0.000 OA
ENDROOT
BRANCH   1   6
ATOM      3  C   UNL     1      -1.368   9.831  17.548  0.00  0.00    +0.000 C 
ATOM      4  N   UNL     1      -1.129  10.519  18.802  0.00  0.00    +0.000 N 
ATOM      5  C   UNL     1      -0.034  10.431  19.671  0.00  0.00    +0.000 C 
ATOM      6  C   UNL     1       1.183   9.873  19.489  0.00  0.00    +0.000 C 
ATOM      7  C   UNL     1      -0.405  11.230  20.980  0.00  0.00    +0.000 C 
ATOM      8  C   UNL     1       0.581  12.380  21.239  0.00  0.00    +0.000 C 
ATOM      9  C   UNL     1      -0.527  10.339  22.223  0.00  0.00    +0.000 C 
ATOM     10  C   UNL     1      -1.770  11.802  20.609  0.00  0.00    +0.000 A 
ATOM     11  C   UNL     1      -2.613  12.632  21.339  0.00  0.00    +0.000 A 
ATOM     12  C   UNL     1      -3.815  13.039  20.755  0.00  0.00    +0.000 A 
ATOM     13  C   UNL     1      -4.152  12.625  19.460  0.00  0.00    +0.000 A 
ATOM     14  C   UNL     1      -3.299  11.786  18.738  0.00  0.00    +0.000 A 
ATOM     15  C   UNL     1      -2.114  11.363  19.322  0.00  0.00    +0.000 A 
ENDBRANCH   1   6
BRANCH   1  16
ATOM     16  C   UNL     1       1.754   7.837  17.988  0.00  0.00    +0.000 C 
BRANCH  16  17
ATOM     17  O   UNL     1       2.928   7.240  18.552  0.00  0.00    +0.000 OA
BRANCH  17  18
ATOM     18  C   UNL     1       3.139   5.956  18.175  0.00  0.00    +0.000 C 
ATOM     19  O   UNL     1       3.904   5.605  17.287  0.00  0.00    +0.000 OA
BRANCH  18  20
ATOM     20  C   UNL     1       2.415   4.985  19.036  0.00  0.00    +0.000 A 
ATOM     21  C   UNL     1       2.727   5.009  20.409  0.00  0.00    +0.000 A 
ATOM     22  C   UNL     1       2.106   4.130  21.301  0.00  0.00    +0.000 A 
ATOM     23  C   UNL     1       1.167   3.216  20.831  0.00  0.00    +0.000 A 
ATOM     24  C   UNL     1       0.855   3.173  19.472  0.00  0.00    +0.000 A 
ATOM     25  C   UNL     1       1.481   4.049  18.575  0.00  0.00    +0.000 A 
BRANCH  25  26
ATOM     26  O   UNL     1       1.193   3.941  17.243  0.00  0.00    +0.000 OA
ATOM     27  H   UNL     1       1.023   4.825  16.879  0.00  0.00    +0.000 HD
ENDBRANCH  25  26
ENDBRANCH  18  20
ENDBRANCH  17  18
ENDBRANCH  16  17
ENDBRANCH   1  16
TORSDOF 6
ENDMDL
