MODEL 1
REMARK VINA RESULT:      -6.7      0.000      0.000
REMARK  Name = 
REMARK  6 active torsions:
REMARK  status: ('A' for Active; 'I' for Inactive)
REMARK    1  A    between atoms: C_1  and  N_2
REMARK    2  A    between atoms: N_2  and  C_3
REMARK    3  A    between atoms: N_2  and  C_6
REMARK    4  A    between atoms: C_3  and  C_4
REMARK    5  A    between atoms: C_4  and  N_5
REMARK    6  A    between atoms: C_8  and  C_9
REMARK                            x       y       z     vdW  Elec       q    Type
REMARK                         _______ _______ _______ _____ _____    ______ ____
ROOT
ATOM      1  C   UNL     1       2.218   5.569  19.984  0.00  0.00    +0.000 A 
ATOM      2  N   UNL     1       1.504   6.549  20.617  0.00  0.00    +0.000 NA
ATOM      3  C   UNL     1       1.581   7.836  20.241  0.00  0.00    +0.000 A 
ATOM      4  N   UNL     1       2.327   8.293  19.240  0.00  0.00    +0.000 NA
ATOM      5  C   UNL     1       3.016   7.335  18.604  0.00  0.00    +0.000 A 
ATOM      6  S   UNL     1       3.955   7.779  17.253  0.00  0.00    +0.000 S 
ATOM      7  C   UNL     1       4.406   6.175  16.968  0.00  0.00    +0.000 A 
ATOM      8  C   UNL     1       3.905   5.294  17.912  0.00  0.00    +0.000 A 
ATOM      9  C   UNL     1       3.045   5.971  18.891  0.00  0.00    +0.000 A 
ATOM     10  C   UNL     1       4.221   3.827  17.800  0.00  0.00    +0.000 C 
ATOM     11  C   UNL     1       5.264   3.479  16.730  0.00  0.00    +0.000 C 
ATOM     12  C   UNL     1       5.118   4.326  15.469  0.00  0.00    +0.000 C 
ATOM     13  C   UNL     1       5.274   5.812  15.802  0.00  0.00    +0.000 C 
ENDROOT
BRANCH   3  14
ATOM     14  C   UNL     1       0.752   8.818  20.976  0.00  0.00    +0.000 A 
ATOM     15  C   UNL     1       0.558   8.733  22.362  0.00  0.00    +0.000 A 
ATOM     16  C   UNL     1      -0.235   9.675  23.004  0.00  0.00    +0.000 A 
ATOM     17  N   UNL     1      -0.854  10.689  22.371  0.00  0.00    +0.000 NA
ATOM     18  C   UNL     1      -0.667  10.768  21.038  0.00  0.00    +0.000 A 
ATOM     19  C   UNL     1       0.107   9.877  20.313  0.00  0.00    +0.000 A 
ENDBRANCH   3  14
BRANCH   1  21
ATOM     20  C   UNL     1       2.511   3.781  21.664  0.00  0.00    +0.000 C 
ATOM     21  N   UNL     1       1.980   4.262  20.404  0.00  0.00    +0.000 N 
BRANCH  21  22
ATOM     22  C   UNL     1       0.724   3.623  19.963  0.00  0.00    +0.000 C 
BRANCH  22  23
ATOM     23  C   UNL     1       0.937   2.818  18.665  0.00  0.00    +0.000 C 
BRANCH  23  24
ATOM     24  N   UNL     1       1.706   1.588  18.909  0.00  0.00    +0.000 NA
ATOM     25  H   UNL     1       1.718   1.448  19.919  0.00  0.00    +0.000 HD
ATOM     26  H   UNL     1       2.677   1.749  18.632  0.00  0.00    +0.000 HD
ENDBRANCH  23  24
ENDBRANCH  22  23
ENDBRANCH  21  22
ENDBRANCH   1  21
TORSDOF 5
ENDMDL
MODEL 2
REMARK VINA RESULT:      -6.4      1.129      1.966
REMARK  Name = 
REMARK  6 active torsions:
REMARK  status: ('A' for Active; 'I' for Inactive)
REMARK    1  A    between atoms: C_1  and  N_2
REMARK    2  A    between atoms: N_2  and  C_3
REMARK    3  A    between atoms: N_2  and  C_6
REMARK    4  A    between atoms: C_3  and  C_4
REMARK    5  A    between atoms: C_4  and  N_5
REMARK    6  A    between atoms: C_8  and  C_9
REMARK                            x       y       z     vdW  Elec       q    Type
REMARK                         _______ _______ _______ _____ _____    ______ ____
ROOT
ATOM      1  C   UNL     1       2.746   5.151  18.974  0.00  0.00    +0.000 A 
ATOM      2  N   UNL     1       2.053   6.113  19.657  0.00  0.00    +0.000 NA
ATOM      3  C   UNL     1       2.209   7.419  19.393  0.00  0.00    +0.000 A 
ATOM      4  N   UNL     1       3.021   7.916  18.464  0.00  0.00    +0.000 NA
ATOM      5  C   UNL     1       3.689   6.979  17.779  0.00  0.00    +0.000 A 
ATOM      6  S   UNL     1       4.707   7.481  16.508  0.00  0.00    +0.000 S 
ATOM      7  C   UNL     1       5.093   5.884  16.109  0.00  0.00    +0.000 A 
ATOM      8  C   UNL     1       4.508   4.957  16.956  0.00  0.00    +0.000 A 
ATOM      9  C   UNL     1       3.639   5.597  17.952  0.00  0.00    +0.000 A 
ATOM     10  C   UNL     1       4.756   3.489  16.735  0.00  0.00    +0.000 C 
ATOM     11  C   UNL     1       5.827   3.175  15.683  0.00  0.00    +0.000 C 
ATOM     12  C   UNL     1       5.779   4.128  14.492  0.00  0.00    +0.000 C 
ATOM     13  C   UNL     1       5.993   5.572  14.953  0.00  0.00    +0.000 C 
ENDROOT
BRANCH   3  14
ATOM     14  C   UNL     1       1.397   8.382  20.172  0.00  0.00    +0.000 A 
ATOM     15  C   UNL     1       0.899   9.562  19.601  0.00  0.00    +0.000 A 
ATOM     16  C   UNL     1       0.149  10.436  20.377  0.00  0.00    +0.000 A 
ATOM     17  N   UNL     1      -0.138  10.228  21.676  0.00  0.00    +0.000 NA
ATOM     18  C   UNL     1       0.343   9.092  22.222  0.00  0.00    +0.000 A 
ATOM     19  C   UNL     1       1.098   8.161  21.527  0.00  0.00    +0.000 A 
ENDBRANCH   3  14
BRANCH   1  21
ATOM     20  C   UNL     1       1.527   3.073  18.425  0.00  0.00    +0.000 C 
ATOM     21  N   UNL     1       2.426   3.828  19.275  0.00  0.00    +0.000 N 
BRANCH  21  22
ATOM     22  C   UNL     1       3.440   3.029  19.990  0.00  0.00    +0.000 C 
BRANCH  22  23
ATOM     23  C   UNL     1       2.885   2.495  21.326  0.00  0.00    +0.000 C 
BRANCH  23  24
ATOM     24  N   UNL     1       2.085   3.511  22.028  0.00  0.00    +0.000 NA
ATOM     25  H   UNL     1       2.741   4.221  22.355  0.00  0.00    +0.000 HD
ATOM     26  H   UNL     1       1.683   3.087  22.867  0.00  0.00    +0.000 HD
ENDBRANCH  23  24
ENDBRANCH  22  23
ENDBRANCH  21  22
ENDBRANCH   1  21
TORSDOF 5
ENDMDL
MODEL 3
REMARK VINA RESULT:      -6.4      2.186      6.511
REMARK  Name = 
REMARK  6 active torsions:
REMARK  status: ('A' for Active; 'I' for Inactive)
REMARK    1  A    between atoms: C_1  and  N_2
REMARK    2  A    between atoms: N_2  and  C_3
REMARK    3  A    between atoms: N_2  and  C_6
REMARK    4  A    between atoms: C_3  and  C_4
REMARK    5  A    between atoms: C_4  and  N_5
REMARK    6  A    between atoms: C_8  and  C_9
REMARK                            x       y       z     vdW  Elec       q    Type
REMARK                         _______ _______ _______ _____ _____    ______ ____
ROOT
ATOM      1  C   UNL     1       2.702   5.730  19.427  0.00  0.00    +0.000 A 
ATOM      2  N   UNL     1       3.677   5.316  18.562  0.00  0.00    +0.000 NA
ATOM      3  C   UNL     1       4.184   6.130  17.623  0.00  0.00    +0.000 A 
ATOM      4  N   UNL     1       3.817   7.394  17.433  0.00  0.00    +0.000 NA
ATOM      5  C   UNL     1       2.874   7.813  18.289  0.00  0.00    +0.000 A 
ATOM      6  S   UNL     1       2.369   9.438  18.200  0.00  0.00    +0.000 S 
ATOM      7  C   UNL     1       1.331   9.247  19.522  0.00  0.00    +0.000 A 
ATOM      8  C   UNL     1       1.309   7.951  20.011  0.00  0.00    +0.000 A 
ATOM      9  C   UNL     1       2.250   7.079  19.297  0.00  0.00    +0.000 A 
ATOM     10  C   UNL     1       0.431   7.617  21.187  0.00  0.00    +0.000 C 
ATOM     11  C   UNL     1      -0.529   8.739  21.605  0.00  0.00    +0.000 C 
ATOM     12  C   UNL     1       0.101  10.124  21.493  0.00  0.00    +0.000 C 
ATOM     13  C   UNL     1       0.535  10.400  20.052  0.00  0.00    +0.000 C 
ENDROOT
BRANCH   3  14
ATOM     14  C   UNL     1       5.253   5.593  16.750  0.00  0.00    +0.000 A 
ATOM     15  C   UNL     1       5.174   5.672  15.352  0.00  0.00    +0.000 A 
ATOM     16  C   UNL     1       6.199   5.147  14.576  0.00  0.00    +0.000 A 
ATOM     17  N   UNL     1       7.291   4.544  15.085  0.00  0.00    +0.000 NA
ATOM     18  C   UNL     1       7.363   4.470  16.429  0.00  0.00    +0.000 A 
ATOM     19  C   UNL     1       6.391   4.967  17.283  0.00  0.00    +0.000 A 
ENDBRANCH   3  14
BRANCH   1  21
ATOM     20  C   UNL     1       1.011   4.217  20.404  0.00  0.00    +0.000 C 
ATOM     21  N   UNL     1       2.327   4.824  20.417  0.00  0.00    +0.000 N 
BRANCH  21  22
ATOM     22  C   UNL     1       3.392   4.008  21.031  0.00  0.00    +0.000 C 
BRANCH  22  23
ATOM     23  C   UNL     1       3.502   2.630  20.347  0.00  0.00    +0.000 C 
BRANCH  23  24
ATOM     24  N   UNL     1       4.776   2.480  19.628  0.00  0.00    +0.000 NA
ATOM     25  H   UNL     1       4.998   1.484  19.637  0.00  0.00    +0.000 HD
ATOM     26  H   UNL     1       5.512   2.941  20.168  0.00  0.00    +0.000 HD
ENDBRANCH  23  24
ENDBRANCH  22  23
ENDBRANCH  21  22
ENDBRANCH   1  21
TORSDOF 5
ENDMDL
MODEL 4
REMARK VINA RESULT:      -6.4      0.846      1.300
REMARK  Name = 
REMARK  6 active torsions:
REMARK  status: ('A' for Active; 'I' for Inactive)
REMARK    1  A    between atoms: C_1  and  N_2
REMARK    2  A    between atoms: N_2  and  C_3
REMARK    3  A    between atoms: N_2  and  C_6
REMARK    4  A    between atoms: C_3  and  C_4
REMARK    5  A    between atoms: C_4  and  N_5
REMARK    6  A    between atoms: C_8  and  C_9
REMARK                            x       y       z     vdW  Elec       q    Type
REMARK                         _______ _______ _______ _____ _____    ______ ____
ROOT
ATOM      1  C   UNL     1       2.671   5.281  19.288  0.00  0.00    +0.000 A 
ATOM      2  N   UNL     1       1.967   6.247  19.953  0.00  0.00    +0.000 NA
ATOM      3  C   UNL     1       2.068   7.545  19.629  0.00  0.00    +0.000 A 
ATOM      4  N   UNL     1       2.831   8.030  18.654  0.00  0.00    +0.000 NA
ATOM      5  C   UNL     1       3.510   7.087  17.986  0.00  0.00    +0.000 A 
ATOM      6  S   UNL     1       4.468   7.569  16.662  0.00  0.00    +0.000 S 
ATOM      7  C   UNL     1       4.897   5.970  16.317  0.00  0.00    +0.000 A 
ATOM      8  C   UNL     1       4.373   5.061  17.221  0.00  0.00    +0.000 A 
ATOM      9  C   UNL     1       3.515   5.713  18.219  0.00  0.00    +0.000 A 
ATOM     10  C   UNL     1       4.667   3.594  17.053  0.00  0.00    +0.000 C 
ATOM     11  C   UNL     1       5.714   3.272  15.980  0.00  0.00    +0.000 C 
ATOM     12  C   UNL     1       5.594   4.171  14.753  0.00  0.00    +0.000 C 
ATOM     13  C   UNL     1       5.771   5.640  15.145  0.00  0.00    +0.000 C 
ENDROOT
BRANCH   3  14
ATOM     14  C   UNL     1       1.247   8.512  20.394  0.00  0.00    +0.000 A 
ATOM     15  C   UNL     1       0.586   9.579  19.769  0.00  0.00    +0.000 A 
ATOM     16  C   UNL     1      -0.165  10.462  20.533  0.00  0.00    +0.000 A 
ATOM     17  N   UNL     1      -0.303  10.369  21.869  0.00  0.00    +0.000 NA
ATOM     18  C   UNL     1       0.334   9.342  22.467  0.00  0.00    +0.000 A 
ATOM     19  C   UNL     1       1.104   8.411  21.789  0.00  0.00    +0.000 A 
ENDBRANCH   3  14
BRANCH   1  21
ATOM     20  C   UNL     1       3.306   3.247  20.538  0.00  0.00    +0.000 C 
ATOM     21  N   UNL     1       2.409   3.962  19.654  0.00  0.00    +0.000 N 
BRANCH  21  22
ATOM     22  C   UNL     1       0.995   3.540  19.712  0.00  0.00    +0.000 C 
BRANCH  22  23
ATOM     23  C   UNL     1       0.777   2.222  18.942  0.00  0.00    +0.000 C 
BRANCH  23  24
ATOM     24  N   UNL     1       1.698   2.099  17.802  0.00  0.00    +0.000 NA
ATOM     25  H   UNL     1       2.642   2.125  18.189  0.00  0.00    +0.000 HD
ATOM     26  H   UNL     1       1.607   2.933  17.217  0.00  0.00    +0.000 HD
ENDBRANCH  23  24
ENDBRANCH  22  23
ENDBRANCH  21  22
ENDBRANCH   1  21
TORSDOF 5
ENDMDL
MODEL 5
REMARK VINA RESULT:      -6.4      1.253      1.543
REMARK  Name = 
REMARK  6 active torsions:
REMARK  status: ('A' for Active; 'I' for Inactive)
REMARK    1  A    between atoms: C_1  and  N_2
REMARK    2  A    between atoms: N_2  and  C_3
REMARK    3  A    between atoms: N_2  and  C_6
REMARK    4  A    between atoms: C_3  and  C_4
REMARK    5  A    between atoms: C_4  and  N_5
REMARK    6  A    between atoms: C_8  and  C_9
REMARK                            x       y       z     vdW  Elec       q    Type
REMARK                         _______ _______ _______ _____ _____    ______ ____
ROOT
ATOM      1  C   UNL     1       2.589   5.301  19.132  0.00  0.00    +0.000 A 
ATOM      2  N   UNL     1       1.904   6.276  19.803  0.00  0.00    +0.000 NA
ATOM      3  C   UNL     1       2.073   7.579  19.525  0.00  0.00    +0.000 A 
ATOM      4  N   UNL     1       2.890   8.058  18.592  0.00  0.00    +0.000 NA
ATOM      5  C   UNL     1       3.550   7.107  17.917  0.00  0.00    +0.000 A 
ATOM      6  S   UNL     1       4.574   7.586  16.643  0.00  0.00    +0.000 S 
ATOM      7  C   UNL     1       4.945   5.981  16.261  0.00  0.00    +0.000 A 
ATOM      8  C   UNL     1       4.351   5.069  17.118  0.00  0.00    +0.000 A 
ATOM      9  C   UNL     1       3.487   5.727  18.106  0.00  0.00    +0.000 A 
ATOM     10  C   UNL     1       4.586   3.597  16.913  0.00  0.00    +0.000 C 
ATOM     11  C   UNL     1       5.655   3.261  15.865  0.00  0.00    +0.000 C 
ATOM     12  C   UNL     1       5.617   4.201  14.664  0.00  0.00    +0.000 C 
ATOM     13  C   UNL     1       5.844   5.648  15.109  0.00  0.00    +0.000 C 
ENDROOT
BRANCH   3  14
ATOM     14  C   UNL     1       1.268   8.557  20.293  0.00  0.00    +0.000 A 
ATOM     15  C   UNL     1       1.082   8.435  21.678  0.00  0.00    +0.000 A 
ATOM     16  C   UNL     1       0.313   9.374  22.352  0.00  0.00    +0.000 A 
ATOM     17  N   UNL     1      -0.290  10.419  21.753  0.00  0.00    +0.000 NA
ATOM     18  C   UNL     1      -0.109  10.532  20.421  0.00  0.00    +0.000 A 
ATOM     19  C   UNL     1       0.642   9.647  19.666  0.00  0.00    +0.000 A 
ENDBRANCH   3  14
BRANCH   1  21
ATOM     20  C   UNL     1       1.524   3.161  18.505  0.00  0.00    +0.000 C 
ATOM     21  N   UNL     1       2.256   3.984  19.446  0.00  0.00    +0.000 N 
BRANCH  21  22
ATOM     22  C   UNL     1       3.162   3.253  20.354  0.00  0.00    +0.000 C 
BRANCH  22  23
ATOM     23  C   UNL     1       3.724   1.987  19.677  0.00  0.00    +0.000 C 
BRANCH  23  24
ATOM     24  N   UNL     1       5.121   1.738  20.062  0.00  0.00    +0.000 NA
ATOM     25  H   UNL     1       5.586   2.647  20.070  0.00  0.00    +0.000 HD
ATOM     26  H   UNL     1       5.572   1.194  19.322  0.00  0.00    +0.000 HD
ENDBRANCH  23  24
ENDBRANCH  22  23
ENDBRANCH  21  22
ENDBRANCH   1  21
TORSDOF 5
ENDMDL
MODEL 6
REMARK VINA RESULT:      -6.3      0.916      1.303
REMARK  Name = 
REMARK  6 active torsions:
REMARK  status: ('A' for Active; 'I' for Inactive)
REMARK    1  A    between atoms: C_1  and  N_2
REMARK    2  A    between atoms: N_2  and  C_3
REMARK    3  A    between atoms: N_2  and  C_6
REMARK    4  A    between atoms: C_3  and  C_4
REMARK    5  A    between atoms: C_4  and  N_5
REMARK    6  A    between atoms: C_8  and  C_9
REMARK                            x       y       z     vdW  Elec       q    Type
REMARK                         _______ _______ _______ _____ _____    ______ ____
ROOT
ATOM      1  C   UNL     1       1.806   5.868  20.335  0.00  0.00    +0.000 A 
ATOM      2  N   UNL     1       1.109   6.892  20.915  0.00  0.00    +0.000 NA
ATOM      3  C   UNL     1       1.226   8.159  20.487  0.00  0.00    +0.000 A 
ATOM      4  N   UNL     1       1.999   8.554  19.480  0.00  0.00    +0.000 NA
ATOM      5  C   UNL     1       2.671   7.553  18.895  0.00  0.00    +0.000 A 
ATOM      6  S   UNL     1       3.642   7.915  17.542  0.00  0.00    +0.000 S 
ATOM      7  C   UNL     1       4.055   6.289  17.331  0.00  0.00    +0.000 A 
ATOM      8  C   UNL     1       3.516   5.462  18.303  0.00  0.00    +0.000 A 
ATOM      9  C   UNL     1       2.660   6.202  19.239  0.00  0.00    +0.000 A 
ATOM     10  C   UNL     1       3.794   3.984  18.257  0.00  0.00    +0.000 C 
ATOM     11  C   UNL     1       4.843   3.564  17.220  0.00  0.00    +0.000 C 
ATOM     12  C   UNL     1       4.739   4.361  15.922  0.00  0.00    +0.000 C 
ATOM     13  C   UNL     1       4.930   5.855  16.195  0.00  0.00    +0.000 C 
ENDROOT
BRANCH   3  14
ATOM     14  C   UNL     1       0.412   9.193  21.167  0.00  0.00    +0.000 A 
ATOM     15  C   UNL     1       0.072   9.091  22.523  0.00  0.00    +0.000 A 
ATOM     16  C   UNL     1      -0.700  10.084  23.113  0.00  0.00    +0.000 A 
ATOM     17  N   UNL     1      -1.163  11.164  22.455  0.00  0.00    +0.000 NA
ATOM     18  C   UNL     1      -0.834  11.257  21.150  0.00  0.00    +0.000 A 
ATOM     19  C   UNL     1      -0.068  10.319  20.478  0.00  0.00    +0.000 A 
ENDBRANCH   3  14
BRANCH   1  21
ATOM     20  C   UNL     1       0.763   3.652  20.002  0.00  0.00    +0.000 C 
ATOM     21  N   UNL     1       1.527   4.585  20.805  0.00  0.00    +0.000 N 
BRANCH  21  22
ATOM     22  C   UNL     1       2.502   3.973  21.729  0.00  0.00    +0.000 C 
BRANCH  22  23
ATOM     23  C   UNL     1       2.615   2.454  21.489  0.00  0.00    +0.000 C 
BRANCH  23  24
ATOM     24  N   UNL     1       4.009   2.041  21.266  0.00  0.00    +0.000 NA
ATOM     25  H   UNL     1       4.117   1.131  21.714  0.00  0.00    +0.000 HD
ATOM     26  H   UNL     1       4.624   2.682  21.773  0.00  0.00    +0.000 HD
ENDBRANCH  23  24
ENDBRANCH  22  23
ENDBRANCH  21  22
ENDBRANCH   1  21
TORSDOF 5
ENDMDL
MODEL 7
REMARK VINA RESULT:      -6.2      4.146      6.797
REMARK  Name = 
REMARK  6 active torsions:
REMARK  status: ('A' for Active; 'I' for Inactive)
REMARK    1  A    between atoms: C_1  and  N_2
REMARK    2  A    between atoms: N_2  and  C_3
REMARK    3  A    between atoms: N_2  and  C_6
REMARK    4  A    between atoms: C_3  and  C_4
REMARK    5  A    between atoms: C_4  and  N_5
REMARK    6  A    between atoms: C_8  and  C_9
REMARK                            x       y       z     vdW  Elec       q    Type
REMARK                         _______ _______ _______ _____ _____    ______ ____
ROOT
ATOM      1  C   UNL     1      -0.614  11.690  19.794  0.00  0.00    +0.000 A 
ATOM      2  N   UNL     1      -1.204  12.417  20.791  0.00  0.00    +0.000 NA
ATOM      3  C   UNL     1      -1.198  12.001  22.067  0.00  0.00    +0.000 A 
ATOM      4  N   UNL     1      -0.633  10.878  22.500  0.00  0.00    +0.000 NA
ATOM      5  C   UNL     1      -0.037  10.170  21.530  0.00  0.00    +0.000 A 
ATOM      6  S   UNL     1       0.791   8.746  21.965  0.00  0.00    +0.000 S 
ATOM      7  C   UNL     1       1.298   8.487  20.373  0.00  0.00    +0.000 A 
ATOM      8  C   UNL     1       0.809   9.433  19.487  0.00  0.00    +0.000 A 
ATOM      9  C   UNL     1       0.023  10.469  20.170  0.00  0.00    +0.000 A 
ATOM     10  C   UNL     1       1.169   9.340  18.029  0.00  0.00    +0.000 C 
ATOM     11  C   UNL     1       1.899   8.050  17.632  0.00  0.00    +0.000 C 
ATOM     12  C   UNL     1       2.893   7.588  18.694  0.00  0.00    +0.000 C 
ATOM     13  C   UNL     1       2.176   7.325  20.021  0.00  0.00    +0.000 C 
ENDROOT
BRANCH   3  14
ATOM     14  C   UNL     1      -1.845  12.871  23.077  0.00  0.00    +0.000 A 
ATOM     15  C   UNL     1      -3.130  12.602  23.570  0.00  0.00    +0.000 A 
ATOM     16  C   UNL     1      -3.696  13.452  24.511  0.00  0.00    +0.000 A 
ATOM     17  N   UNL     1      -3.083  14.550  24.993  0.00  0.00    +0.000 NA
ATOM     18  C   UNL     1      -1.848  14.806  24.517  0.00  0.00    +0.000 A 
ATOM     19  C   UNL     1      -1.203  14.015  23.580  0.00  0.00    +0.000 A 
ENDBRANCH   3  14
BRANCH   1  21
ATOM     20  C   UNL     1      -1.673  12.013  17.584  0.00  0.00    +0.000 C 
ATOM     21  N   UNL     1      -0.604  12.273  18.527  0.00  0.00    +0.000 N 
BRANCH  21  22
ATOM     22  C   UNL     1       0.055  13.586  18.388  0.00  0.00    +0.000 C 
BRANCH  22  23
ATOM     23  C   UNL     1       1.577  13.470  18.610  0.00  0.00    +0.000 C 
BRANCH  23  24
ATOM     24  N   UNL     1       2.241  12.800  17.482  0.00  0.00    +0.000 NA
ATOM     25  H   UNL     1       2.542  11.886  17.824  0.00  0.00    +0.000 HD
ATOM     26  H   UNL     1       3.096  13.314  17.255  0.00  0.00    +0.000 HD
ENDBRANCH  23  24
ENDBRANCH  22  23
ENDBRANCH  21  22
ENDBRANCH   1  21
TORSDOF 5
ENDMDL
MODEL 8
REMARK VINA RESULT:      -6.2      3.225      7.844
REMARK  Name = 
REMARK  6 active torsions:
REMARK  status: ('A' for Active; 'I' for Inactive)
REMARK    1  A    between atoms: C_1  and  N_2
REMARK    2  A    between atoms: N_2  and  C_3
REMARK    3  A    between atoms: N_2  and  C_6
REMARK    4  A    between atoms: C_3  and  C_4
REMARK    5  A    between atoms: C_4  and  N_5
REMARK    6  A    between atoms: C_8  and  C_9
REMARK                            x       y       z     vdW  Elec       q    Type
REMARK                         _______ _______ _______ _____ _____    ______ ____
ROOT
ATOM      1  C   UNL     1       4.319   5.739  17.251  0.00  0.00    +0.000 A 
ATOM      2  N   UNL     1       5.018   5.594  16.084  0.00  0.00    +0.000 NA
ATOM      3  C   UNL     1       5.286   4.385  15.565  0.00  0.00    +0.000 A 
ATOM      4  N   UNL     1       4.910   3.227  16.100  0.00  0.00    +0.000 NA
ATOM      5  C   UNL     1       4.209   3.362  17.233  0.00  0.00    +0.000 A 
ATOM      6  S   UNL     1       3.603   1.955  17.980  0.00  0.00    +0.000 S 
ATOM      7  C   UNL     1       2.833   2.857  19.186  0.00  0.00    +0.000 A 
ATOM      8  C   UNL     1       3.065   4.219  19.076  0.00  0.00    +0.000 A 
ATOM      9  C   UNL     1       3.871   4.544  17.893  0.00  0.00    +0.000 A 
ATOM     10  C   UNL     1       2.451   5.159  20.078  0.00  0.00    +0.000 C 
ATOM     11  C   UNL     1       1.775   4.469  21.270  0.00  0.00    +0.000 C 
ATOM     12  C   UNL     1       1.039   3.193  20.871  0.00  0.00    +0.000 C 
ATOM     13  C   UNL     1       2.010   2.189  20.244  0.00  0.00    +0.000 C 
ENDROOT
BRANCH   3  14
ATOM     14  C   UNL     1       6.030   4.335  14.286  0.00  0.00    +0.000 A 
ATOM     15  C   UNL     1       7.174   5.115  14.065  0.00  0.00    +0.000 A 
ATOM     16  C   UNL     1       7.833   5.037  12.845  0.00  0.00    +0.000 A 
ATOM     17  N   UNL     1       7.436   4.249  11.828  0.00  0.00    +0.000 NA
ATOM     18  C   UNL     1       6.335   3.501  12.043  0.00  0.00    +0.000 A 
ATOM     19  C   UNL     1       5.615   3.510  13.227  0.00  0.00    +0.000 A 
ENDBRANCH   3  14
BRANCH   1  21
ATOM     20  C   UNL     1       5.040   8.077  17.594  0.00  0.00    +0.000 C 
ATOM     21  N   UNL     1       4.024   7.045  17.636  0.00  0.00    +0.000 N 
BRANCH  21  22
ATOM     22  C   UNL     1       2.638   7.515  17.441  0.00  0.00    +0.000 C 
BRANCH  22  23
ATOM     23  C   UNL     1       2.347   8.759  18.305  0.00  0.00    +0.000 C 
BRANCH  23  24
ATOM     24  N   UNL     1       1.852   9.881  17.494  0.00  0.00    +0.000 NA
ATOM     25  H   UNL     1       2.145   9.696  16.534  0.00  0.00    +0.000 HD
ATOM     26  H   UNL     1       2.340  10.733  17.782  0.00  0.00    +0.000 HD
ENDBRANCH  23  24
ENDBRANCH  22  23
ENDBRANCH  21  22
ENDBRANCH   1  21
TORSDOF 5
ENDMDL
MODEL 9
REMARK VINA RESULT:      -6.2      3.159      8.577
REMARK  Name = 
REMARK  6 active torsions:
REMARK  status: ('A' for Active; 'I' for Inactive)
REMARK    1  A    between atoms: C_1  and  N_2
REMARK    2  A    between atoms: N_2  and  C_3
REMARK    3  A    between atoms: N_2  and  C_6
REMARK    4  A    between atoms: C_3  and  C_4
REMARK    5  A    between atoms: C_4  and  N_5
REMARK    6  A    between atoms: C_8  and  C_9
REMARK                            x       y       z     vdW  Elec       q    Type
REMARK                         _______ _______ _______ _____ _____    ______ ____
ROOT
ATOM      1  C   UNL     1      -0.076  11.145  19.280  0.00  0.00    +0.000 A 
ATOM      2  N   UNL     1       0.751  10.118  18.917  0.00  0.00    +0.000 NA
ATOM      3  C   UNL     1       1.122   9.167  19.788  0.00  0.00    +0.000 A 
ATOM      4  N   UNL     1       0.739   9.108  21.060  0.00  0.00    +0.000 NA
ATOM      5  C   UNL     1      -0.086  10.101  21.418  0.00  0.00    +0.000 A 
ATOM      6  S   UNL     1      -0.711  10.099  23.003  0.00  0.00    +0.000 S 
ATOM      7  C   UNL     1      -1.644  11.477  22.699  0.00  0.00    +0.000 A 
ATOM      8  C   UNL     1      -1.457  11.987  21.425  0.00  0.00    +0.000 A 
ATOM      9  C   UNL     1      -0.542  11.158  20.631  0.00  0.00    +0.000 A 
ATOM     10  C   UNL     1      -2.215  13.216  21.000  0.00  0.00    +0.000 C 
ATOM     11  C   UNL     1      -2.987  13.911  22.128  0.00  0.00    +0.000 C 
ATOM     12  C   UNL     1      -3.622  12.923  23.102  0.00  0.00    +0.000 C 
ATOM     13  C   UNL     1      -2.549  12.044  23.749  0.00  0.00    +0.000 C 
ENDROOT
BRANCH   3  14
ATOM     14  C   UNL     1       2.003   8.085  19.291  0.00  0.00    +0.000 A 
ATOM     15  C   UNL     1       2.219   6.911  20.029  0.00  0.00    +0.000 A 
ATOM     16  C   UNL     1       3.060   5.929  19.523  0.00  0.00    +0.000 A 
ATOM     17  N   UNL     1       3.705   6.028  18.345  0.00  0.00    +0.000 NA
ATOM     18  C   UNL     1       3.496   7.158  17.639  0.00  0.00    +0.000 A 
ATOM     19  C   UNL     1       2.674   8.190  18.062  0.00  0.00    +0.000 A 
ENDBRANCH   3  14
BRANCH   1  21
ATOM     20  C   UNL     1      -1.741  11.849  17.595  0.00  0.00    +0.000 C 
ATOM     21  N   UNL     1      -0.465  12.015  18.262  0.00  0.00    +0.000 N 
BRANCH  21  22
ATOM     22  C   UNL     1       0.042  13.400  18.321  0.00  0.00    +0.000 C 
BRANCH  22  23
ATOM     23  C   UNL     1       1.577  13.423  18.470  0.00  0.00    +0.000 C 
BRANCH  23  24
ATOM     24  N   UNL     1       2.235  12.602  17.442  0.00  0.00    +0.000 NA
ATOM     25  H   UNL     1       3.208  12.910  17.404  0.00  0.00    +0.000 HD
ATOM     26  H   UNL     1       1.829  12.831  16.532  0.00  0.00    +0.000 HD
ENDBRANCH  23  24
ENDBRANCH  22  23
ENDBRANCH  21  22
ENDBRANCH   1  21
TORSDOF 5
ENDMDL
