MODEL 1
REMARK VINA RESULT:      -7.3      0.000      0.000
REMARK  Name = 
REMARK  8 active torsions:
REMARK  status: ('A' for Active; 'I' for Inactive)
REMARK    1  A    between atoms: C_1  and  C_2
REMARK    2  A    between atoms: C_2  and  O_3
REMARK    3  A    between atoms: O_3  and  C_4
REMARK    4  A    between atoms: C_4  and  C_6
REMARK    5  A    between atoms: C_9  and  N_10
REMARK    6  A    between atoms: C_14  and  S_15
REMARK    7  A    between atoms: S_15  and  C_16
REMARK    8  A    between atoms: C_19  and  C_20
REMARK                            x       y       z     vdW  Elec       q    Type
REMARK                         _______ _______ _______ _____ _____    ______ ____
ROOT
ATOM      1  N   UNL     1       2.838   7.017  18.623  0.00  0.00    +0.000 N 
ATOM      2  C   UNL     1       2.514   6.486  19.848  0.00  0.00    +0.000 C 
ATOM      3  O   UNL     1       2.934   5.474  20.385  0.00  0.00    +0.000 OA
ATOM      4  C   UNL     1       1.541   7.384  20.543  0.00  0.00    +0.000 C 
ATOM      5  C   UNL     1       1.276   8.509  19.565  0.00  0.00    +0.000 C 
ATOM      6  C   UNL     1       2.126   8.170  18.365  0.00  0.00    +0.000 C 
ATOM      7  O   UNL     1       2.099   8.825  17.329  0.00  0.00    +0.000 OA
ENDROOT
BRANCH   1  11
ATOM      8  C   UNL     1       5.611   5.255  15.904  0.00  0.00    +0.000 A 
ATOM      9  C   UNL     1       5.717   6.603  16.252  0.00  0.00    +0.000 A 
ATOM     10  C   UNL     1       4.800   7.181  17.137  0.00  0.00    +0.000 A 
ATOM     11  C   UNL     1       3.764   6.428  17.711  0.00  0.00    +0.000 A 
ATOM     12  C   UNL     1       3.667   5.076  17.346  0.00  0.00    +0.000 A 
ATOM     13  C   UNL     1       4.574   4.494  16.449  0.00  0.00    +0.000 A 
BRANCH   8  14
ATOM     14  C   UNL     1       6.574   4.718  14.910  0.00  0.00    +0.000 C 
ATOM     15  O   UNL     1       7.688   5.183  14.735  0.00  0.00    +0.000 OA
BRANCH  14  16
ATOM     16  O   UNL     1       5.986   3.746  14.174  0.00  0.00    +0.000 OA
BRANCH  16  18
ATOM     17  C   UNL     1       5.189   3.241  11.985  0.00  0.00    +0.000 C 
ATOM     18  C   UNL     1       6.383   3.707  12.797  0.00  0.00    +0.000 C 
ENDBRANCH  16  18
ENDBRANCH  14  16
ENDBRANCH   8  14
ENDBRANCH   1  11
BRANCH   5  19
ATOM     19  S   UNL     1       1.753  10.162  20.169  0.00  0.00    +0.000 S 
BRANCH  19  20
ATOM     20  C   UNL     1       0.513  10.467  21.358  0.00  0.00    +0.000 A 
ATOM     21  N   UNL     1       0.587  10.031  22.597  0.00  0.00    +0.000 NA
ATOM     22  N   UNL     1      -0.448  10.505  23.377  0.00  0.00    +0.000 NA
ATOM     23  C   UNL     1      -1.275  11.266  22.690  0.00  0.00    +0.000 A 
ATOM     24  C   UNL     1      -2.460  11.962  23.249  0.00  0.00    +0.000 C 
ATOM     25  S   UNL     1      -0.869  11.424  21.028  0.00  0.00    +0.000 S 
ENDBRANCH  19  20
ENDBRANCH   5  19
TORSDOF 6
ENDMDL
MODEL 2
REMARK VINA RESULT:      -7.2      3.837      8.677
REMARK  Name = 
REMARK  8 active torsions:
REMARK  status: ('A' for Active; 'I' for Inactive)
REMARK    1  A    between atoms: C_1  and  C_2
REMARK    2  A    between atoms: C_2  and  O_3
REMARK    3  A    between atoms: O_3  and  C_4
REMARK    4  A    between atoms: C_4  and  C_6
REMARK    5  A    between atoms: C_9  and  N_10
REMARK    6  A    between atoms: C_14  and  S_15
REMARK    7  A    between atoms: S_15  and  C_16
REMARK    8  A    between atoms: C_19  and  C_20
REMARK                            x       y       z     vdW  Elec       q    Type
REMARK                         _______ _______ _______ _____ _____    ______ ____
ROOT
ATOM      1  N   UNL     1       2.942   6.245  19.172  0.00  0.00    +0.000 N 
ATOM      2  C   UNL     1       2.756   5.220  20.067  0.00  0.00    +0.000 C 
ATOM      3  O   UNL     1       1.962   5.136  20.989  0.00  0.00    +0.000 OA
ATOM      4  C   UNL     1       3.678   4.090  19.735  0.00  0.00    +0.000 C 
ATOM      5  C   UNL     1       4.485   4.576  18.550  0.00  0.00    +0.000 C 
ATOM      6  C   UNL     1       3.962   5.967  18.285  0.00  0.00    +0.000 C 
ATOM      7  O   UNL     1       4.448   6.706  17.438  0.00  0.00    +0.000 OA
ENDROOT
BRANCH   1  11
ATOM      8  C   UNL     1       0.744   9.899  19.208  0.00  0.00    +0.000 A 
ATOM      9  C   UNL     1       0.973   9.197  20.392  0.00  0.00    +0.000 A 
ATOM     10  C   UNL     1       1.686   7.994  20.377  0.00  0.00    +0.000 A 
ATOM     11  C   UNL     1       2.204   7.466  19.183  0.00  0.00    +0.000 A 
ATOM     12  C   UNL     1       1.959   8.180  18.000  0.00  0.00    +0.000 A 
ATOM     13  C   UNL     1       1.233   9.380  18.006  0.00  0.00    +0.000 A 
BRANCH   8  14
ATOM     14  C   UNL     1      -0.076  11.135  19.282  0.00  0.00    +0.000 C 
ATOM     15  O   UNL     1       0.359  12.207  19.669  0.00  0.00    +0.000 OA
BRANCH  14  16
ATOM     16  O   UNL     1      -1.366  10.854  18.980  0.00  0.00    +0.000 OA
BRANCH  16  18
ATOM     17  C   UNL     1      -2.320  10.451  16.833  0.00  0.00    +0.000 C 
ATOM     18  C   UNL     1      -1.872  11.519  17.815  0.00  0.00    +0.000 C 
ENDBRANCH  16  18
ENDBRANCH  14  16
ENDBRANCH   8  14
ENDBRANCH   1  11
BRANCH   5  19
ATOM     19  S   UNL     1       4.280   3.579  17.037  0.00  0.00    +0.000 S 
BRANCH  19  20
ATOM     20  C   UNL     1       5.587   4.178  16.049  0.00  0.00    +0.000 A 
ATOM     21  N   UNL     1       6.796   4.396  16.518  0.00  0.00    +0.000 NA
ATOM     22  N   UNL     1       7.684   4.745  15.521  0.00  0.00    +0.000 NA
ATOM     23  C   UNL     1       7.106   4.795  14.339  0.00  0.00    +0.000 A 
ATOM     24  C   UNL     1       7.796   5.096  13.061  0.00  0.00    +0.000 C 
ATOM     25  S   UNL     1       5.421   4.458  14.367  0.00  0.00    +0.000 S 
ENDBRANCH  19  20
ENDBRANCH   5  19
TORSDOF 6
ENDMDL
MODEL 3
REMARK VINA RESULT:      -7.2      3.814      5.167
REMARK  Name = 
REMARK  8 active torsions:
REMARK  status: ('A' for Active; 'I' for Inactive)
REMARK    1  A    between atoms: C_1  and  C_2
REMARK    2  A    between atoms: C_2  and  O_3
REMARK    3  A    between atoms: O_3  and  C_4
REMARK    4  A    between atoms: C_4  and  C_6
REMARK    5  A    between atoms: C_9  and  N_10
REMARK    6  A    between atoms: C_14  and  S_15
REMARK    7  A    between atoms: S_15  and  C_16
REMARK    8  A    between atoms: C_19  and  C_20
REMARK                            x       y       z     vdW  Elec       q    Type
REMARK                         _______ _______ _______ _____ _____    ______ ____
ROOT
ATOM      1  N   UNL     1       0.444  10.869  18.771  0.00  0.00    +0.000 N 
ATOM      2  C   UNL     1      -0.899  11.014  18.522  0.00  0.00    +0.000 C 
ATOM      3  O   UNL     1      -1.765  10.158  18.440  0.00  0.00    +0.000 OA
ATOM      4  C   UNL     1      -1.233  12.466  18.398  0.00  0.00    +0.000 C 
ATOM      5  C   UNL     1       0.088  13.189  18.557  0.00  0.00    +0.000 C 
ATOM      6  C   UNL     1       1.097  12.084  18.761  0.00  0.00    +0.000 C 
ATOM      7  O   UNL     1       2.301  12.295  18.842  0.00  0.00    +0.000 OA
ENDROOT
BRANCH   1  11
ATOM      8  C   UNL     1       2.395   7.125  19.371  0.00  0.00    +0.000 A 
ATOM      9  C   UNL     1       2.391   7.729  18.113  0.00  0.00    +0.000 A 
ATOM     10  C   UNL     1       1.742   8.953  17.916  0.00  0.00    +0.000 A 
ATOM     11  C   UNL     1       1.094   9.614  18.971  0.00  0.00    +0.000 A 
ATOM     12  C   UNL     1       1.100   8.990  20.228  0.00  0.00    +0.000 A 
ATOM     13  C   UNL     1       1.737   7.757  20.429  0.00  0.00    +0.000 A 
BRANCH   8  14
ATOM     14  C   UNL     1       3.043   5.795  19.499  0.00  0.00    +0.000 C 
ATOM     15  O   UNL     1       3.792   5.329  18.657  0.00  0.00    +0.000 OA
BRANCH  14  16
ATOM     16  O   UNL     1       2.584   5.160  20.604  0.00  0.00    +0.000 OA
BRANCH  16  18
ATOM     17  C   UNL     1       1.054   3.337  20.466  0.00  0.00    +0.000 C 
ATOM     18  C   UNL     1       2.520   3.732  20.496  0.00  0.00    +0.000 C 
ENDBRANCH  16  18
ENDBRANCH  14  16
ENDBRANCH   8  14
ENDBRANCH   1  11
BRANCH   5  19
ATOM     19  S   UNL     1       0.163  14.319  19.985  0.00  0.00    +0.000 S 
BRANCH  19  20
ATOM     20  C   UNL     1      -0.678  13.394  21.202  0.00  0.00    +0.000 A 
ATOM     21  N   UNL     1      -0.082  12.498  21.959  0.00  0.00    +0.000 NA
ATOM     22  N   UNL     1      -0.925  11.993  22.927  0.00  0.00    +0.000 NA
ATOM     23  C   UNL     1      -2.132  12.514  22.851  0.00  0.00    +0.000 A 
ATOM     24  C   UNL     1      -3.254  12.213  23.775  0.00  0.00    +0.000 C 
ATOM     25  S   UNL     1      -2.336  13.631  21.562  0.00  0.00    +0.000 S 
ENDBRANCH  19  20
ENDBRANCH   5  19
TORSDOF 6
ENDMDL
MODEL 4
REMARK VINA RESULT:      -7.1      3.803      5.045
REMARK  Name = 
REMARK  8 active torsions:
REMARK  status: ('A' for Active; 'I' for Inactive)
REMARK    1  A    between atoms: C_1  and  C_2
REMARK    2  A    between atoms: C_2  and  O_3
REMARK    3  A    between atoms: O_3  and  C_4
REMARK    4  A    between atoms: C_4  and  C_6
REMARK    5  A    between atoms: C_9  and  N_10
REMARK    6  A    between atoms: C_14  and  S_15
REMARK    7  A    between atoms: S_15  and  C_16
REMARK    8  A    between atoms: C_19  and  C_20
REMARK                            x       y       z     vdW  Elec       q    Type
REMARK                         _______ _______ _______ _____ _____    ______ ____
ROOT
ATOM      1  N   UNL     1       0.510  10.773  18.793  0.00  0.00    +0.000 N 
ATOM      2  C   UNL     1      -0.845  10.916  18.617  0.00  0.00    +0.000 C 
ATOM      3  O   UNL     1      -1.709  10.058  18.554  0.00  0.00    +0.000 OA
ATOM      4  C   UNL     1      -1.192  12.369  18.553  0.00  0.00    +0.000 C 
ATOM      5  C   UNL     1       0.131  13.096  18.666  0.00  0.00    +0.000 C 
ATOM      6  C   UNL     1       1.155  11.993  18.787  0.00  0.00    +0.000 C 
ATOM      7  O   UNL     1       2.361  12.210  18.813  0.00  0.00    +0.000 OA
ENDROOT
BRANCH   1  11
ATOM      8  C   UNL     1       2.492   7.017  19.180  0.00  0.00    +0.000 A 
ATOM      9  C   UNL     1       1.879   7.613  20.284  0.00  0.00    +0.000 A 
ATOM     10  C   UNL     1       1.238   8.850  20.156  0.00  0.00    +0.000 A 
ATOM     11  C   UNL     1       1.176   9.518  18.923  0.00  0.00    +0.000 A 
ATOM     12  C   UNL     1       1.803   8.909  17.825  0.00  0.00    +0.000 A 
ATOM     13  C   UNL     1       2.459   7.676  17.948  0.00  0.00    +0.000 A 
BRANCH   8  14
ATOM     14  C   UNL     1       3.212   5.737  19.395  0.00  0.00    +0.000 C 
ATOM     15  O   UNL     1       4.413   5.668  19.595  0.00  0.00    +0.000 OA
BRANCH  14  16
ATOM     16  O   UNL     1       2.367   4.694  19.214  0.00  0.00    +0.000 OA
BRANCH  16  18
ATOM     17  C   UNL     1       1.125   3.362  20.752  0.00  0.00    +0.000 C 
ATOM     18  C   UNL     1       2.501   3.635  20.171  0.00  0.00    +0.000 C 
ENDBRANCH  16  18
ENDBRANCH  14  16
ENDBRANCH   8  14
ENDBRANCH   1  11
BRANCH   5  19
ATOM     19  S   UNL     1       0.273  14.184  20.122  0.00  0.00    +0.000 S 
BRANCH  19  20
ATOM     20  C   UNL     1      -0.647  13.295  21.309  0.00  0.00    +0.000 A 
ATOM     21  N   UNL     1      -0.124  12.347  22.055  0.00  0.00    +0.000 NA
ATOM     22  N   UNL     1      -1.014  11.881  23.002  0.00  0.00    +0.000 NA
ATOM     23  C   UNL     1      -2.181  12.484  22.921  0.00  0.00    +0.000 A 
ATOM     24  C   UNL     1      -3.334  12.243  23.823  0.00  0.00    +0.000 C 
ATOM     25  S   UNL     1      -2.290  13.638  21.652  0.00  0.00    +0.000 S 
ENDBRANCH  19  20
ENDBRANCH   5  19
TORSDOF 6
ENDMDL
MODEL 5
REMARK VINA RESULT:      -7.1      3.818      8.678
REMARK  Name = 
REMARK  8 active torsions:
REMARK  status: ('A' for Active; 'I' for Inactive)
REMARK    1  A    between atoms: C_1  and  C_2
REMARK    2  A    between atoms: C_2  and  O_3
REMARK    3  A    between atoms: O_3  and  C_4
REMARK    4  A    between atoms: C_4  and  C_6
REMARK    5  A    between atoms: C_9  and  N_10
REMARK    6  A    between atoms: C_14  and  S_15
REMARK    7  A    between atoms: S_15  and  C_16
REMARK    8  A    between atoms: C_19  and  C_20
REMARK                            x       y       z     vdW  Elec       q    Type
REMARK                         _______ _______ _______ _____ _____    ______ ____
ROOT
ATOM      1  N   UNL     1       2.899   6.231  19.299  0.00  0.00    +0.000 N 
ATOM      2  C   UNL     1       2.696   5.174  20.152  0.00  0.00    +0.000 C 
ATOM      3  O   UNL     1       1.897   5.063  21.067  0.00  0.00    +0.000 OA
ATOM      4  C   UNL     1       3.606   4.047  19.779  0.00  0.00    +0.000 C 
ATOM      5  C   UNL     1       4.424   4.569  18.617  0.00  0.00    +0.000 C 
ATOM      6  C   UNL     1       3.919   5.976  18.406  0.00  0.00    +0.000 C 
ATOM      7  O   UNL     1       4.418   6.742  17.590  0.00  0.00    +0.000 OA
ENDROOT
BRANCH   1  11
ATOM      8  C   UNL     1       0.728   9.898  19.465  0.00  0.00    +0.000 A 
ATOM      9  C   UNL     1       1.267   9.447  18.259  0.00  0.00    +0.000 A 
ATOM     10  C   UNL     1       1.988   8.248  18.209  0.00  0.00    +0.000 A 
ATOM     11  C   UNL     1       2.175   7.460  19.355  0.00  0.00    +0.000 A 
ATOM     12  C   UNL     1       1.633   7.931  20.562  0.00  0.00    +0.000 A 
ATOM     13  C   UNL     1       0.922   9.138  20.622  0.00  0.00    +0.000 A 
BRANCH   8  14
ATOM     14  C   UNL     1       0.032  11.209  19.465  0.00  0.00    +0.000 C 
ATOM     15  O   UNL     1      -0.091  11.904  20.460  0.00  0.00    +0.000 OA
BRANCH  14  16
ATOM     16  O   UNL     1      -0.530  11.436  18.254  0.00  0.00    +0.000 OA
BRANCH  16  18
ATOM     17  C   UNL     1      -2.423  10.042  17.861  0.00  0.00    +0.000 C 
ATOM     18  C   UNL     1      -1.964  11.437  18.244  0.00  0.00    +0.000 C 
ENDBRANCH  16  18
ENDBRANCH  14  16
ENDBRANCH   8  14
ENDBRANCH   1  11
BRANCH   5  19
ATOM     19  S   UNL     1       4.213   3.635  17.066  0.00  0.00    +0.000 S 
BRANCH  19  20
ATOM     20  C   UNL     1       5.547   4.238  16.115  0.00  0.00    +0.000 A 
ATOM     21  N   UNL     1       6.736   4.477  16.623  0.00  0.00    +0.000 NA
ATOM     22  N   UNL     1       7.654   4.826  15.653  0.00  0.00    +0.000 NA
ATOM     23  C   UNL     1       7.116   4.854  14.452  0.00  0.00    +0.000 A 
ATOM     24  C   UNL     1       7.846   5.148  13.194  0.00  0.00    +0.000 C 
ATOM     25  S   UNL     1       5.435   4.496  14.426  0.00  0.00    +0.000 S 
ENDBRANCH  19  20
ENDBRANCH   5  19
TORSDOF 6
ENDMDL
MODEL 6
REMARK VINA RESULT:      -7.0      3.439      9.746
REMARK  Name = 
REMARK  8 active torsions:
REMARK  status: ('A' for Active; 'I' for Inactive)
REMARK    1  A    between atoms: C_1  and  C_2
REMARK    2  A    between atoms: C_2  and  O_3
REMARK    3  A    between atoms: O_3  and  C_4
REMARK    4  A    between atoms: C_4  and  C_6
REMARK    5  A    between atoms: C_9  and  N_10
REMARK    6  A    between atoms: C_14  and  S_15
REMARK    7  A    between atoms: S_15  and  C_16
REMARK    8  A    between atoms: C_19  and  C_20
REMARK                            x       y       z     vdW  Elec       q    Type
REMARK                         _______ _______ _______ _____ _____    ______ ____
ROOT
ATOM      1  N   UNL     1       1.743   8.198  19.451  0.00  0.00    +0.000 N 
ATOM      2  C   UNL     1       2.196   8.532  18.198  0.00  0.00    +0.000 C 
ATOM      3  O   UNL     1       2.112   9.595  17.605  0.00  0.00    +0.000 OA
ATOM      4  C   UNL     1       2.914   7.366  17.597  0.00  0.00    +0.000 C 
ATOM      5  C   UNL     1       2.800   6.260  18.625  0.00  0.00    +0.000 C 
ATOM      6  C   UNL     1       2.014   6.880  19.755  0.00  0.00    +0.000 C 
ATOM      7  O   UNL     1       1.654   6.243  20.738  0.00  0.00    +0.000 OA
ENDROOT
BRANCH   1  11
ATOM      8  C   UNL     1      -0.368  10.856  22.033  0.00  0.00    +0.000 A 
ATOM      9  C   UNL     1      -0.571  10.897  20.652  0.00  0.00    +0.000 A 
ATOM     10  C   UNL     1       0.130  10.031  19.806  0.00  0.00    +0.000 A 
ATOM     11  C   UNL     1       1.039   9.090  20.314  0.00  0.00    +0.000 A 
ATOM     12  C   UNL     1       1.237   9.065  21.704  0.00  0.00    +0.000 A 
ATOM     13  C   UNL     1       0.548   9.940  22.556  0.00  0.00    +0.000 A 
BRANCH   8  14
ATOM     14  C   UNL     1      -1.092  11.845  22.870  0.00  0.00    +0.000 C 
ATOM     15  O   UNL     1      -0.564  12.835  23.347  0.00  0.00    +0.000 OA
BRANCH  14  16
ATOM     16  O   UNL     1      -2.354  11.416  23.108  0.00  0.00    +0.000 OA
BRANCH  16  18
ATOM     17  C   UNL     1      -4.039  12.410  24.469  0.00  0.00    +0.000 C 
ATOM     18  C   UNL     1      -3.351  12.446  23.116  0.00  0.00    +0.000 C 
ENDBRANCH  16  18
ENDBRANCH  14  16
ENDBRANCH   8  14
ENDBRANCH   1  11
BRANCH   5  19
ATOM     19  S   UNL     1       4.396   5.671  19.280  0.00  0.00    +0.000 S 
BRANCH  19  20
ATOM     20  C   UNL     1       5.376   5.652  17.837  0.00  0.00    +0.000 A 
ATOM     21  N   UNL     1       6.458   6.387  17.697  0.00  0.00    +0.000 NA
ATOM     22  N   UNL     1       7.129   6.104  16.525  0.00  0.00    +0.000 NA
ATOM     23  C   UNL     1       6.516   5.180  15.815  0.00  0.00    +0.000 A 
ATOM     24  C   UNL     1       7.005   4.624  14.529  0.00  0.00    +0.000 C 
ATOM     25  S   UNL     1       5.050   4.616  16.512  0.00  0.00    +0.000 S 
ENDBRANCH  19  20
ENDBRANCH   5  19
TORSDOF 6
ENDMDL
MODEL 7
REMARK VINA RESULT:      -7.0      3.836      8.676
REMARK  Name = 
REMARK  8 active torsions:
REMARK  status: ('A' for Active; 'I' for Inactive)
REMARK    1  A    between atoms: C_1  and  C_2
REMARK    2  A    between atoms: C_2  and  O_3
REMARK    3  A    between atoms: O_3  and  C_4
REMARK    4  A    between atoms: C_4  and  C_6
REMARK    5  A    between atoms: C_9  and  N_10
REMARK    6  A    between atoms: C_14  and  S_15
REMARK    7  A    between atoms: S_15  and  C_16
REMARK    8  A    between atoms: C_19  and  C_20
REMARK                            x       y       z     vdW  Elec       q    Type
REMARK                         _______ _______ _______ _____ _____    ______ ____
ROOT
ATOM      1  N   UNL     1       2.919   6.211  19.250  0.00  0.00    +0.000 N 
ATOM      2  C   UNL     1       2.697   5.171  20.119  0.00  0.00    +0.000 C 
ATOM      3  O   UNL     1       1.881   5.081  21.023  0.00  0.00    +0.000 OA
ATOM      4  C   UNL     1       3.607   4.033  19.784  0.00  0.00    +0.000 C 
ATOM      5  C   UNL     1       4.447   4.528  18.626  0.00  0.00    +0.000 C 
ATOM      6  C   UNL     1       3.953   5.933  18.379  0.00  0.00    +0.000 C 
ATOM      7  O   UNL     1       4.469   6.681  17.558  0.00  0.00    +0.000 OA
ENDROOT
BRANCH   1  11
ATOM      8  C   UNL     1       0.780   9.899  19.314  0.00  0.00    +0.000 A 
ATOM      9  C   UNL     1       0.980   9.175  20.490  0.00  0.00    +0.000 A 
ATOM     10  C   UNL     1       1.674   7.960  20.465  0.00  0.00    +0.000 A 
ATOM     11  C   UNL     1       2.200   7.443  19.271  0.00  0.00    +0.000 A 
ATOM     12  C   UNL     1       1.984   8.180  18.095  0.00  0.00    +0.000 A 
ATOM     13  C   UNL     1       1.278   9.392  18.111  0.00  0.00    +0.000 A 
BRANCH   8  14
ATOM     14  C   UNL     1      -0.020  11.147  19.396  0.00  0.00    +0.000 C 
ATOM     15  O   UNL     1      -1.070  11.232  20.011  0.00  0.00    +0.000 OA
BRANCH  14  16
ATOM     16  O   UNL     1       0.524  12.100  18.603  0.00  0.00    +0.000 OA
BRANCH  16  18
ATOM     17  C   UNL     1       2.663  13.078  18.214  0.00  0.00    +0.000 C 
ATOM     18  C   UNL     1       1.544  12.893  19.223  0.00  0.00    +0.000 C 
ENDBRANCH  16  18
ENDBRANCH  14  16
ENDBRANCH   8  14
ENDBRANCH   1  11
BRANCH   5  19
ATOM     19  S   UNL     1       4.258   3.566  17.089  0.00  0.00    +0.000 S 
BRANCH  19  20
ATOM     20  C   UNL     1       5.567   4.197  16.123  0.00  0.00    +0.000 A 
ATOM     21  N   UNL     1       6.767   4.427  16.608  0.00  0.00    +0.000 NA
ATOM     22  N   UNL     1       7.660   4.803  15.625  0.00  0.00    +0.000 NA
ATOM     23  C   UNL     1       7.093   4.861  14.438  0.00  0.00    +0.000 A 
ATOM     24  C   UNL     1       7.791   5.190  13.171  0.00  0.00    +0.000 C 
ATOM     25  S   UNL     1       5.413   4.499  14.444  0.00  0.00    +0.000 S 
ENDBRANCH  19  20
ENDBRANCH   5  19
TORSDOF 6
ENDMDL
MODEL 8
REMARK VINA RESULT:      -7.0      3.460      9.721
REMARK  Name = 
REMARK  8 active torsions:
REMARK  status: ('A' for Active; 'I' for Inactive)
REMARK    1  A    between atoms: C_1  and  C_2
REMARK    2  A    between atoms: C_2  and  O_3
REMARK    3  A    between atoms: O_3  and  C_4
REMARK    4  A    between atoms: C_4  and  C_6
REMARK    5  A    between atoms: C_9  and  N_10
REMARK    6  A    between atoms: C_14  and  S_15
REMARK    7  A    between atoms: S_15  and  C_16
REMARK    8  A    between atoms: C_19  and  C_20
REMARK                            x       y       z     vdW  Elec       q    Type
REMARK                         _______ _______ _______ _____ _____    ______ ____
ROOT
ATOM      1  N   UNL     1       1.869   8.048  19.356  0.00  0.00    +0.000 N 
ATOM      2  C   UNL     1       2.330   8.428  18.119  0.00  0.00    +0.000 C 
ATOM      3  O   UNL     1       2.230   9.505  17.555  0.00  0.00    +0.000 OA
ATOM      4  C   UNL     1       3.081   7.296  17.495  0.00  0.00    +0.000 C 
ATOM      5  C   UNL     1       2.980   6.159  18.490  0.00  0.00    +0.000 C 
ATOM      6  C   UNL     1       2.166   6.729  19.626  0.00  0.00    +0.000 C 
ATOM      7  O   UNL     1       1.808   6.056  20.586  0.00  0.00    +0.000 OA
ENDROOT
BRANCH   1  11
ATOM      8  C   UNL     1      -0.318  10.597  21.984  0.00  0.00    +0.000 A 
ATOM      9  C   UNL     1       0.602   9.678  22.490  0.00  0.00    +0.000 A 
ATOM     10  C   UNL     1       1.311   8.836  21.626  0.00  0.00    +0.000 A 
ATOM     11  C   UNL     1       1.134   8.899  20.235  0.00  0.00    +0.000 A 
ATOM     12  C   UNL     1       0.200   9.824  19.743  0.00  0.00    +0.000 A 
ATOM     13  C   UNL     1      -0.524  10.661  20.603  0.00  0.00    +0.000 A 
BRANCH   8  14
ATOM     14  C   UNL     1      -1.086  11.415  22.956  0.00  0.00    +0.000 C 
ATOM     15  O   UNL     1      -2.145  11.058  23.445  0.00  0.00    +0.000 OA
BRANCH  14  16
ATOM     16  O   UNL     1      -0.501  12.627  23.106  0.00  0.00    +0.000 OA
BRANCH  16  18
ATOM     17  C   UNL     1      -1.219  14.687  24.067  0.00  0.00    +0.000 C 
ATOM     18  C   UNL     1      -1.368  13.748  22.884  0.00  0.00    +0.000 C 
ENDBRANCH  16  18
ENDBRANCH  14  16
ENDBRANCH   8  14
ENDBRANCH   1  11
BRANCH   5  19
ATOM     19  S   UNL     1       4.580   5.587  19.148  0.00  0.00    +0.000 S 
BRANCH  19  20
ATOM     20  C   UNL     1       5.572   5.607  17.713  0.00  0.00    +0.000 A 
ATOM     21  N   UNL     1       6.667   6.328  17.610  0.00  0.00    +0.000 NA
ATOM     22  N   UNL     1       7.343   6.081  16.433  0.00  0.00    +0.000 NA
ATOM     23  C   UNL     1       6.721   5.195  15.683  0.00  0.00    +0.000 A 
ATOM     24  C   UNL     1       7.211   4.681  14.381  0.00  0.00    +0.000 C 
ATOM     25  S   UNL     1       5.240   4.629  16.346  0.00  0.00    +0.000 S 
ENDBRANCH  19  20
ENDBRANCH   5  19
TORSDOF 6
ENDMDL
MODEL 9
REMARK VINA RESULT:      -6.9      3.693      8.994
REMARK  Name = 
REMARK  8 active torsions:
REMARK  status: ('A' for Active; 'I' for Inactive)
REMARK    1  A    between atoms: C_1  and  C_2
REMARK    2  A    between atoms: C_2  and  O_3
REMARK    3  A    between atoms: O_3  and  C_4
REMARK    4  A    between atoms: C_4  and  C_6
REMARK    5  A    between atoms: C_9  and  N_10
REMARK    6  A    between atoms: C_14  and  S_15
REMARK    7  A    between atoms: S_15  and  C_16
REMARK    8  A    between atoms: C_19  and  C_20
REMARK                            x       y       z     vdW  Elec       q    Type
REMARK                         _______ _______ _______ _____ _____    ______ ____
ROOT
ATOM      1  N   UNL     1       2.946   6.086  19.353  0.00  0.00    +0.000 N 
ATOM      2  C   UNL     1       2.721   4.995  20.157  0.00  0.00    +0.000 C 
ATOM      3  O   UNL     1       1.919   4.859  21.067  0.00  0.00    +0.000 OA
ATOM      4  C   UNL     1       3.608   3.868  19.734  0.00  0.00    +0.000 C 
ATOM      5  C   UNL     1       4.437   4.425  18.597  0.00  0.00    +0.000 C 
ATOM      6  C   UNL     1       3.961   5.850  18.449  0.00  0.00    +0.000 C 
ATOM      7  O   UNL     1       4.477   6.642  17.669  0.00  0.00    +0.000 OA
ENDROOT
BRANCH   1  11
ATOM      8  C   UNL     1       0.850   9.784  19.686  0.00  0.00    +0.000 A 
ATOM      9  C   UNL     1       1.378   9.376  18.460  0.00  0.00    +0.000 A 
ATOM     10  C   UNL     1       2.073   8.166  18.356  0.00  0.00    +0.000 A 
ATOM     11  C   UNL     1       2.248   7.325  19.465  0.00  0.00    +0.000 A 
ATOM     12  C   UNL     1       1.717   7.753  20.693  0.00  0.00    +0.000 A 
ATOM     13  C   UNL     1       1.031   8.971  20.807  0.00  0.00    +0.000 A 
BRANCH   8  14
ATOM     14  C   UNL     1       0.181  11.108  19.745  0.00  0.00    +0.000 C 
ATOM     15  O   UNL     1      -0.409  11.605  18.801  0.00  0.00    +0.000 OA
BRANCH  14  16
ATOM     16  O   UNL     1       0.432  11.701  20.936  0.00  0.00    +0.000 OA
BRANCH  16  18
ATOM     17  C   UNL     1      -1.090  11.398  22.746  0.00  0.00    +0.000 C 
ATOM     18  C   UNL     1      -0.711  12.286  21.574  0.00  0.00    +0.000 C 
ENDBRANCH  16  18
ENDBRANCH  14  16
ENDBRANCH   8  14
ENDBRANCH   1  11
BRANCH   5  19
ATOM     19  S   UNL     1       4.209   3.567  17.004  0.00  0.00    +0.000 S 
BRANCH  19  20
ATOM     20  C   UNL     1       5.557   4.181  16.083  0.00  0.00    +0.000 A 
ATOM     21  N   UNL     1       6.753   4.364  16.601  0.00  0.00    +0.000 NA
ATOM     22  N   UNL     1       7.679   4.736  15.648  0.00  0.00    +0.000 NA
ATOM     23  C   UNL     1       7.142   4.839  14.451  0.00  0.00    +0.000 A 
ATOM     24  C   UNL     1       7.879   5.176  13.208  0.00  0.00    +0.000 C 
ATOM     25  S   UNL     1       5.453   4.527  14.409  0.00  0.00    +0.000 S 
ENDBRANCH  19  20
ENDBRANCH   5  19
TORSDOF 6
ENDMDL
