MODEL 1
REMARK VINA RESULT:      -5.4      0.000      0.000
REMARK  Name = 
REMARK  6 active torsions:
REMARK  status: ('A' for Active; 'I' for Inactive)
REMARK    1  A    between atoms: C_1  and  O_2
REMARK    2  A    between atoms: O_2  and  C_3
REMARK    3  A    between atoms: C_3  and  C_5
REMARK    4  A    between atoms: C_6  and  C_7
REMARK    5  A    between atoms: N_9  and  C_10
REMARK    6  A    between atoms: N_12  and  C_13
REMARK                            x       y       z     vdW  Elec       q    Type
REMARK                         _______ _______ _______ _____ _____    ______ ____
ROOT
ATOM      1  C   UNL     1       4.124   4.453  19.032  0.00  0.00    +0.000 C 
ATOM      2  C   UNL     1       3.693   3.442  19.806  0.00  0.00    +0.000 C 
ATOM      3  N   UNL     1       2.640   3.859  20.599  0.00  0.00    +0.000 N 
ATOM      4  C   UNL     1       1.665   3.021  21.244  0.00  0.00    +0.000 C 
ATOM      5  C   UNL     1       2.334   5.263  20.320  0.00  0.00    +0.000 C 
ATOM      6  N   UNL     1       3.350   5.589  19.307  0.00  0.00    +0.000 N 
ATOM      7  C   UNL     1       3.064   6.647  18.364  0.00  0.00    +0.000 C 
ENDROOT
BRANCH   1   9
ATOM      8  C   UNL     1       6.355   5.190  18.290  0.00  0.00    +0.000 C 
ATOM      9  C   UNL     1       5.248   4.450  18.135  0.00  0.00    +0.000 C 
BRANCH   8  10
ATOM     10  C   UNL     1       7.404   5.160  17.254  0.00  0.00    +0.000 C 
ATOM     11  O   UNL     1       8.104   4.193  16.983  0.00  0.00    +0.000 OA
BRANCH  10  13
ATOM     12  C   UNL     1       7.506   7.465  17.570  0.00  0.00    +0.000 C 
ATOM     13  O   UNL     1       7.445   6.373  16.652  0.00  0.00    +0.000 OA
ENDBRANCH  10  13
ENDBRANCH   8  10
ENDBRANCH   1   9
TORSDOF 3
ENDMDL
MODEL 2
REMARK VINA RESULT:      -5.3      1.400      1.699
REMARK  Name = 
REMARK  6 active torsions:
REMARK  status: ('A' for Active; 'I' for Inactive)
REMARK    1  A    between atoms: C_1  and  O_2
REMARK    2  A    between atoms: O_2  and  C_3
REMARK    3  A    between atoms: C_3  and  C_5
REMARK    4  A    between atoms: C_6  and  C_7
REMARK    5  A    between atoms: N_9  and  C_10
REMARK    6  A    between atoms: N_12  and  C_13
REMARK                            x       y       z     vdW  Elec       q    Type
REMARK                         _______ _______ _______ _____ _____    ______ ____
ROOT
ATOM      1  C   UNL     1       3.855   4.231  19.120  0.00  0.00    +0.000 C 
ATOM      2  C   UNL     1       3.248   3.049  18.919  0.00  0.00    +0.000 C 
ATOM      3  N   UNL     1       1.905   3.137  19.235  0.00  0.00    +0.000 N 
ATOM      4  C   UNL     1       0.858   2.256  18.793  0.00  0.00    +0.000 C 
ATOM      5  C   UNL     1       1.587   4.498  19.670  0.00  0.00    +0.000 C 
ATOM      6  N   UNL     1       2.904   5.148  19.590  0.00  0.00    +0.000 N 
ATOM      7  C   UNL     1       2.952   6.577  19.375  0.00  0.00    +0.000 C 
ENDROOT
BRANCH   1   9
ATOM      8  C   UNL     1       5.956   4.449  17.850  0.00  0.00    +0.000 C 
ATOM      9  C   UNL     1       5.256   4.529  18.991  0.00  0.00    +0.000 C 
BRANCH   8  10
ATOM     10  C   UNL     1       7.408   4.700  17.866  0.00  0.00    +0.000 C 
ATOM     11  O   UNL     1       8.064   5.003  18.854  0.00  0.00    +0.000 OA
BRANCH  10  13
ATOM     12  C   UNL     1       6.869   4.509  15.608  0.00  0.00    +0.000 C 
ATOM     13  O   UNL     1       7.886   4.523  16.610  0.00  0.00    +0.000 OA
ENDBRANCH  10  13
ENDBRANCH   8  10
ENDBRANCH   1   9
TORSDOF 3
ENDMDL
MODEL 3
REMARK VINA RESULT:      -5.3      0.923      1.119
REMARK  Name = 
REMARK  6 active torsions:
REMARK  status: ('A' for Active; 'I' for Inactive)
REMARK    1  A    between atoms: C_1  and  O_2
REMARK    2  A    between atoms: O_2  and  C_3
REMARK    3  A    between atoms: C_3  and  C_5
REMARK    4  A    between atoms: C_6  and  C_7
REMARK    5  A    between atoms: N_9  and  C_10
REMARK    6  A    between atoms: N_12  and  C_13
REMARK                            x       y       z     vdW  Elec       q    Type
REMARK                         _______ _______ _______ _____ _____    ______ ____
ROOT
ATOM      1  C   UNL     1       3.945   4.188  19.314  0.00  0.00    +0.000 C 
ATOM      2  C   UNL     1       3.487   3.185  20.082  0.00  0.00    +0.000 C 
ATOM      3  N   UNL     1       2.443   3.624  20.874  0.00  0.00    +0.000 N 
ATOM      4  C   UNL     1       1.446   2.807  21.512  0.00  0.00    +0.000 C 
ATOM      5  C   UNL     1       2.172   5.036  20.601  0.00  0.00    +0.000 C 
ATOM      6  N   UNL     1       3.199   5.342  19.592  0.00  0.00    +0.000 N 
ATOM      7  C   UNL     1       2.942   6.411  18.654  0.00  0.00    +0.000 C 
ENDROOT
BRANCH   1   9
ATOM      8  C   UNL     1       6.240   4.782  18.639  0.00  0.00    +0.000 C 
ATOM      9  C   UNL     1       5.072   4.162  18.420  0.00  0.00    +0.000 C 
BRANCH   8  10
ATOM     10  C   UNL     1       7.290   4.748  17.604  0.00  0.00    +0.000 C 
ATOM     11  O   UNL     1       8.347   4.138  17.689  0.00  0.00    +0.000 OA
BRANCH  10  13
ATOM     12  C   UNL     1       6.908   4.790  15.307  0.00  0.00    +0.000 C 
ATOM     13  O   UNL     1       6.874   5.491  16.550  0.00  0.00    +0.000 OA
ENDBRANCH  10  13
ENDBRANCH   8  10
ENDBRANCH   1   9
TORSDOF 3
ENDMDL
MODEL 4
REMARK VINA RESULT:      -5.3      1.120      1.129
REMARK  Name = 
REMARK  6 active torsions:
REMARK  status: ('A' for Active; 'I' for Inactive)
REMARK    1  A    between atoms: C_1  and  O_2
REMARK    2  A    between atoms: O_2  and  C_3
REMARK    3  A    between atoms: C_3  and  C_5
REMARK    4  A    between atoms: C_6  and  C_7
REMARK    5  A    between atoms: N_9  and  C_10
REMARK    6  A    between atoms: N_12  and  C_13
REMARK                            x       y       z     vdW  Elec       q    Type
REMARK                         _______ _______ _______ _____ _____    ______ ____
ROOT
ATOM      1  C   UNL     1       3.962   4.170  18.839  0.00  0.00    +0.000 C 
ATOM      2  C   UNL     1       3.346   2.983  18.709  0.00  0.00    +0.000 C 
ATOM      3  N   UNL     1       2.036   3.071  19.142  0.00  0.00    +0.000 N 
ATOM      4  C   UNL     1       0.958   2.179  18.806  0.00  0.00    +0.000 C 
ATOM      5  C   UNL     1       1.750   4.435  19.586  0.00  0.00    +0.000 C 
ATOM      6  N   UNL     1       3.052   5.090  19.380  0.00  0.00    +0.000 N 
ATOM      7  C   UNL     1       3.073   6.516  19.144  0.00  0.00    +0.000 C 
ENDROOT
BRANCH   1   9
ATOM      8  C   UNL     1       5.860   4.732  17.373  0.00  0.00    +0.000 C 
ATOM      9  C   UNL     1       5.344   4.472  18.582  0.00  0.00    +0.000 C 
BRANCH   8  10
ATOM     10  C   UNL     1       7.313   4.945  17.229  0.00  0.00    +0.000 C 
ATOM     11  O   UNL     1       8.182   4.176  17.617  0.00  0.00    +0.000 OA
BRANCH  10  13
ATOM     12  C   UNL     1       7.523   7.253  17.456  0.00  0.00    +0.000 C 
ATOM     13  O   UNL     1       7.510   6.122  16.586  0.00  0.00    +0.000 OA
ENDBRANCH  10  13
ENDBRANCH   8  10
ENDBRANCH   1   9
TORSDOF 3
ENDMDL
MODEL 5
REMARK VINA RESULT:      -5.2      1.368      1.931
REMARK  Name = 
REMARK  6 active torsions:
REMARK  status: ('A' for Active; 'I' for Inactive)
REMARK    1  A    between atoms: C_1  and  O_2
REMARK    2  A    between atoms: O_2  and  C_3
REMARK    3  A    between atoms: C_3  and  C_5
REMARK    4  A    between atoms: C_6  and  C_7
REMARK    5  A    between atoms: N_9  and  C_10
REMARK    6  A    between atoms: N_12  and  C_13
REMARK                            x       y       z     vdW  Elec       q    Type
REMARK                         _______ _______ _______ _____ _____    ______ ____
ROOT
ATOM      1  C   UNL     1       4.047   4.127  18.788  0.00  0.00    +0.000 C 
ATOM      2  C   UNL     1       3.248   4.880  19.564  0.00  0.00    +0.000 C 
ATOM      3  N   UNL     1       1.969   4.355  19.591  0.00  0.00    +0.000 N 
ATOM      4  C   UNL     1       0.958   4.608  20.581  0.00  0.00    +0.000 C 
ATOM      5  C   UNL     1       1.915   3.140  18.777  0.00  0.00    +0.000 C 
ATOM      6  N   UNL     1       3.294   3.064  18.269  0.00  0.00    +0.000 N 
ATOM      7  C   UNL     1       3.824   1.766  17.915  0.00  0.00    +0.000 C 
ENDROOT
BRANCH   1   9
ATOM      8  C   UNL     1       5.823   4.939  17.286  0.00  0.00    +0.000 C 
ATOM      9  C   UNL     1       5.417   4.382  18.436  0.00  0.00    +0.000 C 
BRANCH   8  10
ATOM     10  C   UNL     1       7.265   5.071  17.008  0.00  0.00    +0.000 C 
ATOM     11  O   UNL     1       8.106   4.204  17.205  0.00  0.00    +0.000 OA
BRANCH  10  13
ATOM     12  C   UNL     1       7.504   7.342  17.465  0.00  0.00    +0.000 C 
ATOM     13  O   UNL     1       7.489   6.302  16.487  0.00  0.00    +0.000 OA
ENDBRANCH  10  13
ENDBRANCH   8  10
ENDBRANCH   1   9
TORSDOF 3
ENDMDL
MODEL 6
REMARK VINA RESULT:      -5.2      3.734      5.754
REMARK  Name = 
REMARK  6 active torsions:
REMARK  status: ('A' for Active; 'I' for Inactive)
REMARK    1  A    between atoms: C_1  and  O_2
REMARK    2  A    between atoms: O_2  and  C_3
REMARK    3  A    between atoms: C_3  and  C_5
REMARK    4  A    between atoms: C_6  and  C_7
REMARK    5  A    between atoms: N_9  and  C_10
REMARK    6  A    between atoms: N_12  and  C_13
REMARK                            x       y       z     vdW  Elec       q    Type
REMARK                         _______ _______ _______ _____ _____    ______ ____
ROOT
ATOM      1  C   UNL     1       4.297   4.250  17.027  0.00  0.00    +0.000 C 
ATOM      2  C   UNL     1       5.214   3.838  16.135  0.00  0.00    +0.000 C 
ATOM      3  N   UNL     1       5.781   4.922  15.493  0.00  0.00    +0.000 N 
ATOM      4  C   UNL     1       7.037   4.946  14.793  0.00  0.00    +0.000 C 
ATOM      5  C   UNL     1       5.204   6.163  16.011  0.00  0.00    +0.000 C 
ATOM      6  N   UNL     1       4.233   5.650  16.990  0.00  0.00    +0.000 N 
ATOM      7  C   UNL     1       3.871   6.495  18.106  0.00  0.00    +0.000 C 
ENDROOT
BRANCH   1   9
ATOM      8  C   UNL     1       2.090   3.462  17.791  0.00  0.00    +0.000 C 
ATOM      9  C   UNL     1       3.430   3.432  17.832  0.00  0.00    +0.000 C 
BRANCH   8  10
ATOM     10  C   UNL     1       1.312   2.632  18.729  0.00  0.00    +0.000 C 
ATOM     11  O   UNL     1       0.227   2.121  18.489  0.00  0.00    +0.000 OA
BRANCH  10  13
ATOM     12  C   UNL     1       1.323   3.051  21.020  0.00  0.00    +0.000 C 
ATOM     13  O   UNL     1       2.011   2.525  19.886  0.00  0.00    +0.000 OA
ENDBRANCH  10  13
ENDBRANCH   8  10
ENDBRANCH   1   9
TORSDOF 3
ENDMDL
MODEL 7
REMARK VINA RESULT:      -5.1      2.616      3.153
REMARK  Name = 
REMARK  6 active torsions:
REMARK  status: ('A' for Active; 'I' for Inactive)
REMARK    1  A    between atoms: C_1  and  O_2
REMARK    2  A    between atoms: O_2  and  C_3
REMARK    3  A    between atoms: C_3  and  C_5
REMARK    4  A    between atoms: C_6  and  C_7
REMARK    5  A    between atoms: N_9  and  C_10
REMARK    6  A    between atoms: N_12  and  C_13
REMARK                            x       y       z     vdW  Elec       q    Type
REMARK                         _______ _______ _______ _____ _____    ______ ____
ROOT
ATOM      1  C   UNL     1       4.471   4.050  17.391  0.00  0.00    +0.000 C 
ATOM      2  C   UNL     1       3.350   3.310  17.373  0.00  0.00    +0.000 C 
ATOM      3  N   UNL     1       3.054   2.855  18.645  0.00  0.00    +0.000 N 
ATOM      4  C   UNL     1       1.776   2.394  19.117  0.00  0.00    +0.000 C 
ATOM      5  C   UNL     1       4.055   3.346  19.593  0.00  0.00    +0.000 C 
ATOM      6  N   UNL     1       4.956   4.098  18.706  0.00  0.00    +0.000 N 
ATOM      7  C   UNL     1       5.723   5.187  19.269  0.00  0.00    +0.000 C 
ENDROOT
BRANCH   1   9
ATOM      8  C   UNL     1       6.066   3.996  15.513  0.00  0.00    +0.000 C 
ATOM      9  C   UNL     1       5.156   4.628  16.266  0.00  0.00    +0.000 C 
BRANCH   8  10
ATOM     10  C   UNL     1       6.759   4.728  14.436  0.00  0.00    +0.000 C 
ATOM     11  O   UNL     1       7.809   5.343  14.561  0.00  0.00    +0.000 OA
BRANCH  10  13
ATOM     12  C   UNL     1       6.323   3.377  12.590  0.00  0.00    +0.000 C 
ATOM     13  O   UNL     1       6.043   4.586  13.294  0.00  0.00    +0.000 OA
ENDBRANCH  10  13
ENDBRANCH   8  10
ENDBRANCH   1   9
TORSDOF 3
ENDMDL
MODEL 8
REMARK VINA RESULT:      -5.1      2.557      2.888
REMARK  Name = 
REMARK  6 active torsions:
REMARK  status: ('A' for Active; 'I' for Inactive)
REMARK    1  A    between atoms: C_1  and  O_2
REMARK    2  A    between atoms: O_2  and  C_3
REMARK    3  A    between atoms: C_3  and  C_5
REMARK    4  A    between atoms: C_6  and  C_7
REMARK    5  A    between atoms: N_9  and  C_10
REMARK    6  A    between atoms: N_12  and  C_13
REMARK                            x       y       z     vdW  Elec       q    Type
REMARK                         _______ _______ _______ _____ _____    ______ ____
ROOT
ATOM      1  C   UNL     1       4.112   4.304  17.271  0.00  0.00    +0.000 C 
ATOM      2  C   UNL     1       3.685   3.098  17.681  0.00  0.00    +0.000 C 
ATOM      3  N   UNL     1       3.073   3.199  18.917  0.00  0.00    +0.000 N 
ATOM      4  C   UNL     1       2.156   2.258  19.501  0.00  0.00    +0.000 C 
ATOM      5  C   UNL     1       3.081   4.593  19.362  0.00  0.00    +0.000 C 
ATOM      6  N   UNL     1       3.789   5.252  18.253  0.00  0.00    +0.000 N 
ATOM      7  C   UNL     1       3.520   6.650  18.001  0.00  0.00    +0.000 C 
ENDROOT
BRANCH   1   9
ATOM      8  C   UNL     1       5.950   3.936  15.672  0.00  0.00    +0.000 C 
ATOM      9  C   UNL     1       4.867   4.609  16.085  0.00  0.00    +0.000 C 
BRANCH   8  10
ATOM     10  C   UNL     1       6.687   4.401  14.482  0.00  0.00    +0.000 C 
ATOM     11  O   UNL     1       7.568   5.250  14.482  0.00  0.00    +0.000 OA
BRANCH  10  13
ATOM     12  C   UNL     1       6.980   3.962  12.213  0.00  0.00    +0.000 C 
ATOM     13  O   UNL     1       6.231   3.717  13.403  0.00  0.00    +0.000 OA
ENDBRANCH  10  13
ENDBRANCH   8  10
ENDBRANCH   1   9
TORSDOF 3
ENDMDL
MODEL 9
REMARK VINA RESULT:      -5.1      1.678      2.092
REMARK  Name = 
REMARK  6 active torsions:
REMARK  status: ('A' for Active; 'I' for Inactive)
REMARK    1  A    between atoms: C_1  and  O_2
REMARK    2  A    between atoms: O_2  and  C_3
REMARK    3  A    between atoms: C_3  and  C_5
REMARK    4  A    between atoms: C_6  and  C_7
REMARK    5  A    between atoms: N_9  and  C_10
REMARK    6  A    between atoms: N_12  and  C_13
REMARK                            x       y       z     vdW  Elec       q    Type
REMARK                         _______ _______ _______ _____ _____    ______ ____
ROOT
ATOM      1  C   UNL     1       3.700   4.859  18.070  0.00  0.00    +0.000 C 
ATOM      2  C   UNL     1       3.279   3.583  18.021  0.00  0.00    +0.000 C 
ATOM      3  N   UNL     1       2.173   3.410  18.832  0.00  0.00    +0.000 N 
ATOM      4  C   UNL     1       1.207   2.347  18.754  0.00  0.00    +0.000 C 
ATOM      5  C   UNL     1       1.818   4.681  19.465  0.00  0.00    +0.000 C 
ATOM      6  N   UNL     1       2.864   5.573  18.941  0.00  0.00    +0.000 N 
ATOM      7  C   UNL     1       2.575   6.986  18.842  0.00  0.00    +0.000 C 
ENDROOT
BRANCH   1   9
ATOM      8  C   UNL     1       5.754   4.729  16.716  0.00  0.00    +0.000 C 
ATOM      9  C   UNL     1       4.864   5.421  17.440  0.00  0.00    +0.000 C 
BRANCH   8  10
ATOM     10  C   UNL     1       6.953   5.408  16.190  0.00  0.00    +0.000 C 
ATOM     11  O   UNL     1       7.437   6.438  16.640  0.00  0.00    +0.000 OA
BRANCH  10  13
ATOM     12  C   UNL     1       6.402   4.169  14.297  0.00  0.00    +0.000 C 
ATOM     13  O   UNL     1       7.427   4.689  15.143  0.00  0.00    +0.000 OA
ENDBRANCH  10  13
ENDBRANCH   8  10
ENDBRANCH   1   9
TORSDOF 3
ENDMDL
