MODEL 1
REMARK VINA RESULT:      -8.2      0.000      0.000
REMARK  Name = 
REMARK  15 active torsions:
REMARK  status: ('A' for Active; 'I' for Inactive)
REMARK    1  A    between atoms: C_1  and  C_2
REMARK    2  A    between atoms: C_2  and  C_3
REMARK    3  A    between atoms: C_3  and  C_4
REMARK    4  A    between atoms: C_4  and  C_5
REMARK    5  A    between atoms: C_5  and  C_6
REMARK    6  A    between atoms: C_6  and  C_7
REMARK    7  A    between atoms: C_7  and  C_8
REMARK    8  A    between atoms: C_8  and  N_9
REMARK    9  A    between atoms: C_10  and  C_12
REMARK   10  A    between atoms: C_12  and  N_13
REMARK   11  A    between atoms: N_13  and  N_18
REMARK   12  A    between atoms: C_14  and  C_16
REMARK   13  A    between atoms: C_16  and  N_17
REMARK   14  A    between atoms: N_18  and  C_19
REMARK   15  A    between atoms: C_20  and  C_22
REMARK                            x       y       z     vdW  Elec       q    Type
REMARK                         _______ _______ _______ _____ _____    ______ ____
ROOT
ATOM      1  N   UNL     1       3.008   5.303  18.440  0.00  0.00    +0.000 N 
ATOM      2  C   UNL     1       2.362   4.281  17.729  0.00  0.00    +0.000 C 
ATOM      3  O   UNL     1       1.220   4.419  17.276  0.00  0.00    +0.000 OA
ENDROOT
BRANCH   1   4
ATOM      4  N   UNL     1       2.070   6.141  19.258  0.00  0.00    +0.000 N 
ATOM      5  C   UNL     1       1.679   5.482  20.509  0.00  0.00    +0.000 C 
ATOM      6  C   UNL     1       2.169   7.544  19.081  0.00  0.00    +0.000 C 
ATOM      7  O   UNL     1       2.806   8.025  18.142  0.00  0.00    +0.000 OA
BRANCH   6   8
ATOM      8  C   UNL     1       1.455   8.476  20.030  0.00  0.00    +0.000 A 
ATOM      9  C   UNL     1       1.672   8.336  21.403  0.00  0.00    +0.000 A 
ATOM     10  C   UNL     1       1.075   9.196  22.318  0.00  0.00    +0.000 A 
ATOM     11  C   UNL     1       0.183  10.166  21.867  0.00  0.00    +0.000 A 
ATOM     12  C   UNL     1      -0.138  10.277  20.510  0.00  0.00    +0.000 A 
ATOM     13  C   UNL     1      -1.101  11.222  20.113  0.00  0.00    +0.000 A 
ATOM     14  C   UNL     1      -1.474  11.354  18.781  0.00  0.00    +0.000 A 
ATOM     15  C   UNL     1      -0.875  10.549  17.824  0.00  0.00    +0.000 A 
ATOM     16  C   UNL     1       0.097   9.615  18.200  0.00  0.00    +0.000 A 
ATOM     17  C   UNL     1       0.492   9.435  19.554  0.00  0.00    +0.000 A 
ENDBRANCH   6   8
ENDBRANCH   1   4
BRANCH   1  18
ATOM     18  C   UNL     1       4.353   5.234  19.068  0.00  0.00    +0.000 C 
BRANCH  18  20
ATOM     19  N   UNL     1       5.630   5.286  16.897  0.00  0.00    +0.000 N 
ATOM     20  C   UNL     1       5.624   4.919  18.231  0.00  0.00    +0.000 C 
ATOM     21  O   UNL     1       6.533   4.231  18.698  0.00  0.00    +0.000 OA
ATOM     22  H   UNL     1       5.171   6.138  16.646  0.00  0.00    +0.000 HD
BRANCH  19  23
ATOM     23  C   UNL     1       6.699   4.877  15.997  0.00  0.00    +0.000 C 
BRANCH  23  24
ATOM     24  C   UNL     1       6.298   3.742  15.042  0.00  0.00    +0.000 C 
BRANCH  24  25
ATOM     25  C   UNL     1       5.549   4.228  13.795  0.00  0.00    +0.000 C 
BRANCH  25  26
ATOM     26  C   UNL     1       6.226   3.752  12.508  0.00  0.00    +0.000 C 
BRANCH  26  27
ATOM     27  C   UNL     1       5.343   2.774  11.729  0.00  0.00    +0.000 C 
BRANCH  27  28
ATOM     28  C   UNL     1       3.914   3.309  11.630  0.00  0.00    +0.000 C 
BRANCH  28  30
ATOM     29  C   UNL     1       2.977   4.386   9.567  0.00  0.00    +0.000 C 
ATOM     30  C   UNL     1       3.297   3.066  10.254  0.00  0.00    +0.000 C 
ENDBRANCH  28  30
ENDBRANCH  27  28
ENDBRANCH  26  27
ENDBRANCH  25  26
ENDBRANCH  24  25
ENDBRANCH  23  24
ENDBRANCH  19  23
ENDBRANCH  18  20
ENDBRANCH   1  18
BRANCH   2  31
ATOM     31  C   UNL     1       3.124   2.976  17.497  0.00  0.00    +0.000 C 
BRANCH  31  32
ATOM     32  N   UNL     1       2.440   1.825  18.088  0.00  0.00    +0.000 NA
ATOM     33  H   UNL     1       2.592   1.839  19.097  0.00  0.00    +0.000 HD
ATOM     34  H   UNL     1       2.870   0.971  17.741  0.00  0.00    +0.000 HD
ENDBRANCH  31  32
ENDBRANCH   2  31
TORSDOF 13
ENDMDL
MODEL 2
REMARK VINA RESULT:      -7.8      0.922      1.325
REMARK  Name = 
REMARK  15 active torsions:
REMARK  status: ('A' for Active; 'I' for Inactive)
REMARK    1  A    between atoms: C_1  and  C_2
REMARK    2  A    between atoms: C_2  and  C_3
REMARK    3  A    between atoms: C_3  and  C_4
REMARK    4  A    between atoms: C_4  and  C_5
REMARK    5  A    between atoms: C_5  and  C_6
REMARK    6  A    between atoms: C_6  and  C_7
REMARK    7  A    between atoms: C_7  and  C_8
REMARK    8  A    between atoms: C_8  and  N_9
REMARK    9  A    between atoms: C_10  and  C_12
REMARK   10  A    between atoms: C_12  and  N_13
REMARK   11  A    between atoms: N_13  and  N_18
REMARK   12  A    between atoms: C_14  and  C_16
REMARK   13  A    between atoms: C_16  and  N_17
REMARK   14  A    between atoms: N_18  and  C_19
REMARK   15  A    between atoms: C_20  and  C_22
REMARK                            x       y       z     vdW  Elec       q    Type
REMARK                         _______ _______ _______ _____ _____    ______ ____
ROOT
ATOM      1  N   UNL     1       2.905   4.847  18.682  0.00  0.00    +0.000 N 
ATOM      2  C   UNL     1       2.212   3.983  17.822  0.00  0.00    +0.000 C 
ATOM      3  O   UNL     1       1.201   4.341  17.208  0.00  0.00    +0.000 OA
ENDROOT
BRANCH   1   4
ATOM      4  N   UNL     1       2.011   5.820  19.392  0.00  0.00    +0.000 N 
ATOM      5  C   UNL     1       1.449   5.262  20.628  0.00  0.00    +0.000 C 
ATOM      6  C   UNL     1       2.288   7.194  19.179  0.00  0.00    +0.000 C 
ATOM      7  O   UNL     1       3.048   7.560  18.281  0.00  0.00    +0.000 OA
BRANCH   6   8
ATOM      8  C   UNL     1       1.616   8.241  20.035  0.00  0.00    +0.000 A 
ATOM      9  C   UNL     1       1.836   8.224  21.415  0.00  0.00    +0.000 A 
ATOM     10  C   UNL     1       1.278   9.190  22.245  0.00  0.00    +0.000 A 
ATOM     11  C   UNL     1       0.422  10.147  21.705  0.00  0.00    +0.000 A 
ATOM     12  C   UNL     1       0.097  10.140  20.344  0.00  0.00    +0.000 A 
ATOM     13  C   UNL     1      -0.831  11.079  19.861  0.00  0.00    +0.000 A 
ATOM     14  C   UNL     1      -1.207  11.097  18.523  0.00  0.00    +0.000 A 
ATOM     15  C   UNL     1      -0.645  10.182  17.646  0.00  0.00    +0.000 A 
ATOM     16  C   UNL     1       0.292   9.250  18.108  0.00  0.00    +0.000 A 
ATOM     17  C   UNL     1       0.688   9.186  19.472  0.00  0.00    +0.000 A 
ENDBRANCH   6   8
ENDBRANCH   1   4
BRANCH   1  18
ATOM     18  C   UNL     1       4.097   4.514  19.504  0.00  0.00    +0.000 C 
BRANCH  18  20
ATOM     19  N   UNL     1       5.810   4.803  17.679  0.00  0.00    +0.000 N 
ATOM     20  C   UNL     1       5.534   4.873  19.033  0.00  0.00    +0.000 C 
ATOM     21  O   UNL     1       6.437   5.065  19.849  0.00  0.00    +0.000 OA
ATOM     22  H   UNL     1       5.087   5.071  17.042  0.00  0.00    +0.000 HD
BRANCH  19  23
ATOM     23  C   UNL     1       7.164   4.949  17.166  0.00  0.00    +0.000 C 
BRANCH  23  24
ATOM     24  C   UNL     1       7.266   4.777  15.642  0.00  0.00    +0.000 C 
BRANCH  24  25
ATOM     25  C   UNL     1       6.048   4.079  15.024  0.00  0.00    +0.000 C 
BRANCH  25  26
ATOM     26  C   UNL     1       6.229   3.853  13.522  0.00  0.00    +0.000 C 
BRANCH  26  27
ATOM     27  C   UNL     1       4.902   3.519  12.833  0.00  0.00    +0.000 C 
BRANCH  27  28
ATOM     28  C   UNL     1       5.152   3.025  11.408  0.00  0.00    +0.000 C 
BRANCH  28  30
ATOM     29  C   UNL     1       7.205   1.659  10.949  0.00  0.00    +0.000 C 
ATOM     30  C   UNL     1       5.745   1.618  11.377  0.00  0.00    +0.000 C 
ENDBRANCH  28  30
ENDBRANCH  27  28
ENDBRANCH  26  27
ENDBRANCH  25  26
ENDBRANCH  24  25
ENDBRANCH  23  24
ENDBRANCH  19  23
ENDBRANCH  18  20
ENDBRANCH   1  18
BRANCH   2  31
ATOM     31  C   UNL     1       2.757   2.566  17.636  0.00  0.00    +0.000 C 
BRANCH  31  32
ATOM     32  N   UNL     1       2.398   1.685  18.748  0.00  0.00    +0.000 NA
ATOM     33  H   UNL     1       1.518   1.222  18.523  0.00  0.00    +0.000 HD
ATOM     34  H   UNL     1       2.226   2.252  19.575  0.00  0.00    +0.000 HD
ENDBRANCH  31  32
ENDBRANCH   2  31
TORSDOF 13
ENDMDL
MODEL 3
REMARK VINA RESULT:      -7.2      4.457      7.807
REMARK  Name = 
REMARK  15 active torsions:
REMARK  status: ('A' for Active; 'I' for Inactive)
REMARK    1  A    between atoms: C_1  and  C_2
REMARK    2  A    between atoms: C_2  and  C_3
REMARK    3  A    between atoms: C_3  and  C_4
REMARK    4  A    between atoms: C_4  and  C_5
REMARK    5  A    between atoms: C_5  and  C_6
REMARK    6  A    between atoms: C_6  and  C_7
REMARK    7  A    between atoms: C_7  and  C_8
REMARK    8  A    between atoms: C_8  and  N_9
REMARK    9  A    between atoms: C_10  and  C_12
REMARK   10  A    between atoms: C_12  and  N_13
REMARK   11  A    between atoms: N_13  and  N_18
REMARK   12  A    between atoms: C_14  and  C_16
REMARK   13  A    between atoms: C_16  and  N_17
REMARK   14  A    between atoms: N_18  and  C_19
REMARK   15  A    between atoms: C_20  and  C_22
REMARK                            x       y       z     vdW  Elec       q    Type
REMARK                         _______ _______ _______ _____ _____    ______ ____
ROOT
ATOM      1  N   UNL     1       6.249   5.423  16.196  0.00  0.00    +0.000 N 
ATOM      2  C   UNL     1       6.118   4.793  14.950  0.00  0.00    +0.000 C 
ATOM      3  O   UNL     1       5.013   4.524  14.465  0.00  0.00    +0.000 OA
ENDROOT
BRANCH   1   4
ATOM      4  N   UNL     1       5.175   5.041  17.171  0.00  0.00    +0.000 N 
ATOM      5  C   UNL     1       5.663   4.124  18.208  0.00  0.00    +0.000 C 
ATOM      6  C   UNL     1       4.129   5.982  17.351  0.00  0.00    +0.000 C 
ATOM      7  O   UNL     1       3.986   6.931  16.579  0.00  0.00    +0.000 OA
BRANCH   6   8
ATOM      8  C   UNL     1       3.145   5.808  18.482  0.00  0.00    +0.000 A 
ATOM      9  C   UNL     1       3.030   6.821  19.437  0.00  0.00    +0.000 A 
ATOM     10  C   UNL     1       2.109   6.732  20.474  0.00  0.00    +0.000 A 
ATOM     11  C   UNL     1       1.339   5.580  20.611  0.00  0.00    +0.000 A 
ATOM     12  C   UNL     1       1.491   4.501  19.734  0.00  0.00    +0.000 A 
ATOM     13  C   UNL     1       0.746   3.330  19.958  0.00  0.00    +0.000 A 
ATOM     14  C   UNL     1       0.880   2.221  19.132  0.00  0.00    +0.000 A 
ATOM     15  C   UNL     1       1.755   2.275  18.057  0.00  0.00    +0.000 A 
ATOM     16  C   UNL     1       2.492   3.439  17.811  0.00  0.00    +0.000 A 
ATOM     17  C   UNL     1       2.399   4.588  18.644  0.00  0.00    +0.000 A 
ENDBRANCH   6   8
ENDBRANCH   1   4
BRANCH   1  18
ATOM     18  C   UNL     1       7.518   5.750  16.896  0.00  0.00    +0.000 C 
BRANCH  18  20
ATOM     19  N   UNL     1       7.306   8.235  17.250  0.00  0.00    +0.000 N 
ATOM     20  C   UNL     1       7.648   7.010  17.796  0.00  0.00    +0.000 C 
ATOM     21  O   UNL     1       8.179   6.942  18.905  0.00  0.00    +0.000 OA
ATOM     22  H   UNL     1       6.539   8.262  16.610  0.00  0.00    +0.000 HD
BRANCH  19  23
ATOM     23  C   UNL     1       7.559   9.484  17.955  0.00  0.00    +0.000 C 
BRANCH  23  24
ATOM     24  C   UNL     1       9.027   9.934  17.899  0.00  0.00    +0.000 C 
BRANCH  24  25
ATOM     25  C   UNL     1       9.590  10.351  19.263  0.00  0.00    +0.000 C 
BRANCH  25  26
ATOM     26  C   UNL     1      10.464  11.602  19.156  0.00  0.00    +0.000 C 
BRANCH  26  27
ATOM     27  C   UNL     1      10.985  12.051  20.524  0.00  0.00    +0.000 C 
BRANCH  27  28
ATOM     28  C   UNL     1      10.354  13.386  20.922  0.00  0.00    +0.000 C 
BRANCH  28  30
ATOM     29  C   UNL     1       8.760  12.539  22.664  0.00  0.00    +0.000 C 
ATOM     30  C   UNL     1       8.886  13.238  21.318  0.00  0.00    +0.000 C 
ENDBRANCH  28  30
ENDBRANCH  27  28
ENDBRANCH  26  27
ENDBRANCH  25  26
ENDBRANCH  24  25
ENDBRANCH  23  24
ENDBRANCH  19  23
ENDBRANCH  18  20
ENDBRANCH   1  18
BRANCH   2  31
ATOM     31  C   UNL     1       7.393   4.460  14.176  0.00  0.00    +0.000 C 
BRANCH  31  32
ATOM     32  N   UNL     1       7.914   5.616  13.445  0.00  0.00    +0.000 NA
ATOM     33  H   UNL     1       8.302   6.278  14.117  0.00  0.00    +0.000 HD
ATOM     34  H   UNL     1       7.140   6.090  12.984  0.00  0.00    +0.000 HD
ENDBRANCH  31  32
ENDBRANCH   2  31
TORSDOF 13
ENDMDL
MODEL 4
REMARK VINA RESULT:      -7.1      5.106      7.891
REMARK  Name = 
REMARK  15 active torsions:
REMARK  status: ('A' for Active; 'I' for Inactive)
REMARK    1  A    between atoms: C_1  and  C_2
REMARK    2  A    between atoms: C_2  and  C_3
REMARK    3  A    between atoms: C_3  and  C_4
REMARK    4  A    between atoms: C_4  and  C_5
REMARK    5  A    between atoms: C_5  and  C_6
REMARK    6  A    between atoms: C_6  and  C_7
REMARK    7  A    between atoms: C_7  and  C_8
REMARK    8  A    between atoms: C_8  and  N_9
REMARK    9  A    between atoms: C_10  and  C_12
REMARK   10  A    between atoms: C_12  and  N_13
REMARK   11  A    between atoms: N_13  and  N_18
REMARK   12  A    between atoms: C_14  and  C_16
REMARK   13  A    between atoms: C_16  and  N_17
REMARK   14  A    between atoms: N_18  and  C_19
REMARK   15  A    between atoms: C_20  and  C_22
REMARK                            x       y       z     vdW  Elec       q    Type
REMARK                         _______ _______ _______ _____ _____    ______ ____
ROOT
ATOM      1  N   UNL     1       6.440   6.087  16.839  0.00  0.00    +0.000 N 
ATOM      2  C   UNL     1       6.542   5.446  15.596  0.00  0.00    +0.000 C 
ATOM      3  O   UNL     1       5.553   4.988  15.012  0.00  0.00    +0.000 OA
ENDROOT
BRANCH   1   4
ATOM      4  N   UNL     1       5.360   5.522  17.713  0.00  0.00    +0.000 N 
ATOM      5  C   UNL     1       5.900   4.786  18.862  0.00  0.00    +0.000 C 
ATOM      6  C   UNL     1       4.123   6.214  17.705  0.00  0.00    +0.000 C 
ATOM      7  O   UNL     1       3.877   7.071  16.855  0.00  0.00    +0.000 OA
BRANCH   6   8
ATOM      8  C   UNL     1       3.065   5.879  18.729  0.00  0.00    +0.000 A 
ATOM      9  C   UNL     1       2.785   6.806  19.737  0.00  0.00    +0.000 A 
ATOM     10  C   UNL     1       1.790   6.566  20.678  0.00  0.00    +0.000 A 
ATOM     11  C   UNL     1       1.112   5.350  20.667  0.00  0.00    +0.000 A 
ATOM     12  C   UNL     1       1.429   4.355  19.735  0.00  0.00    +0.000 A 
ATOM     13  C   UNL     1       0.770   3.116  19.812  0.00  0.00    +0.000 A 
ATOM     14  C   UNL     1       1.067   2.086  18.927  0.00  0.00    +0.000 A 
ATOM     15  C   UNL     1       2.021   2.290  17.941  0.00  0.00    +0.000 A 
ATOM     16  C   UNL     1       2.675   3.524  17.842  0.00  0.00    +0.000 A 
ATOM     17  C   UNL     1       2.415   4.595  18.739  0.00  0.00    +0.000 A 
ENDBRANCH   6   8
ENDBRANCH   1   4
BRANCH   1  18
ATOM     18  C   UNL     1       7.559   6.631  17.651  0.00  0.00    +0.000 C 
BRANCH  18  20
ATOM     19  N   UNL     1       8.727   8.595  18.710  0.00  0.00    +0.000 N 
ATOM     20  C   UNL     1       7.808   8.160  17.772  0.00  0.00    +0.000 C 
ATOM     21  O   UNL     1       7.103   8.965  17.161  0.00  0.00    +0.000 OA
ATOM     22  H   UNL     1       9.538   8.031  18.865  0.00  0.00    +0.000 HD
BRANCH  19  23
ATOM     23  C   UNL     1       8.898  10.009  19.014  0.00  0.00    +0.000 C 
BRANCH  23  24
ATOM     24  C   UNL     1      10.077  10.659  18.275  0.00  0.00    +0.000 C 
BRANCH  24  25
ATOM     25  C   UNL     1       9.886  12.160  18.021  0.00  0.00    +0.000 C 
BRANCH  25  26
ATOM     26  C   UNL     1       8.455  12.481  17.584  0.00  0.00    +0.000 C 
BRANCH  26  27
ATOM     27  C   UNL     1       8.088  13.941  17.868  0.00  0.00    +0.000 C 
BRANCH  27  28
ATOM     28  C   UNL     1       9.351  14.788  18.022  0.00  0.00    +0.000 C 
BRANCH  28  30
ATOM     29  C   UNL     1       9.922  17.204  17.665  0.00  0.00    +0.000 C 
ATOM     30  C   UNL     1       9.039  16.227  18.427  0.00  0.00    +0.000 C 
ENDBRANCH  28  30
ENDBRANCH  27  28
ENDBRANCH  26  27
ENDBRANCH  25  26
ENDBRANCH  24  25
ENDBRANCH  23  24
ENDBRANCH  19  23
ENDBRANCH  18  20
ENDBRANCH   1  18
BRANCH   2  31
ATOM     31  C   UNL     1       7.925   5.342  14.953  0.00  0.00    +0.000 C 
BRANCH  31  32
ATOM     32  N   UNL     1       7.881   5.575  13.508  0.00  0.00    +0.000 NA
ATOM     33  H   UNL     1       6.931   5.404  13.181  0.00  0.00    +0.000 HD
ATOM     34  H   UNL     1       8.477   4.892  13.046  0.00  0.00    +0.000 HD
ENDBRANCH  31  32
ENDBRANCH   2  31
TORSDOF 13
ENDMDL
MODEL 5
REMARK VINA RESULT:      -7.1      4.991      8.154
REMARK  Name = 
REMARK  15 active torsions:
REMARK  status: ('A' for Active; 'I' for Inactive)
REMARK    1  A    between atoms: C_1  and  C_2
REMARK    2  A    between atoms: C_2  and  C_3
REMARK    3  A    between atoms: C_3  and  C_4
REMARK    4  A    between atoms: C_4  and  C_5
REMARK    5  A    between atoms: C_5  and  C_6
REMARK    6  A    between atoms: C_6  and  C_7
REMARK    7  A    between atoms: C_7  and  C_8
REMARK    8  A    between atoms: C_8  and  N_9
REMARK    9  A    between atoms: C_10  and  C_12
REMARK   10  A    between atoms: C_12  and  N_13
REMARK   11  A    between atoms: N_13  and  N_18
REMARK   12  A    between atoms: C_14  and  C_16
REMARK   13  A    between atoms: C_16  and  N_17
REMARK   14  A    between atoms: N_18  and  C_19
REMARK   15  A    between atoms: C_20  and  C_22
REMARK                            x       y       z     vdW  Elec       q    Type
REMARK                         _______ _______ _______ _____ _____    ______ ____
ROOT
ATOM      1  N   UNL     1       6.378   5.914  16.753  0.00  0.00    +0.000 N 
ATOM      2  C   UNL     1       6.505   5.186  15.562  0.00  0.00    +0.000 C 
ATOM      3  O   UNL     1       5.533   4.652  15.014  0.00  0.00    +0.000 OA
ENDROOT
BRANCH   1   4
ATOM      4  N   UNL     1       5.318   5.377  17.668  0.00  0.00    +0.000 N 
ATOM      5  C   UNL     1       5.883   4.695  18.838  0.00  0.00    +0.000 C 
ATOM      6  C   UNL     1       4.075   6.058  17.652  0.00  0.00    +0.000 C 
ATOM      7  O   UNL     1       3.806   6.876  16.770  0.00  0.00    +0.000 OA
BRANCH   6   8
ATOM      8  C   UNL     1       3.037   5.757  18.707  0.00  0.00    +0.000 A 
ATOM      9  C   UNL     1       2.804   6.700  19.711  0.00  0.00    +0.000 A 
ATOM     10  C   UNL     1       1.829   6.493  20.681  0.00  0.00    +0.000 A 
ATOM     11  C   UNL     1       1.124   5.293  20.700  0.00  0.00    +0.000 A 
ATOM     12  C   UNL     1       1.393   4.282  19.771  0.00  0.00    +0.000 A 
ATOM     13  C   UNL     1       0.708   3.059  19.878  0.00  0.00    +0.000 A 
ATOM     14  C   UNL     1       0.958   2.014  18.997  0.00  0.00    +0.000 A 
ATOM     15  C   UNL     1       1.891   2.186  17.984  0.00  0.00    +0.000 A 
ATOM     16  C   UNL     1       2.570   3.403  17.855  0.00  0.00    +0.000 A 
ATOM     17  C   UNL     1       2.358   4.489  18.748  0.00  0.00    +0.000 A 
ENDBRANCH   6   8
ENDBRANCH   1   4
BRANCH   1  18
ATOM     18  C   UNL     1       7.476   6.555  17.522  0.00  0.00    +0.000 C 
BRANCH  18  20
ATOM     19  N   UNL     1       8.625   8.625  18.384  0.00  0.00    +0.000 N 
ATOM     20  C   UNL     1       7.653   8.099  17.551  0.00  0.00    +0.000 C 
ATOM     21  O   UNL     1       6.857   8.838  16.971  0.00  0.00    +0.000 OA
ATOM     22  H   UNL     1       9.475   8.109  18.491  0.00  0.00    +0.000 HD
BRANCH  19  23
ATOM     23  C   UNL     1       8.746  10.058  18.609  0.00  0.00    +0.000 C 
BRANCH  23  24
ATOM     24  C   UNL     1       9.676  10.420  19.777  0.00  0.00    +0.000 C 
BRANCH  24  25
ATOM     25  C   UNL     1      10.740  11.462  19.411  0.00  0.00    +0.000 C 
BRANCH  25  26
ATOM     26  C   UNL     1      10.167  12.565  18.518  0.00  0.00    +0.000 C 
BRANCH  26  27
ATOM     27  C   UNL     1       9.224  13.491  19.292  0.00  0.00    +0.000 C 
BRANCH  27  28
ATOM     28  C   UNL     1       9.949  14.776  19.692  0.00  0.00    +0.000 C 
BRANCH  28  30
ATOM     29  C   UNL     1       9.465  14.037  22.040  0.00  0.00    +0.000 C 
ATOM     30  C   UNL     1      10.469  14.726  21.127  0.00  0.00    +0.000 C 
ENDBRANCH  28  30
ENDBRANCH  27  28
ENDBRANCH  26  27
ENDBRANCH  25  26
ENDBRANCH  24  25
ENDBRANCH  23  24
ENDBRANCH  19  23
ENDBRANCH  18  20
ENDBRANCH   1  18
BRANCH   2  31
ATOM     31  C   UNL     1       7.891   5.084  14.926  0.00  0.00    +0.000 C 
BRANCH  31  32
ATOM     32  N   UNL     1       7.865   5.383  13.493  0.00  0.00    +0.000 NA
ATOM     33  H   UNL     1       7.310   4.668  13.022  0.00  0.00    +0.000 HD
ATOM     34  H   UNL     1       8.810   5.309  13.123  0.00  0.00    +0.000 HD
ENDBRANCH  31  32
ENDBRANCH   2  31
TORSDOF 13
ENDMDL
MODEL 6
REMARK VINA RESULT:      -7.0      3.650      5.427
REMARK  Name = 
REMARK  15 active torsions:
REMARK  status: ('A' for Active; 'I' for Inactive)
REMARK    1  A    between atoms: C_1  and  C_2
REMARK    2  A    between atoms: C_2  and  C_3
REMARK    3  A    between atoms: C_3  and  C_4
REMARK    4  A    between atoms: C_4  and  C_5
REMARK    5  A    between atoms: C_5  and  C_6
REMARK    6  A    between atoms: C_6  and  C_7
REMARK    7  A    between atoms: C_7  and  C_8
REMARK    8  A    between atoms: C_8  and  N_9
REMARK    9  A    between atoms: C_10  and  C_12
REMARK   10  A    between atoms: C_12  and  N_13
REMARK   11  A    between atoms: N_13  and  N_18
REMARK   12  A    between atoms: C_14  and  C_16
REMARK   13  A    between atoms: C_16  and  N_17
REMARK   14  A    between atoms: N_18  and  C_19
REMARK   15  A    between atoms: C_20  and  C_22
REMARK                            x       y       z     vdW  Elec       q    Type
REMARK                         _______ _______ _______ _____ _____    ______ ____
ROOT
ATOM      1  N   UNL     1       2.919   5.534  18.312  0.00  0.00    +0.000 N 
ATOM      2  C   UNL     1       2.319   4.365  17.825  0.00  0.00    +0.000 C 
ATOM      3  O   UNL     1       1.110   4.304  17.572  0.00  0.00    +0.000 OA
ENDROOT
BRANCH   1   4
ATOM      4  N   UNL     1       2.017   6.338  19.203  0.00  0.00    +0.000 N 
ATOM      5  C   UNL     1       1.761   5.671  20.485  0.00  0.00    +0.000 C 
ATOM      6  C   UNL     1       2.040   7.742  19.012  0.00  0.00    +0.000 C 
ATOM      7  O   UNL     1       2.575   8.243  18.022  0.00  0.00    +0.000 OA
BRANCH   6   8
ATOM      8  C   UNL     1       1.368   8.650  20.014  0.00  0.00    +0.000 A 
ATOM      9  C   UNL     1       1.629   8.463  21.374  0.00  0.00    +0.000 A 
ATOM     10  C   UNL     1       1.071   9.298  22.336  0.00  0.00    +0.000 A 
ATOM     11  C   UNL     1       0.175  10.291  21.947  0.00  0.00    +0.000 A 
ATOM     12  C   UNL     1      -0.189  10.449  20.605  0.00  0.00    +0.000 A 
ATOM     13  C   UNL     1      -1.154  11.416  20.272  0.00  0.00    +0.000 A 
ATOM     14  C   UNL     1      -1.570  11.595  18.958  0.00  0.00    +0.000 A 
ATOM     15  C   UNL     1      -1.011  10.816  17.955  0.00  0.00    +0.000 A 
ATOM     16  C   UNL     1      -0.037   9.861  18.269  0.00  0.00    +0.000 A 
ATOM     17  C   UNL     1       0.400   9.632  19.602  0.00  0.00    +0.000 A 
ENDBRANCH   6   8
ENDBRANCH   1   4
BRANCH   1  18
ATOM     18  C   UNL     1       4.344   5.708  18.695  0.00  0.00    +0.000 C 
BRANCH  18  20
ATOM     19  N   UNL     1       6.642   6.594  18.166  0.00  0.00    +0.000 N 
ATOM     20  C   UNL     1       5.400   6.228  17.679  0.00  0.00    +0.000 C 
ATOM     21  O   UNL     1       5.093   6.449  16.507  0.00  0.00    +0.000 OA
ATOM     22  H   UNL     1       7.023   6.061  18.921  0.00  0.00    +0.000 HD
BRANCH  19  23
ATOM     23  C   UNL     1       7.630   7.253  17.323  0.00  0.00    +0.000 C 
BRANCH  23  24
ATOM     24  C   UNL     1       7.823   8.741  17.651  0.00  0.00    +0.000 C 
BRANCH  24  25
ATOM     25  C   UNL     1       8.615   8.984  18.942  0.00  0.00    +0.000 C 
BRANCH  25  26
ATOM     26  C   UNL     1       9.587  10.156  18.796  0.00  0.00    +0.000 C 
BRANCH  26  27
ATOM     27  C   UNL     1       8.853  11.499  18.726  0.00  0.00    +0.000 C 
BRANCH  27  28
ATOM     28  C   UNL     1       9.836  12.627  18.410  0.00  0.00    +0.000 C 
BRANCH  28  30
ATOM     29  C   UNL     1      11.436  13.363  16.624  0.00  0.00    +0.000 C 
ATOM     30  C   UNL     1      10.937  12.185  17.449  0.00  0.00    +0.000 C 
ENDBRANCH  28  30
ENDBRANCH  27  28
ENDBRANCH  26  27
ENDBRANCH  25  26
ENDBRANCH  24  25
ENDBRANCH  23  24
ENDBRANCH  19  23
ENDBRANCH  18  20
ENDBRANCH   1  18
BRANCH   2  31
ATOM     31  C   UNL     1       3.211   3.147  17.583  0.00  0.00    +0.000 C 
BRANCH  31  32
ATOM     32  N   UNL     1       2.474   1.889  17.708  0.00  0.00    +0.000 NA
ATOM     33  H   UNL     1       2.197   1.581  16.776  0.00  0.00    +0.000 HD
ATOM     34  H   UNL     1       1.615   2.059  18.226  0.00  0.00    +0.000 HD
ENDBRANCH  31  32
ENDBRANCH   2  31
TORSDOF 13
ENDMDL
MODEL 7
REMARK VINA RESULT:      -7.0      3.358      5.459
REMARK  Name = 
REMARK  15 active torsions:
REMARK  status: ('A' for Active; 'I' for Inactive)
REMARK    1  A    between atoms: C_1  and  C_2
REMARK    2  A    between atoms: C_2  and  C_3
REMARK    3  A    between atoms: C_3  and  C_4
REMARK    4  A    between atoms: C_4  and  C_5
REMARK    5  A    between atoms: C_5  and  C_6
REMARK    6  A    between atoms: C_6  and  C_7
REMARK    7  A    between atoms: C_7  and  C_8
REMARK    8  A    between atoms: C_8  and  N_9
REMARK    9  A    between atoms: C_10  and  C_12
REMARK   10  A    between atoms: C_12  and  N_13
REMARK   11  A    between atoms: N_13  and  N_18
REMARK   12  A    between atoms: C_14  and  C_16
REMARK   13  A    between atoms: C_16  and  N_17
REMARK   14  A    between atoms: N_18  and  C_19
REMARK   15  A    between atoms: C_20  and  C_22
REMARK                            x       y       z     vdW  Elec       q    Type
REMARK                         _______ _______ _______ _____ _____    ______ ____
ROOT
ATOM      1  N   UNL     1       2.546   3.733  19.170  0.00  0.00    +0.000 N 
ATOM      2  C   UNL     1       1.762   3.460  20.299  0.00  0.00    +0.000 C 
ATOM      3  O   UNL     1       0.628   3.933  20.439  0.00  0.00    +0.000 OA
ENDROOT
BRANCH   1   4
ATOM      4  N   UNL     1       2.333   5.112  18.618  0.00  0.00    +0.000 N 
ATOM      5  C   UNL     1       1.329   5.136  17.548  0.00  0.00    +0.000 C 
ATOM      6  C   UNL     1       2.596   6.188  19.503  0.00  0.00    +0.000 C 
ATOM      7  O   UNL     1       3.193   6.008  20.566  0.00  0.00    +0.000 OA
BRANCH   6   8
ATOM      8  C   UNL     1       2.176   7.590  19.132  0.00  0.00    +0.000 A 
ATOM      9  C   UNL     1       2.697   8.163  17.969  0.00  0.00    +0.000 A 
ATOM     10  C   UNL     1       2.310   9.434  17.557  0.00  0.00    +0.000 A 
ATOM     11  C   UNL     1       1.448  10.181  18.356  0.00  0.00    +0.000 A 
ATOM     12  C   UNL     1       0.979   9.682  19.576  0.00  0.00    +0.000 A 
ATOM     13  C   UNL     1       0.172  10.504  20.382  0.00  0.00    +0.000 A 
ATOM     14  C   UNL     1      -0.298  10.067  21.615  0.00  0.00    +0.000 A 
ATOM     15  C   UNL     1       0.024   8.790  22.051  0.00  0.00    +0.000 A 
ATOM     16  C   UNL     1       0.814   7.954  21.253  0.00  0.00    +0.000 A 
ATOM     17  C   UNL     1       1.331   8.371  19.996  0.00  0.00    +0.000 A 
ENDBRANCH   6   8
ENDBRANCH   1   4
BRANCH   1  18
ATOM     18  C   UNL     1       3.933   3.262  18.917  0.00  0.00    +0.000 C 
BRANCH  18  20
ATOM     19  N   UNL     1       5.454   5.257  18.696  0.00  0.00    +0.000 N 
ATOM     20  C   UNL     1       4.945   4.116  18.103  0.00  0.00    +0.000 C 
ATOM     21  O   UNL     1       5.170   3.870  16.918  0.00  0.00    +0.000 OA
ATOM     22  H   UNL     1       5.632   5.232  19.680  0.00  0.00    +0.000 HD
BRANCH  19  23
ATOM     23  C   UNL     1       6.268   6.208  17.952  0.00  0.00    +0.000 C 
BRANCH  23  24
ATOM     24  C   UNL     1       7.761   6.150  18.308  0.00  0.00    +0.000 C 
BRANCH  24  25
ATOM     25  C   UNL     1       8.365   7.522  18.634  0.00  0.00    +0.000 C 
BRANCH  25  26
ATOM     26  C   UNL     1       7.761   8.627  17.765  0.00  0.00    +0.000 C 
BRANCH  26  27
ATOM     27  C   UNL     1       8.627   9.890  17.766  0.00  0.00    +0.000 C 
BRANCH  27  28
ATOM     28  C   UNL     1       9.100  10.210  19.184  0.00  0.00    +0.000 C 
BRANCH  28  30
ATOM     29  C   UNL     1      10.503  11.834  17.886  0.00  0.00    +0.000 C 
ATOM     30  C   UNL     1      10.361  11.070  19.195  0.00  0.00    +0.000 C 
ENDBRANCH  28  30
ENDBRANCH  27  28
ENDBRANCH  26  27
ENDBRANCH  25  26
ENDBRANCH  24  25
ENDBRANCH  23  24
ENDBRANCH  19  23
ENDBRANCH  18  20
ENDBRANCH   1  18
BRANCH   2  31
ATOM     31  C   UNL     1       2.337   2.527  21.364  0.00  0.00    +0.000 C 
BRANCH  31  32
ATOM     32  N   UNL     1       1.356   2.198  22.399  0.00  0.00    +0.000 NA
ATOM     33  H   UNL     1       0.496   1.891  21.945  0.00  0.00    +0.000 HD
ATOM     34  H   UNL     1       1.126   3.043  22.917  0.00  0.00    +0.000 HD
ENDBRANCH  31  32
ENDBRANCH   2  31
TORSDOF 13
ENDMDL
MODEL 8
REMARK VINA RESULT:      -6.9      1.520      1.809
REMARK  Name = 
REMARK  15 active torsions:
REMARK  status: ('A' for Active; 'I' for Inactive)
REMARK    1  A    between atoms: C_1  and  C_2
REMARK    2  A    between atoms: C_2  and  C_3
REMARK    3  A    between atoms: C_3  and  C_4
REMARK    4  A    between atoms: C_4  and  C_5
REMARK    5  A    between atoms: C_5  and  C_6
REMARK    6  A    between atoms: C_6  and  C_7
REMARK    7  A    between atoms: C_7  and  C_8
REMARK    8  A    between atoms: C_8  and  N_9
REMARK    9  A    between atoms: C_10  and  C_12
REMARK   10  A    between atoms: C_12  and  N_13
REMARK   11  A    between atoms: N_13  and  N_18
REMARK   12  A    between atoms: C_14  and  C_16
REMARK   13  A    between atoms: C_16  and  N_17
REMARK   14  A    between atoms: N_18  and  C_19
REMARK   15  A    between atoms: C_20  and  C_22
REMARK                            x       y       z     vdW  Elec       q    Type
REMARK                         _______ _______ _______ _____ _____    ______ ____
ROOT
ATOM      1  N   UNL     1       2.848   4.908  18.427  0.00  0.00    +0.000 N 
ATOM      2  C   UNL     1       2.065   3.898  17.850  0.00  0.00    +0.000 C 
ATOM      3  O   UNL     1       0.885   4.085  17.531  0.00  0.00    +0.000 OA
ENDROOT
BRANCH   1   4
ATOM      4  N   UNL     1       2.065   5.836  19.308  0.00  0.00    +0.000 N 
ATOM      5  C   UNL     1       1.960   5.342  20.685  0.00  0.00    +0.000 C 
ATOM      6  C   UNL     1       2.075   7.205  18.939  0.00  0.00    +0.000 C 
ATOM      7  O   UNL     1       2.491   7.566  17.837  0.00  0.00    +0.000 OA
BRANCH   6   8
ATOM      8  C   UNL     1       1.534   8.246  19.890  0.00  0.00    +0.000 A 
ATOM      9  C   UNL     1       0.945   7.825  21.085  0.00  0.00    +0.000 A 
ATOM     10  C   UNL     1       0.471   8.742  22.016  0.00  0.00    +0.000 A 
ATOM     11  C   UNL     1       0.511  10.103  21.721  0.00  0.00    +0.000 A 
ATOM     12  C   UNL     1       1.003  10.561  20.494  0.00  0.00    +0.000 A 
ATOM     13  C   UNL     1       0.953  11.938  20.212  0.00  0.00    +0.000 A 
ATOM     14  C   UNL     1       1.403  12.442  18.998  0.00  0.00    +0.000 A 
ATOM     15  C   UNL     1       1.927  11.572  18.053  0.00  0.00    +0.000 A 
ATOM     16  C   UNL     1       1.998  10.200  18.324  0.00  0.00    +0.000 A 
ATOM     17  C   UNL     1       1.529   9.643  19.545  0.00  0.00    +0.000 A 
ENDBRANCH   6   8
ENDBRANCH   1   4
BRANCH   1  18
ATOM     18  C   UNL     1       4.254   4.784  18.892  0.00  0.00    +0.000 C 
BRANCH  18  20
ATOM     19  N   UNL     1       6.287   4.277  17.494  0.00  0.00    +0.000 N 
ATOM     20  C   UNL     1       5.446   5.247  18.007  0.00  0.00    +0.000 C 
ATOM     21  O   UNL     1       5.720   6.442  17.892  0.00  0.00    +0.000 OA
ATOM     22  H   UNL     1       5.880   3.406  17.217  0.00  0.00    +0.000 HD
BRANCH  19  23
ATOM     23  C   UNL     1       7.522   4.622  16.804  0.00  0.00    +0.000 C 
BRANCH  23  24
ATOM     24  C   UNL     1       7.375   4.689  15.277  0.00  0.00    +0.000 C 
BRANCH  24  25
ATOM     25  C   UNL     1       6.336   3.709  14.719  0.00  0.00    +0.000 C 
BRANCH  25  26
ATOM     26  C   UNL     1       5.628   4.275  13.487  0.00  0.00    +0.000 C 
BRANCH  26  27
ATOM     27  C   UNL     1       5.585   3.262  12.339  0.00  0.00    +0.000 C 
BRANCH  27  28
ATOM     28  C   UNL     1       6.899   3.284  11.559  0.00  0.00    +0.000 C 
BRANCH  28  30
ATOM     29  C   UNL     1       6.152   0.925  11.145  0.00  0.00    +0.000 C 
ATOM     30  C   UNL     1       7.328   1.890  11.106  0.00  0.00    +0.000 C 
ENDBRANCH  28  30
ENDBRANCH  27  28
ENDBRANCH  26  27
ENDBRANCH  25  26
ENDBRANCH  24  25
ENDBRANCH  23  24
ENDBRANCH  19  23
ENDBRANCH  18  20
ENDBRANCH   1  18
BRANCH   2  31
ATOM     31  C   UNL     1       2.719   2.539  17.595  0.00  0.00    +0.000 C 
BRANCH  31  32
ATOM     32  N   UNL     1       2.371   1.557  18.622  0.00  0.00    +0.000 NA
ATOM     33  H   UNL     1       1.740   0.868  18.212  0.00  0.00    +0.000 HD
ATOM     34  H   UNL     1       1.853   2.023  19.363  0.00  0.00    +0.000 HD
ENDBRANCH  31  32
ENDBRANCH   2  31
TORSDOF 13
ENDMDL
MODEL 9
REMARK VINA RESULT:      -6.9      5.003      7.727
REMARK  Name = 
REMARK  15 active torsions:
REMARK  status: ('A' for Active; 'I' for Inactive)
REMARK    1  A    between atoms: C_1  and  C_2
REMARK    2  A    between atoms: C_2  and  C_3
REMARK    3  A    between atoms: C_3  and  C_4
REMARK    4  A    between atoms: C_4  and  C_5
REMARK    5  A    between atoms: C_5  and  C_6
REMARK    6  A    between atoms: C_6  and  C_7
REMARK    7  A    between atoms: C_7  and  C_8
REMARK    8  A    between atoms: C_8  and  N_9
REMARK    9  A    between atoms: C_10  and  C_12
REMARK   10  A    between atoms: C_12  and  N_13
REMARK   11  A    between atoms: N_13  and  N_18
REMARK   12  A    between atoms: C_14  and  C_16
REMARK   13  A    between atoms: C_16  and  N_17
REMARK   14  A    between atoms: N_18  and  C_19
REMARK   15  A    between atoms: C_20  and  C_22
REMARK                            x       y       z     vdW  Elec       q    Type
REMARK                         _______ _______ _______ _____ _____    ______ ____
ROOT
ATOM      1  N   UNL     1       6.103   5.355  16.180  0.00  0.00    +0.000 N 
ATOM      2  C   UNL     1       5.872   4.836  14.899  0.00  0.00    +0.000 C 
ATOM      3  O   UNL     1       4.731   4.704  14.440  0.00  0.00    +0.000 OA
ENDROOT
BRANCH   1   4
ATOM      4  N   UNL     1       5.033   4.995  17.168  0.00  0.00    +0.000 N 
ATOM      5  C   UNL     1       5.488   4.001  18.146  0.00  0.00    +0.000 C 
ATOM      6  C   UNL     1       4.057   5.991  17.423  0.00  0.00    +0.000 C 
ATOM      7  O   UNL     1       3.955   6.984  16.700  0.00  0.00    +0.000 OA
BRANCH   6   8
ATOM      8  C   UNL     1       3.093   5.826  18.574  0.00  0.00    +0.000 A 
ATOM      9  C   UNL     1       3.011   6.838  19.534  0.00  0.00    +0.000 A 
ATOM     10  C   UNL     1       2.110   6.757  20.589  0.00  0.00    +0.000 A 
ATOM     11  C   UNL     1       1.329   5.614  20.739  0.00  0.00    +0.000 A 
ATOM     12  C   UNL     1       1.450   4.536  19.856  0.00  0.00    +0.000 A 
ATOM     13  C   UNL     1       0.695   3.373  20.093  0.00  0.00    +0.000 A 
ATOM     14  C   UNL     1       0.799   2.265  19.261  0.00  0.00    +0.000 A 
ATOM     15  C   UNL     1       1.652   2.312  18.169  0.00  0.00    +0.000 A 
ATOM     16  C   UNL     1       2.399   3.467  17.910  0.00  0.00    +0.000 A 
ATOM     17  C   UNL     1       2.336   4.615  18.748  0.00  0.00    +0.000 A 
ENDBRANCH   6   8
ENDBRANCH   1   4
BRANCH   1  18
ATOM     18  C   UNL     1       7.420   5.514  16.849  0.00  0.00    +0.000 C 
BRANCH  18  20
ATOM     19  N   UNL     1       7.825   7.918  17.481  0.00  0.00    +0.000 N 
ATOM     20  C   UNL     1       7.661   6.616  17.918  0.00  0.00    +0.000 C 
ATOM     21  O   UNL     1       7.850   6.320  19.099  0.00  0.00    +0.000 OA
ATOM     22  H   UNL     1       7.286   8.217  16.693  0.00  0.00    +0.000 HD
BRANCH  19  23
ATOM     23  C   UNL     1       8.227   8.984  18.388  0.00  0.00    +0.000 C 
BRANCH  23  24
ATOM     24  C   UNL     1       8.724  10.247  17.668  0.00  0.00    +0.000 C 
BRANCH  24  25
ATOM     25  C   UNL     1       9.684  11.094  18.514  0.00  0.00    +0.000 C 
BRANCH  25  26
ATOM     26  C   UNL     1      10.826  11.665  17.671  0.00  0.00    +0.000 C 
BRANCH  26  27
ATOM     27  C   UNL     1      11.417  12.932  18.296  0.00  0.00    +0.000 C 
BRANCH  27  28
ATOM     28  C   UNL     1      11.760  13.952  17.210  0.00  0.00    +0.000 C 
BRANCH  28  30
ATOM     29  C   UNL     1      11.951  15.388  19.258  0.00  0.00    +0.000 C 
ATOM     30  C   UNL     1      11.787  15.382  17.745  0.00  0.00    +0.000 C 
ENDBRANCH  28  30
ENDBRANCH  27  28
ENDBRANCH  26  27
ENDBRANCH  25  26
ENDBRANCH  24  25
ENDBRANCH  23  24
ENDBRANCH  19  23
ENDBRANCH  18  20
ENDBRANCH   1  18
BRANCH   2  31
ATOM     31  C   UNL     1       7.085   4.452  14.050  0.00  0.00    +0.000 C 
BRANCH  31  32
ATOM     32  N   UNL     1       6.723   3.576  12.935  0.00  0.00    +0.000 NA
ATOM     33  H   UNL     1       7.433   3.666  12.208  0.00  0.00    +0.000 HD
ATOM     34  H   UNL     1       5.848   3.901  12.530  0.00  0.00    +0.000 HD
ENDBRANCH  31  32
ENDBRANCH   2  31
TORSDOF 13
ENDMDL
