MODEL 1
REMARK VINA RESULT:      -8.1      0.000      0.000
REMARK  Name = 
REMARK  6 active torsions:
REMARK  status: ('A' for Active; 'I' for Inactive)
REMARK    1  A    between atoms: C_1  and  C_2
REMARK    2  A    between atoms: C_2  and  C_3
REMARK    3  A    between atoms: C_3  and  N_4
REMARK    4  A    between atoms: C_5  and  C_7
REMARK    5  A    between atoms: C_16  and  C_17
REMARK    6  A    between atoms: C_19  and  C_20
REMARK                            x       y       z     vdW  Elec       q    Type
REMARK                         _______ _______ _______ _____ _____    ______ ____
ROOT
ATOM      1  C   UNL     1       5.065   5.486  16.276  0.00  0.00    +0.000 A 
ATOM      2  N   UNL     1       4.632   4.492  17.061  0.00  0.00    +0.000 NA
ATOM      3  C   UNL     1       3.700   4.779  17.987  0.00  0.00    +0.000 A 
ATOM      4  N   UNL     1       3.252   3.724  18.779  0.00  0.00    +0.000 N 
ATOM      5  C   UNL     1       4.107   2.522  18.889  0.00  0.00    +0.000 C 
ATOM      6  C   UNL     1       3.129   1.346  18.999  0.00  0.00    +0.000 C 
ATOM      7  C   UNL     1       1.844   2.001  19.468  0.00  0.00    +0.000 C 
ATOM      8  C   UNL     1       1.856   3.288  18.649  0.00  0.00    +0.000 C 
ATOM      9  C   UNL     1       3.227   6.114  18.169  0.00  0.00    +0.000 A 
ATOM     10  C   UNL     1       2.367   6.651  19.192  0.00  0.00    +0.000 A 
ATOM     11  C   UNL     1       1.875   5.924  20.413  0.00  0.00    +0.000 C 
ATOM     12  C   UNL     1       1.951   7.982  19.106  0.00  0.00    +0.000 A 
ATOM     13  C   UNL     1       2.453   8.777  18.100  0.00  0.00    +0.000 A 
ATOM     14  C   UNL     1       2.073  10.224  18.025  0.00  0.00    +0.000 C 
ATOM     15  N   UNL     1       3.339   8.312  17.198  0.00  0.00    +0.000 NA
ATOM     16  C   UNL     1       3.723   7.038  17.227  0.00  0.00    +0.000 A 
ATOM     17  N   UNL     1       4.624   6.746  16.308  0.00  0.00    +0.000 NA
ENDROOT
BRANCH   1  19
ATOM     18  N   UNL     1       5.821   4.380  14.214  0.00  0.00    +0.000 N 
ATOM     19  C   UNL     1       6.183   5.190  15.283  0.00  0.00    +0.000 C 
ATOM     20  O   UNL     1       7.313   5.658  15.406  0.00  0.00    +0.000 OA
ATOM     21  H   UNL     1       4.862   4.033  14.200  0.00  0.00    +0.000 HD
BRANCH  18  22
ATOM     22  C   UNL     1       6.721   4.021  13.130  0.00  0.00    +0.000 C 
BRANCH  22  24
ATOM     23  C   UNL     1       4.612   3.390  11.855  0.00  0.00    +0.000 C 
ATOM     24  C   UNL     1       6.083   3.086  12.102  0.00  0.00    +0.000 C 
ENDBRANCH  22  24
ENDBRANCH  18  22
ENDBRANCH   1  19
TORSDOF 3
ENDMDL
MODEL 2
REMARK VINA RESULT:      -7.9      2.328      6.019
REMARK  Name = 
REMARK  6 active torsions:
REMARK  status: ('A' for Active; 'I' for Inactive)
REMARK    1  A    between atoms: C_1  and  C_2
REMARK    2  A    between atoms: C_2  and  C_3
REMARK    3  A    between atoms: C_3  and  N_4
REMARK    4  A    between atoms: C_5  and  C_7
REMARK    5  A    between atoms: C_16  and  C_17
REMARK    6  A    between atoms: C_19  and  C_20
REMARK                            x       y       z     vdW  Elec       q    Type
REMARK                         _______ _______ _______ _____ _____    ______ ____
ROOT
ATOM      1  C   UNL     1       2.781   7.304  18.132  0.00  0.00    +0.000 A 
ATOM      2  N   UNL     1       2.341   6.271  18.861  0.00  0.00    +0.000 NA
ATOM      3  C   UNL     1       2.886   5.062  18.636  0.00  0.00    +0.000 A 
ATOM      4  N   UNL     1       2.425   4.007  19.421  0.00  0.00    +0.000 N 
ATOM      5  C   UNL     1       1.110   4.151  20.081  0.00  0.00    +0.000 C 
ATOM      6  C   UNL     1       1.250   3.408  21.415  0.00  0.00    +0.000 C 
ATOM      7  C   UNL     1       2.421   2.475  21.175  0.00  0.00    +0.000 C 
ATOM      8  C   UNL     1       3.352   3.375  20.368  0.00  0.00    +0.000 C 
ATOM      9  C   UNL     1       3.863   4.872  17.612  0.00  0.00    +0.000 A 
ATOM     10  C   UNL     1       4.443   3.651  17.113  0.00  0.00    +0.000 A 
ATOM     11  C   UNL     1       4.027   2.254  17.479  0.00  0.00    +0.000 C 
ATOM     12  C   UNL     1       5.469   3.719  16.167  0.00  0.00    +0.000 A 
ATOM     13  C   UNL     1       5.834   4.947  15.661  0.00  0.00    +0.000 A 
ATOM     14  C   UNL     1       6.886   5.039  14.599  0.00  0.00    +0.000 C 
ATOM     15  N   UNL     1       5.227   6.086  16.046  0.00  0.00    +0.000 NA
ATOM     16  C   UNL     1       4.275   6.060  16.976  0.00  0.00    +0.000 A 
ATOM     17  N   UNL     1       3.749   7.247  17.214  0.00  0.00    +0.000 NA
ENDROOT
BRANCH   1  19
ATOM     18  N   UNL     1       1.478   8.840  19.543  0.00  0.00    +0.000 N 
ATOM     19  C   UNL     1       2.109   8.660  18.318  0.00  0.00    +0.000 C 
ATOM     20  O   UNL     1       2.149   9.537  17.458  0.00  0.00    +0.000 OA
ATOM     21  H   UNL     1       1.492   8.054  20.191  0.00  0.00    +0.000 HD
BRANCH  18  22
ATOM     22  C   UNL     1       0.825  10.077  19.941  0.00  0.00    +0.000 C 
BRANCH  22  24
ATOM     23  C   UNL     1      -0.199   8.494  21.648  0.00  0.00    +0.000 C 
ATOM     24  C   UNL     1      -0.255   9.872  21.004  0.00  0.00    +0.000 C 
ENDBRANCH  22  24
ENDBRANCH  18  22
ENDBRANCH   1  19
TORSDOF 3
ENDMDL
MODEL 3
REMARK VINA RESULT:      -7.5      1.313      1.507
REMARK  Name = 
REMARK  6 active torsions:
REMARK  status: ('A' for Active; 'I' for Inactive)
REMARK    1  A    between atoms: C_1  and  C_2
REMARK    2  A    between atoms: C_2  and  C_3
REMARK    3  A    between atoms: C_3  and  N_4
REMARK    4  A    between atoms: C_5  and  C_7
REMARK    5  A    between atoms: C_16  and  C_17
REMARK    6  A    between atoms: C_19  and  C_20
REMARK                            x       y       z     vdW  Elec       q    Type
REMARK                         _______ _______ _______ _____ _____    ______ ____
ROOT
ATOM      1  C   UNL     1       4.328   6.104  17.126  0.00  0.00    +0.000 A 
ATOM      2  N   UNL     1       3.920   5.238  18.062  0.00  0.00    +0.000 NA
ATOM      3  C   UNL     1       3.011   5.662  18.959  0.00  0.00    +0.000 A 
ATOM      4  N   UNL     1       2.588   4.737  19.912  0.00  0.00    +0.000 N 
ATOM      5  C   UNL     1       3.451   3.566  20.179  0.00  0.00    +0.000 C 
ATOM      6  C   UNL     1       2.481   2.420  20.490  0.00  0.00    +0.000 C 
ATOM      7  C   UNL     1       1.206   3.137  20.889  0.00  0.00    +0.000 C 
ATOM      8  C   UNL     1       1.191   4.287  19.886  0.00  0.00    +0.000 C 
ATOM      9  C   UNL     1       2.537   7.009  18.951  0.00  0.00    +0.000 A 
ATOM     10  C   UNL     1       1.702   7.693  19.904  0.00  0.00    +0.000 A 
ATOM     11  C   UNL     1       1.246   7.158  21.233  0.00  0.00    +0.000 C 
ATOM     12  C   UNL     1       1.279   8.996  19.630  0.00  0.00    +0.000 A 
ATOM     13  C   UNL     1       1.751   9.631  18.502  0.00  0.00    +0.000 A 
ATOM     14  C   UNL     1       1.363  11.050  18.221  0.00  0.00    +0.000 C 
ATOM     15  N   UNL     1       2.614   9.036  17.658  0.00  0.00    +0.000 NA
ATOM     16  C   UNL     1       3.004   7.781  17.868  0.00  0.00    +0.000 A 
ATOM     17  N   UNL     1       3.882   7.354  16.980  0.00  0.00    +0.000 NA
ENDROOT
BRANCH   1  19
ATOM     18  N   UNL     1       5.291   4.364  15.677  0.00  0.00    +0.000 N 
ATOM     19  C   UNL     1       5.421   5.661  16.158  0.00  0.00    +0.000 C 
ATOM     20  O   UNL     1       6.332   6.409  15.810  0.00  0.00    +0.000 OA
ATOM     21  H   UNL     1       4.506   3.817  16.029  0.00  0.00    +0.000 HD
BRANCH  18  22
ATOM     22  C   UNL     1       6.195   3.768  14.706  0.00  0.00    +0.000 C 
BRANCH  22  24
ATOM     23  C   UNL     1       6.659   3.668  12.207  0.00  0.00    +0.000 C 
ATOM     24  C   UNL     1       5.600   3.690  13.300  0.00  0.00    +0.000 C 
ENDBRANCH  22  24
ENDBRANCH  18  22
ENDBRANCH   1  19
TORSDOF 3
ENDMDL
MODEL 4
REMARK VINA RESULT:      -7.5      2.473      5.794
REMARK  Name = 
REMARK  6 active torsions:
REMARK  status: ('A' for Active; 'I' for Inactive)
REMARK    1  A    between atoms: C_1  and  C_2
REMARK    2  A    between atoms: C_2  and  C_3
REMARK    3  A    between atoms: C_3  and  N_4
REMARK    4  A    between atoms: C_5  and  C_7
REMARK    5  A    between atoms: C_16  and  C_17
REMARK    6  A    between atoms: C_19  and  C_20
REMARK                            x       y       z     vdW  Elec       q    Type
REMARK                         _______ _______ _______ _____ _____    ______ ____
ROOT
ATOM      1  C   UNL     1       2.471   7.124  18.894  0.00  0.00    +0.000 A 
ATOM      2  N   UNL     1       2.122   6.010  19.549  0.00  0.00    +0.000 NA
ATOM      3  C   UNL     1       2.670   4.847  19.153  0.00  0.00    +0.000 A 
ATOM      4  N   UNL     1       2.305   3.704  19.862  0.00  0.00    +0.000 N 
ATOM      5  C   UNL     1       1.052   3.740  20.645  0.00  0.00    +0.000 C 
ATOM      6  C   UNL     1       1.328   2.870  21.878  0.00  0.00    +0.000 C 
ATOM      7  C   UNL     1       2.493   2.004  21.441  0.00  0.00    +0.000 C 
ATOM      8  C   UNL     1       3.327   3.009  20.654  0.00  0.00    +0.000 C 
ATOM      9  C   UNL     1       3.555   4.792  18.033  0.00  0.00    +0.000 A 
ATOM     10  C   UNL     1       4.114   3.647  17.361  0.00  0.00    +0.000 A 
ATOM     11  C   UNL     1       3.764   2.207  17.617  0.00  0.00    +0.000 C 
ATOM     12  C   UNL     1       5.049   3.842  16.342  0.00  0.00    +0.000 A 
ATOM     13  C   UNL     1       5.340   5.125  15.936  0.00  0.00    +0.000 A 
ATOM     14  C   UNL     1       6.289   5.358  14.801  0.00  0.00    +0.000 C 
ATOM     15  N   UNL     1       4.745   6.200  16.489  0.00  0.00    +0.000 NA
ATOM     16  C   UNL     1       3.882   6.051  17.490  0.00  0.00    +0.000 A 
ATOM     17  N   UNL     1       3.354   7.191  17.895  0.00  0.00    +0.000 NA
ENDROOT
BRANCH   1  19
ATOM     18  N   UNL     1       1.404   9.231  18.209  0.00  0.00    +0.000 N 
ATOM     19  C   UNL     1       1.789   8.433  19.278  0.00  0.00    +0.000 C 
ATOM     20  O   UNL     1       1.571   8.742  20.448  0.00  0.00    +0.000 OA
ATOM     21  H   UNL     1       1.633   8.895  17.274  0.00  0.00    +0.000 HD
BRANCH  18  22
ATOM     22  C   UNL     1       0.692  10.491  18.356  0.00  0.00    +0.000 C 
BRANCH  22  24
ATOM     23  C   UNL     1      -1.560   9.962  17.300  0.00  0.00    +0.000 C 
ATOM     24  C   UNL     1      -0.810  10.311  18.577  0.00  0.00    +0.000 C 
ENDBRANCH  22  24
ENDBRANCH  18  22
ENDBRANCH   1  19
TORSDOF 3
ENDMDL
MODEL 5
REMARK VINA RESULT:      -7.1      2.453      5.912
REMARK  Name = 
REMARK  6 active torsions:
REMARK  status: ('A' for Active; 'I' for Inactive)
REMARK    1  A    between atoms: C_1  and  C_2
REMARK    2  A    between atoms: C_2  and  C_3
REMARK    3  A    between atoms: C_3  and  N_4
REMARK    4  A    between atoms: C_5  and  C_7
REMARK    5  A    between atoms: C_16  and  C_17
REMARK    6  A    between atoms: C_19  and  C_20
REMARK                            x       y       z     vdW  Elec       q    Type
REMARK                         _______ _______ _______ _____ _____    ______ ____
ROOT
ATOM      1  C   UNL     1       2.519   7.147  18.801  0.00  0.00    +0.000 A 
ATOM      2  N   UNL     1       2.150   6.043  19.462  0.00  0.00    +0.000 NA
ATOM      3  C   UNL     1       2.691   4.871  19.084  0.00  0.00    +0.000 A 
ATOM      4  N   UNL     1       2.305   3.739  19.798  0.00  0.00    +0.000 N 
ATOM      5  C   UNL     1       1.042   3.796  20.566  0.00  0.00    +0.000 C 
ATOM      6  C   UNL     1       1.294   2.935  21.810  0.00  0.00    +0.000 C 
ATOM      7  C   UNL     1       2.455   2.051  21.396  0.00  0.00    +0.000 C 
ATOM      8  C   UNL     1       3.309   3.040  20.609  0.00  0.00    +0.000 C 
ATOM      9  C   UNL     1       3.588   4.796  17.975  0.00  0.00    +0.000 A 
ATOM     10  C   UNL     1       4.142   3.638  17.321  0.00  0.00    +0.000 A 
ATOM     11  C   UNL     1       3.773   2.205  17.585  0.00  0.00    +0.000 C 
ATOM     12  C   UNL     1       5.091   3.813  16.311  0.00  0.00    +0.000 A 
ATOM     13  C   UNL     1       5.402   5.090  15.897  0.00  0.00    +0.000 A 
ATOM     14  C   UNL     1       6.367   5.301  14.771  0.00  0.00    +0.000 C 
ATOM     15  N   UNL     1       4.812   6.176  16.432  0.00  0.00    +0.000 NA
ATOM     16  C   UNL     1       3.935   6.046  17.424  0.00  0.00    +0.000 A 
ATOM     17  N   UNL     1       3.414   7.195  17.812  0.00  0.00    +0.000 NA
ENDROOT
BRANCH   1  19
ATOM     18  N   UNL     1       1.676   9.351  18.107  0.00  0.00    +0.000 N 
ATOM     19  C   UNL     1       1.847   8.467  19.165  0.00  0.00    +0.000 C 
ATOM     20  O   UNL     1       1.460   8.715  20.304  0.00  0.00    +0.000 OA
ATOM     21  H   UNL     1       2.036   9.061  17.198  0.00  0.00    +0.000 HD
BRANCH  18  22
ATOM     22  C   UNL     1       1.010  10.638  18.229  0.00  0.00    +0.000 C 
BRANCH  22  24
ATOM     23  C   UNL     1       1.638  12.544  19.793  0.00  0.00    +0.000 C 
ATOM     24  C   UNL     1       1.975  11.789  18.515  0.00  0.00    +0.000 C 
ENDBRANCH  22  24
ENDBRANCH  18  22
ENDBRANCH   1  19
TORSDOF 3
ENDMDL
MODEL 6
REMARK VINA RESULT:      -7.1      2.656      3.307
REMARK  Name = 
REMARK  6 active torsions:
REMARK  status: ('A' for Active; 'I' for Inactive)
REMARK    1  A    between atoms: C_1  and  C_2
REMARK    2  A    between atoms: C_2  and  C_3
REMARK    3  A    between atoms: C_3  and  N_4
REMARK    4  A    between atoms: C_5  and  C_7
REMARK    5  A    between atoms: C_16  and  C_17
REMARK    6  A    between atoms: C_19  and  C_20
REMARK                            x       y       z     vdW  Elec       q    Type
REMARK                         _______ _______ _______ _____ _____    ______ ____
ROOT
ATOM      1  C   UNL     1       5.844   4.326  14.593  0.00  0.00    +0.000 A 
ATOM      2  N   UNL     1       5.032   3.691  15.447  0.00  0.00    +0.000 NA
ATOM      3  C   UNL     1       5.009   4.109  16.726  0.00  0.00    +0.000 A 
ATOM      4  N   UNL     1       4.144   3.443  17.591  0.00  0.00    +0.000 N 
ATOM      5  C   UNL     1       3.682   2.090  17.212  0.00  0.00    +0.000 C 
ATOM      6  C   UNL     1       2.247   1.995  17.745  0.00  0.00    +0.000 C 
ATOM      7  C   UNL     1       2.200   3.067  18.817  0.00  0.00    +0.000 C 
ATOM      8  C   UNL     1       3.006   4.180  18.155  0.00  0.00    +0.000 C 
ATOM      9  C   UNL     1       5.864   5.162  17.174  0.00  0.00    +0.000 A 
ATOM     10  C   UNL     1       6.104   5.642  18.510  0.00  0.00    +0.000 A 
ATOM     11  C   UNL     1       5.593   5.026  19.782  0.00  0.00    +0.000 C 
ATOM     12  C   UNL     1       6.913   6.765  18.697  0.00  0.00    +0.000 A 
ATOM     13  C   UNL     1       7.543   7.327  17.608  0.00  0.00    +0.000 A 
ATOM     14  C   UNL     1       8.467   8.491  17.791  0.00  0.00    +0.000 C 
ATOM     15  N   UNL     1       7.406   6.822  16.367  0.00  0.00    +0.000 NA
ATOM     16  C   UNL     1       6.609   5.778  16.149  0.00  0.00    +0.000 A 
ATOM     17  N   UNL     1       6.614   5.375  14.892  0.00  0.00    +0.000 NA
ENDROOT
BRANCH   1  19
ATOM     18  N   UNL     1       4.728   3.480  12.571  0.00  0.00    +0.000 N 
ATOM     19  C   UNL     1       5.942   3.804  13.164  0.00  0.00    +0.000 C 
ATOM     20  O   UNL     1       7.015   3.706  12.573  0.00  0.00    +0.000 OA
ATOM     21  H   UNL     1       3.891   3.587  13.142  0.00  0.00    +0.000 HD
BRANCH  18  22
ATOM     22  C   UNL     1       4.597   3.016  11.199  0.00  0.00    +0.000 C 
BRANCH  22  24
ATOM     23  C   UNL     1       3.003   4.206   9.614  0.00  0.00    +0.000 C 
ATOM     24  C   UNL     1       3.168   3.117  10.664  0.00  0.00    +0.000 C 
ENDBRANCH  22  24
ENDBRANCH  18  22
ENDBRANCH   1  19
TORSDOF 3
ENDMDL
MODEL 7
REMARK VINA RESULT:      -7.0      2.344      6.390
REMARK  Name = 
REMARK  6 active torsions:
REMARK  status: ('A' for Active; 'I' for Inactive)
REMARK    1  A    between atoms: C_1  and  C_2
REMARK    2  A    between atoms: C_2  and  C_3
REMARK    3  A    between atoms: C_3  and  N_4
REMARK    4  A    between atoms: C_5  and  C_7
REMARK    5  A    between atoms: C_16  and  C_17
REMARK    6  A    between atoms: C_19  and  C_20
REMARK                            x       y       z     vdW  Elec       q    Type
REMARK                         _______ _______ _______ _____ _____    ______ ____
ROOT
ATOM      1  C   UNL     1       2.434   7.190  18.588  0.00  0.00    +0.000 A 
ATOM      2  N   UNL     1       3.435   6.761  17.811  0.00  0.00    +0.000 NA
ATOM      3  C   UNL     1       3.895   5.512  18.006  0.00  0.00    +0.000 A 
ATOM      4  N   UNL     1       4.925   5.082  17.173  0.00  0.00    +0.000 N 
ATOM      5  C   UNL     1       5.740   6.106  16.484  0.00  0.00    +0.000 C 
ATOM      6  C   UNL     1       6.098   5.485  15.128  0.00  0.00    +0.000 C 
ATOM      7  C   UNL     1       5.916   3.998  15.365  0.00  0.00    +0.000 C 
ATOM      8  C   UNL     1       4.658   3.990  16.228  0.00  0.00    +0.000 C 
ATOM      9  C   UNL     1       3.371   4.687  19.048  0.00  0.00    +0.000 A 
ATOM     10  C   UNL     1       3.826   3.404  19.518  0.00  0.00    +0.000 A 
ATOM     11  C   UNL     1       5.080   2.693  19.091  0.00  0.00    +0.000 C 
ATOM     12  C   UNL     1       3.085   2.731  20.492  0.00  0.00    +0.000 A 
ATOM     13  C   UNL     1       1.990   3.354  21.051  0.00  0.00    +0.000 A 
ATOM     14  C   UNL     1       1.218   2.680  22.143  0.00  0.00    +0.000 C 
ATOM     15  N   UNL     1       1.617   4.597  20.691  0.00  0.00    +0.000 NA
ATOM     16  C   UNL     1       2.277   5.249  19.737  0.00  0.00    +0.000 A 
ATOM     17  N   UNL     1       1.819   6.469  19.528  0.00  0.00    +0.000 NA
ENDROOT
BRANCH   1  19
ATOM     18  N   UNL     1       1.272   9.147  19.522  0.00  0.00    +0.000 N 
ATOM     19  C   UNL     1       1.965   8.633  18.433  0.00  0.00    +0.000 C 
ATOM     20  O   UNL     1       2.209   9.299  17.430  0.00  0.00    +0.000 OA
ATOM     21  H   UNL     1       1.112   8.517  20.308  0.00  0.00    +0.000 HD
BRANCH  18  22
ATOM     22  C   UNL     1       0.786  10.516  19.599  0.00  0.00    +0.000 C 
BRANCH  22  24
ATOM     23  C   UNL     1      -1.252  10.443  18.079  0.00  0.00    +0.000 C 
ATOM     24  C   UNL     1      -0.736  10.620  19.500  0.00  0.00    +0.000 C 
ENDBRANCH  22  24
ENDBRANCH  18  22
ENDBRANCH   1  19
TORSDOF 3
ENDMDL
MODEL 8
REMARK VINA RESULT:      -6.9      0.777      1.091
REMARK  Name = 
REMARK  6 active torsions:
REMARK  status: ('A' for Active; 'I' for Inactive)
REMARK    1  A    between atoms: C_1  and  C_2
REMARK    2  A    between atoms: C_2  and  C_3
REMARK    3  A    between atoms: C_3  and  N_4
REMARK    4  A    between atoms: C_5  and  C_7
REMARK    5  A    between atoms: C_16  and  C_17
REMARK    6  A    between atoms: C_19  and  C_20
REMARK                            x       y       z     vdW  Elec       q    Type
REMARK                         _______ _______ _______ _____ _____    ______ ____
ROOT
ATOM      1  C   UNL     1       5.133   5.555  16.527  0.00  0.00    +0.000 A 
ATOM      2  N   UNL     1       4.657   4.572  17.301  0.00  0.00    +0.000 NA
ATOM      3  C   UNL     1       3.672   4.871  18.166  0.00  0.00    +0.000 A 
ATOM      4  N   UNL     1       3.180   3.827  18.947  0.00  0.00    +0.000 N 
ATOM      5  C   UNL     1       4.031   2.631  19.128  0.00  0.00    +0.000 C 
ATOM      6  C   UNL     1       3.052   1.453  19.199  0.00  0.00    +0.000 C 
ATOM      7  C   UNL     1       1.739   2.110  19.580  0.00  0.00    +0.000 C 
ATOM      8  C   UNL     1       1.796   3.384  18.742  0.00  0.00    +0.000 C 
ATOM      9  C   UNL     1       3.185   6.207  18.297  0.00  0.00    +0.000 A 
ATOM     10  C   UNL     1       2.264   6.757  19.259  0.00  0.00    +0.000 A 
ATOM     11  C   UNL     1       1.703   6.049  20.460  0.00  0.00    +0.000 C 
ATOM     12  C   UNL     1       1.850   8.085  19.126  0.00  0.00    +0.000 A 
ATOM     13  C   UNL     1       2.408   8.866  18.137  0.00  0.00    +0.000 A 
ATOM     14  C   UNL     1       2.030  10.309  18.016  0.00  0.00    +0.000 C 
ATOM     15  N   UNL     1       3.347   8.389  17.298  0.00  0.00    +0.000 NA
ATOM     16  C   UNL     1       3.733   7.117  17.371  0.00  0.00    +0.000 A 
ATOM     17  N   UNL     1       4.687   6.813  16.512  0.00  0.00    +0.000 NA
ENDROOT
BRANCH   1  19
ATOM     18  N   UNL     1       6.023   4.381  14.557  0.00  0.00    +0.000 N 
ATOM     19  C   UNL     1       6.309   5.246  15.606  0.00  0.00    +0.000 C 
ATOM     20  O   UNL     1       7.419   5.749  15.766  0.00  0.00    +0.000 OA
ATOM     21  H   UNL     1       5.076   4.009  14.509  0.00  0.00    +0.000 HD
BRANCH  18  22
ATOM     22  C   UNL     1       6.988   4.001  13.537  0.00  0.00    +0.000 C 
BRANCH  22  24
ATOM     23  C   UNL     1       8.417   5.853  12.537  0.00  0.00    +0.000 C 
ATOM     24  C   UNL     1       7.132   5.043  12.428  0.00  0.00    +0.000 C 
ENDBRANCH  22  24
ENDBRANCH  18  22
ENDBRANCH   1  19
TORSDOF 3
ENDMDL
MODEL 9
REMARK VINA RESULT:      -6.9      1.420      4.330
REMARK  Name = 
REMARK  6 active torsions:
REMARK  status: ('A' for Active; 'I' for Inactive)
REMARK    1  A    between atoms: C_1  and  C_2
REMARK    2  A    between atoms: C_2  and  C_3
REMARK    3  A    between atoms: C_3  and  N_4
REMARK    4  A    between atoms: C_5  and  C_7
REMARK    5  A    between atoms: C_16  and  C_17
REMARK    6  A    between atoms: C_19  and  C_20
REMARK                            x       y       z     vdW  Elec       q    Type
REMARK                         _______ _______ _______ _____ _____    ______ ____
ROOT
ATOM      1  C   UNL     1       5.392   5.231  17.186  0.00  0.00    +0.000 A 
ATOM      2  N   UNL     1       4.394   6.104  17.363  0.00  0.00    +0.000 NA
ATOM      3  C   UNL     1       3.519   5.871  18.357  0.00  0.00    +0.000 A 
ATOM      4  N   UNL     1       2.499   6.804  18.533  0.00  0.00    +0.000 N 
ATOM      5  C   UNL     1       2.160   7.688  17.396  0.00  0.00    +0.000 C 
ATOM      6  C   UNL     1       1.759   9.023  18.037  0.00  0.00    +0.000 C 
ATOM      7  C   UNL     1       1.398   8.636  19.458  0.00  0.00    +0.000 C 
ATOM      8  C   UNL     1       2.479   7.603  19.764  0.00  0.00    +0.000 C 
ATOM      9  C   UNL     1       3.617   4.698  19.166  0.00  0.00    +0.000 A 
ATOM     10  C   UNL     1       2.705   4.189  20.159  0.00  0.00    +0.000 A 
ATOM     11  C   UNL     1       1.338   4.730  20.471  0.00  0.00    +0.000 C 
ATOM     12  C   UNL     1       3.066   3.065  20.905  0.00  0.00    +0.000 A 
ATOM     13  C   UNL     1       4.240   2.409  20.606  0.00  0.00    +0.000 A 
ATOM     14  C   UNL     1       4.616   1.164  21.348  0.00  0.00    +0.000 C 
ATOM     15  N   UNL     1       5.050   2.817  19.610  0.00  0.00    +0.000 NA
ATOM     16  C   UNL     1       4.756   3.909  18.908  0.00  0.00    +0.000 A 
ATOM     17  N   UNL     1       5.621   4.154  17.941  0.00  0.00    +0.000 NA
ENDROOT
BRANCH   1  19
ATOM     18  N   UNL     1       6.077   4.647  14.897  0.00  0.00    +0.000 N 
ATOM     19  C   UNL     1       6.337   5.440  16.008  0.00  0.00    +0.000 C 
ATOM     20  O   UNL     1       7.244   6.269  16.032  0.00  0.00    +0.000 OA
ATOM     21  H   UNL     1       5.308   3.983  14.973  0.00  0.00    +0.000 HD
BRANCH  18  22
ATOM     22  C   UNL     1       6.825   4.729  13.653  0.00  0.00    +0.000 C 
BRANCH  22  24
ATOM     23  C   UNL     1       5.009   3.606  12.270  0.00  0.00    +0.000 C 
ATOM     24  C   UNL     1       6.478   3.612  12.668  0.00  0.00    +0.000 C 
ENDBRANCH  22  24
ENDBRANCH  18  22
ENDBRANCH   1  19
TORSDOF 3
ENDMDL
