MODEL 1
REMARK VINA RESULT:      -7.9      0.000      0.000
REMARK  Name = 
REMARK  7 active torsions:
REMARK  status: ('A' for Active; 'I' for Inactive)
REMARK    1  A    between atoms: C_1  and  C_2
REMARK    2  A    between atoms: C_2  and  C_3
REMARK    3  A    between atoms: C_2  and  C_4
REMARK    4  A    between atoms: C_5  and  N_6
REMARK    5  A    between atoms: N_9  and  C_10
REMARK    6  A    between atoms: N_19  and  C_20
REMARK    7  A    between atoms: N_26  and  C_27
REMARK                            x       y       z     vdW  Elec       q    Type
REMARK                         _______ _______ _______ _____ _____    ______ ____
ROOT
ATOM      1  C   UNL     1       2.202   4.184  19.318  0.00  0.00    +0.000 A 
ATOM      2  C   UNL     1       2.559   5.418  19.720  0.00  0.00    +0.000 A 
ATOM      3  C   UNL     1       3.928   5.655  19.162  0.00  0.00    +0.000 A 
ATOM      4  O   UNL     1       4.586   6.665  19.361  0.00  0.00    +0.000 OA
ATOM      5  N   UNL     1       4.226   4.535  18.381  0.00  0.00    +0.000 N 
ATOM      6  N   UNL     1       3.088   3.698  18.331  0.00  0.00    +0.000 N 
ATOM      7  C   UNL     1       3.349   2.268  18.127  0.00  0.00    +0.000 C 
ENDROOT
BRANCH   2   8
ATOM      8  N   UNL     1       2.003   6.239  20.659  0.00  0.00    +0.000 N 
ATOM      9  C   UNL     1       1.787   7.586  20.476  0.00  0.00    +0.000 C 
ATOM     10  O   UNL     1       1.711   8.294  21.478  0.00  0.00    +0.000 OA
ATOM     11  N   UNL     1       1.639   8.028  19.178  0.00  0.00    +0.000 N 
ATOM     12  H   UNL     1       2.453   6.190  21.570  0.00  0.00    +0.000 HD
ATOM     13  H   UNL     1       1.286   7.340  18.530  0.00  0.00    +0.000 HD
BRANCH  11  14
ATOM     14  C   UNL     1       1.342   9.381  18.891  0.00  0.00    +0.000 A 
ATOM     15  C   UNL     1       2.262  10.214  18.244  0.00  0.00    +0.000 A 
ATOM     16  C   UNL     1       1.997  11.578  18.094  0.00  0.00    +0.000 A 
ATOM     17  C   UNL     1       0.815  12.109  18.602  0.00  0.00    +0.000 A 
ATOM     18 CL   UNL     1       0.532  13.803  18.520  0.00  0.00    +0.000 Cl
ATOM     19  C   UNL     1      -0.132  11.276  19.198  0.00  0.00    +0.000 A 
ATOM     20  C   UNL     1       0.117   9.904  19.313  0.00  0.00    +0.000 A 
ENDBRANCH  11  14
ENDBRANCH   2   8
BRANCH   5  21
ATOM     21  C   UNL     1       5.184   4.583  17.352  0.00  0.00    +0.000 A 
ATOM     22  C   UNL     1       4.809   4.760  16.033  0.00  0.00    +0.000 A 
ATOM     23  N   UNL     1       5.685   4.877  15.010  0.00  0.00    +0.000 NA
ATOM     24  C   UNL     1       6.982   4.773  15.342  0.00  0.00    +0.000 A 
ATOM     25  N   UNL     1       7.467   4.586  16.580  0.00  0.00    +0.000 NA
ATOM     26  C   UNL     1       6.544   4.496  17.563  0.00  0.00    +0.000 A 
ENDBRANCH   5  21
BRANCH   1  28
ATOM     27  C   UNL     1       0.605   2.305  18.836  0.00  0.00    +0.000 C 
ATOM     28  C   UNL     1       1.102   3.303  19.896  0.00  0.00    +0.000 C 
ATOM     29  C   UNL     1       1.458   2.525  21.164  0.00  0.00    +0.000 C 
ENDBRANCH   1  28
TORSDOF 4
ENDMDL
MODEL 2
REMARK VINA RESULT:      -7.7      0.508      1.224
REMARK  Name = 
REMARK  7 active torsions:
REMARK  status: ('A' for Active; 'I' for Inactive)
REMARK    1  A    between atoms: C_1  and  C_2
REMARK    2  A    between atoms: C_2  and  C_3
REMARK    3  A    between atoms: C_2  and  C_4
REMARK    4  A    between atoms: C_5  and  N_6
REMARK    5  A    between atoms: N_9  and  C_10
REMARK    6  A    between atoms: N_19  and  C_20
REMARK    7  A    between atoms: N_26  and  C_27
REMARK                            x       y       z     vdW  Elec       q    Type
REMARK                         _______ _______ _______ _____ _____    ______ ____
ROOT
ATOM      1  C   UNL     1       2.647   3.793  19.346  0.00  0.00    +0.000 A 
ATOM      2  C   UNL     1       2.860   5.078  19.686  0.00  0.00    +0.000 A 
ATOM      3  C   UNL     1       4.144   5.473  19.026  0.00  0.00    +0.000 A 
ATOM      4  O   UNL     1       4.671   6.568  19.149  0.00  0.00    +0.000 OA
ATOM      5  N   UNL     1       4.538   4.374  18.259  0.00  0.00    +0.000 N 
ATOM      6  N   UNL     1       3.523   3.391  18.313  0.00  0.00    +0.000 N 
ATOM      7  C   UNL     1       3.960   2.002  18.132  0.00  0.00    +0.000 C 
ENDROOT
BRANCH   2   8
ATOM      8  N   UNL     1       2.261   5.852  20.638  0.00  0.00    +0.000 N 
ATOM      9  C   UNL     1       1.998   7.195  20.488  0.00  0.00    +0.000 C 
ATOM     10  O   UNL     1       1.883   7.872  21.507  0.00  0.00    +0.000 OA
ATOM     11  N   UNL     1       1.850   7.665  19.200  0.00  0.00    +0.000 N 
ATOM     12  H   UNL     1       2.702   5.795  21.554  0.00  0.00    +0.000 HD
ATOM     13  H   UNL     1       1.532   6.982  18.530  0.00  0.00    +0.000 HD
BRANCH  11  14
ATOM     14  C   UNL     1       1.507   9.013  18.944  0.00  0.00    +0.000 A 
ATOM     15  C   UNL     1       2.261   9.812  18.076  0.00  0.00    +0.000 A 
ATOM     16  C   UNL     1       1.980  11.174  17.946  0.00  0.00    +0.000 A 
ATOM     17  C   UNL     1       0.951  11.739  18.694  0.00  0.00    +0.000 A 
ATOM     18 CL   UNL     1       0.671  13.435  18.623  0.00  0.00    +0.000 Cl
ATOM     19  C   UNL     1       0.160  10.940  19.518  0.00  0.00    +0.000 A 
ATOM     20  C   UNL     1       0.417   9.568  19.619  0.00  0.00    +0.000 A 
ENDBRANCH  11  14
ENDBRANCH   2   8
BRANCH   5  21
ATOM     21  C   UNL     1       5.410   4.509  17.162  0.00  0.00    +0.000 A 
ATOM     22  C   UNL     1       6.782   4.482  17.331  0.00  0.00    +0.000 A 
ATOM     23  N   UNL     1       7.667   4.544  16.311  0.00  0.00    +0.000 NA
ATOM     24  C   UNL     1       7.133   4.673  15.086  0.00  0.00    +0.000 A 
ATOM     25  N   UNL     1       5.823   4.726  14.797  0.00  0.00    +0.000 NA
ATOM     26  C   UNL     1       4.986   4.640  15.856  0.00  0.00    +0.000 A 
ENDBRANCH   5  21
BRANCH   1  28
ATOM     27  C   UNL     1       1.933   2.818  21.549  0.00  0.00    +0.000 C 
ATOM     28  C   UNL     1       1.717   2.796  20.026  0.00  0.00    +0.000 C 
ATOM     29  C   UNL     1       0.224   2.967  19.745  0.00  0.00    +0.000 C 
ENDBRANCH   1  28
TORSDOF 4
ENDMDL
MODEL 3
REMARK VINA RESULT:      -7.4      0.378      1.341
REMARK  Name = 
REMARK  7 active torsions:
REMARK  status: ('A' for Active; 'I' for Inactive)
REMARK    1  A    between atoms: C_1  and  C_2
REMARK    2  A    between atoms: C_2  and  C_3
REMARK    3  A    between atoms: C_2  and  C_4
REMARK    4  A    between atoms: C_5  and  N_6
REMARK    5  A    between atoms: N_9  and  C_10
REMARK    6  A    between atoms: N_19  and  C_20
REMARK    7  A    between atoms: N_26  and  C_27
REMARK                            x       y       z     vdW  Elec       q    Type
REMARK                         _______ _______ _______ _____ _____    ______ ____
ROOT
ATOM      1  C   UNL     1       2.186   4.281  19.261  0.00  0.00    +0.000 A 
ATOM      2  C   UNL     1       2.527   5.481  19.767  0.00  0.00    +0.000 A 
ATOM      3  C   UNL     1       3.884   5.791  19.214  0.00  0.00    +0.000 A 
ATOM      4  O   UNL     1       4.527   6.791  19.493  0.00  0.00    +0.000 OA
ATOM      5  N   UNL     1       4.189   4.750  18.333  0.00  0.00    +0.000 N 
ATOM      6  N   UNL     1       3.064   3.900  18.223  0.00  0.00    +0.000 N 
ATOM      7  C   UNL     1       3.346   2.499  17.890  0.00  0.00    +0.000 C 
ENDROOT
BRANCH   2   8
ATOM      8  N   UNL     1       1.971   6.205  20.782  0.00  0.00    +0.000 N 
ATOM      9  C   UNL     1       1.687   7.550  20.705  0.00  0.00    +0.000 C 
ATOM     10  O   UNL     1       1.618   8.180  21.758  0.00  0.00    +0.000 OA
ATOM     11  N   UNL     1       1.468   8.075  19.449  0.00  0.00    +0.000 N 
ATOM     12  H   UNL     1       2.459   6.113  21.670  0.00  0.00    +0.000 HD
ATOM     13  H   UNL     1       1.122   7.418  18.766  0.00  0.00    +0.000 HD
BRANCH  11  14
ATOM     14  C   UNL     1       1.098   9.428  19.272  0.00  0.00    +0.000 A 
ATOM     15  C   UNL     1      -0.134   9.919  19.719  0.00  0.00    +0.000 A 
ATOM     16  C   UNL     1      -0.530  11.223  19.412  0.00  0.00    +0.000 A 
ATOM     17  C   UNL     1       0.305  12.033  18.648  0.00  0.00    +0.000 A 
ATOM     18 CL   UNL     1      -0.222  13.600  18.173  0.00  0.00    +0.000 Cl
ATOM     19  C   UNL     1       1.558  11.572  18.246  0.00  0.00    +0.000 A 
ATOM     20  C   UNL     1       1.970  10.279  18.587  0.00  0.00    +0.000 A 
ENDBRANCH  11  14
ENDBRANCH   2   8
BRANCH   5  21
ATOM     21  C   UNL     1       5.131   4.906  17.299  0.00  0.00    +0.000 A 
ATOM     22  C   UNL     1       6.442   4.498  17.457  0.00  0.00    +0.000 A 
ATOM     23  N   UNL     1       7.374   4.563  16.480  0.00  0.00    +0.000 NA
ATOM     24  C   UNL     1       6.960   5.096  15.318  0.00  0.00    +0.000 A 
ATOM     25  N   UNL     1       5.722   5.541  15.050  0.00  0.00    +0.000 NA
ATOM     26  C   UNL     1       4.829   5.431  16.059  0.00  0.00    +0.000 A 
ENDBRANCH   5  21
BRANCH   1  28
ATOM     27  C   UNL     1       0.696   2.347  18.666  0.00  0.00    +0.000 C 
ATOM     28  C   UNL     1       1.109   3.332  19.773  0.00  0.00    +0.000 C 
ATOM     29  C   UNL     1       1.457   2.532  21.029  0.00  0.00    +0.000 C 
ENDBRANCH   1  28
TORSDOF 4
ENDMDL
MODEL 4
REMARK VINA RESULT:      -7.1      5.104      9.651
REMARK  Name = 
REMARK  7 active torsions:
REMARK  status: ('A' for Active; 'I' for Inactive)
REMARK    1  A    between atoms: C_1  and  C_2
REMARK    2  A    between atoms: C_2  and  C_3
REMARK    3  A    between atoms: C_2  and  C_4
REMARK    4  A    between atoms: C_5  and  N_6
REMARK    5  A    between atoms: N_9  and  C_10
REMARK    6  A    between atoms: N_19  and  C_20
REMARK    7  A    between atoms: N_26  and  C_27
REMARK                            x       y       z     vdW  Elec       q    Type
REMARK                         _______ _______ _______ _____ _____    ______ ____
ROOT
ATOM      1  C   UNL     1      -0.875  13.007  21.858  0.00  0.00    +0.000 A 
ATOM      2  C   UNL     1      -0.929  12.727  20.542  0.00  0.00    +0.000 A 
ATOM      3  C   UNL     1      -0.548  13.990  19.835  0.00  0.00    +0.000 A 
ATOM      4  O   UNL     1      -0.528  14.119  18.620  0.00  0.00    +0.000 OA
ATOM      5  N   UNL     1      -0.207  14.906  20.835  0.00  0.00    +0.000 N 
ATOM      6  N   UNL     1      -0.238  14.247  22.086  0.00  0.00    +0.000 N 
ATOM      7  C   UNL     1      -0.528  15.091  23.250  0.00  0.00    +0.000 C 
ENDROOT
BRANCH   2   8
ATOM      8  N   UNL     1      -1.469  11.659  19.886  0.00  0.00    +0.000 N 
ATOM      9  C   UNL     1      -0.730  10.640  19.330  0.00  0.00    +0.000 C 
ATOM     10  O   UNL     1      -1.241   9.996  18.416  0.00  0.00    +0.000 OA
ATOM     11  N   UNL     1       0.516  10.401  19.870  0.00  0.00    +0.000 N 
ATOM     12  H   UNL     1      -2.120  11.915  19.146  0.00  0.00    +0.000 HD
ATOM     13  H   UNL     1       0.621  10.668  20.837  0.00  0.00    +0.000 HD
BRANCH  11  14
ATOM     14  C   UNL     1       1.322   9.330  19.417  0.00  0.00    +0.000 A 
ATOM     15  C   UNL     1       1.859   9.310  18.124  0.00  0.00    +0.000 A 
ATOM     16  C   UNL     1       2.535   8.180  17.658  0.00  0.00    +0.000 A 
ATOM     17  C   UNL     1       2.666   7.067  18.483  0.00  0.00    +0.000 A 
ATOM     18 CL   UNL     1       3.400   5.634  17.878  0.00  0.00    +0.000 Cl
ATOM     19  C   UNL     1       2.183   7.099  19.790  0.00  0.00    +0.000 A 
ATOM     20  C   UNL     1       1.539   8.245  20.270  0.00  0.00    +0.000 A 
ENDBRANCH  11  14
ENDBRANCH   2   8
BRANCH   5  21
ATOM     21  C   UNL     1       0.622  16.012  20.576  0.00  0.00    +0.000 A 
ATOM     22  C   UNL     1       0.090  17.256  20.297  0.00  0.00    +0.000 A 
ATOM     23  N   UNL     1       0.835  18.368  20.102  0.00  0.00    +0.000 NA
ATOM     24  C   UNL     1       2.165  18.193  20.160  0.00  0.00    +0.000 A 
ATOM     25  N   UNL     1       2.799  17.035  20.407  0.00  0.00    +0.000 NA
ATOM     26  C   UNL     1       2.001  15.963  20.612  0.00  0.00    +0.000 A 
ENDBRANCH   5  21
BRANCH   1  28
ATOM     27  C   UNL     1      -3.049  12.306  22.905  0.00  0.00    +0.000 C 
ATOM     28  C   UNL     1      -1.515  12.226  22.999  0.00  0.00    +0.000 C 
ATOM     29  C   UNL     1      -1.112  10.755  23.118  0.00  0.00    +0.000 C 
ENDBRANCH   1  28
TORSDOF 4
ENDMDL
MODEL 5
REMARK VINA RESULT:      -7.1      2.786      4.496
REMARK  Name = 
REMARK  7 active torsions:
REMARK  status: ('A' for Active; 'I' for Inactive)
REMARK    1  A    between atoms: C_1  and  C_2
REMARK    2  A    between atoms: C_2  and  C_3
REMARK    3  A    between atoms: C_2  and  C_4
REMARK    4  A    between atoms: C_5  and  N_6
REMARK    5  A    between atoms: N_9  and  C_10
REMARK    6  A    between atoms: N_19  and  C_20
REMARK    7  A    between atoms: N_26  and  C_27
REMARK                            x       y       z     vdW  Elec       q    Type
REMARK                         _______ _______ _______ _____ _____    ______ ____
ROOT
ATOM      1  C   UNL     1       1.374   7.805  20.463  0.00  0.00    +0.000 A 
ATOM      2  C   UNL     1       1.712   8.605  19.435  0.00  0.00    +0.000 A 
ATOM      3  C   UNL     1       2.534   7.764  18.509  0.00  0.00    +0.000 A 
ATOM      4  O   UNL     1       3.049   8.175  17.480  0.00  0.00    +0.000 OA
ATOM      5  N   UNL     1       2.531   6.476  19.052  0.00  0.00    +0.000 N 
ATOM      6  N   UNL     1       1.667   6.455  20.171  0.00  0.00    +0.000 N 
ATOM      7  C   UNL     1       1.979   5.463  21.207  0.00  0.00    +0.000 C 
ENDROOT
BRANCH   2   8
ATOM      8  N   UNL     1       1.623   9.962  19.301  0.00  0.00    +0.000 N 
ATOM      9  C   UNL     1       0.541  10.615  18.757  0.00  0.00    +0.000 C 
ATOM     10  O   UNL     1       0.728  11.733  18.284  0.00  0.00    +0.000 OA
ATOM     11  N   UNL     1      -0.677   9.971  18.819  0.00  0.00    +0.000 N 
ATOM     12  H   UNL     1       2.420  10.383  18.830  0.00  0.00    +0.000 HD
ATOM     13  H   UNL     1      -0.778   9.319  19.581  0.00  0.00    +0.000 HD
BRANCH  11  14
ATOM     14  C   UNL     1      -1.860  10.590  18.353  0.00  0.00    +0.000 A 
ATOM     15  C   UNL     1      -2.540  11.546  19.117  0.00  0.00    +0.000 A 
ATOM     16  C   UNL     1      -3.776  12.041  18.693  0.00  0.00    +0.000 A 
ATOM     17  C   UNL     1      -4.336  11.571  17.509  0.00  0.00    +0.000 A 
ATOM     18 CL   UNL     1      -5.906  12.092  17.037  0.00  0.00    +0.000 Cl
ATOM     19  C   UNL     1      -3.640  10.661  16.714  0.00  0.00    +0.000 A 
ATOM     20  C   UNL     1      -2.385  10.195  17.119  0.00  0.00    +0.000 A 
ENDBRANCH  11  14
ENDBRANCH   2   8
BRANCH   5  21
ATOM     21  C   UNL     1       2.786   5.339  18.264  0.00  0.00    +0.000 A 
ATOM     22  C   UNL     1       4.078   4.957  17.955  0.00  0.00    +0.000 A 
ATOM     23  N   UNL     1       4.387   3.841  17.258  0.00  0.00    +0.000 NA
ATOM     24  C   UNL     1       3.342   3.113  16.833  0.00  0.00    +0.000 A 
ATOM     25  N   UNL     1       2.046   3.388  17.055  0.00  0.00    +0.000 NA
ATOM     26  C   UNL     1       1.800   4.506  17.775  0.00  0.00    +0.000 A 
ENDBRANCH   5  21
BRANCH   1  28
ATOM     27  C   UNL     1       1.747   9.370  22.394  0.00  0.00    +0.000 C 
ATOM     28  C   UNL     1       0.879   8.226  21.841  0.00  0.00    +0.000 C 
ATOM     29  C   UNL     1      -0.589   8.646  21.931  0.00  0.00    +0.000 C 
ENDBRANCH   1  28
TORSDOF 4
ENDMDL
MODEL 6
REMARK VINA RESULT:      -7.0      3.549      7.378
REMARK  Name = 
REMARK  7 active torsions:
REMARK  status: ('A' for Active; 'I' for Inactive)
REMARK    1  A    between atoms: C_1  and  C_2
REMARK    2  A    between atoms: C_2  and  C_3
REMARK    3  A    between atoms: C_2  and  C_4
REMARK    4  A    between atoms: C_5  and  N_6
REMARK    5  A    between atoms: N_9  and  C_10
REMARK    6  A    between atoms: N_19  and  C_20
REMARK    7  A    between atoms: N_26  and  C_27
REMARK                            x       y       z     vdW  Elec       q    Type
REMARK                         _______ _______ _______ _____ _____    ______ ____
ROOT
ATOM      1  C   UNL     1       4.197   4.573  18.966  0.00  0.00    +0.000 A 
ATOM      2  C   UNL     1       5.143   5.407  18.495  0.00  0.00    +0.000 A 
ATOM      3  C   UNL     1       4.436   6.681  18.153  0.00  0.00    +0.000 A 
ATOM      4  O   UNL     1       4.978   7.657  17.658  0.00  0.00    +0.000 OA
ATOM      5  N   UNL     1       3.108   6.505  18.551  0.00  0.00    +0.000 N 
ATOM      6  N   UNL     1       2.992   5.264  19.218  0.00  0.00    +0.000 N 
ATOM      7  C   UNL     1       1.675   4.620  19.156  0.00  0.00    +0.000 C 
ENDROOT
BRANCH   2   8
ATOM      8  N   UNL     1       6.428   5.160  18.106  0.00  0.00    +0.000 N 
ATOM      9  C   UNL     1       6.780   4.686  16.863  0.00  0.00    +0.000 C 
ATOM     10  O   UNL     1       7.852   4.094  16.761  0.00  0.00    +0.000 OA
ATOM     11  N   UNL     1       5.914   4.947  15.822  0.00  0.00    +0.000 N 
ATOM     12  H   UNL     1       6.946   4.563  18.747  0.00  0.00    +0.000 HD
ATOM     13  H   UNL     1       5.347   5.773  15.935  0.00  0.00    +0.000 HD
BRANCH  11  14
ATOM     14  C   UNL     1       6.222   4.565  14.496  0.00  0.00    +0.000 A 
ATOM     15  C   UNL     1       5.467   3.603  13.813  0.00  0.00    +0.000 A 
ATOM     16  C   UNL     1       5.873   3.148  12.557  0.00  0.00    +0.000 A 
ATOM     17  C   UNL     1       7.041   3.647  11.988  0.00  0.00    +0.000 A 
ATOM     18 CL   UNL     1       7.606   3.011  10.493  0.00  0.00    +0.000 Cl
ATOM     19  C   UNL     1       7.768   4.645  12.635  0.00  0.00    +0.000 A 
ATOM     20  C   UNL     1       7.340   5.129  13.877  0.00  0.00    +0.000 A 
ENDBRANCH  11  14
ENDBRANCH   2   8
BRANCH   5  21
ATOM     21  C   UNL     1       2.264   7.598  18.823  0.00  0.00    +0.000 A 
ATOM     22  C   UNL     1       1.858   7.886  20.113  0.00  0.00    +0.000 A 
ATOM     23  N   UNL     1       1.101   8.957  20.442  0.00  0.00    +0.000 NA
ATOM     24  C   UNL     1       0.718   9.735  19.417  0.00  0.00    +0.000 A 
ATOM     25  N   UNL     1       1.033   9.550  18.125  0.00  0.00    +0.000 NA
ATOM     26  C   UNL     1       1.808   8.475  17.860  0.00  0.00    +0.000 A 
ENDBRANCH   5  21
BRANCH   1  28
ATOM     27  C   UNL     1       3.720   2.610  20.461  0.00  0.00    +0.000 C 
ATOM     28  C   UNL     1       4.282   3.057  19.100  0.00  0.00    +0.000 C 
ATOM     29  C   UNL     1       3.597   2.243  18.001  0.00  0.00    +0.000 C 
ENDBRANCH   1  28
TORSDOF 4
ENDMDL
MODEL 7
REMARK VINA RESULT:      -7.0      4.748      9.116
REMARK  Name = 
REMARK  7 active torsions:
REMARK  status: ('A' for Active; 'I' for Inactive)
REMARK    1  A    between atoms: C_1  and  C_2
REMARK    2  A    between atoms: C_2  and  C_3
REMARK    3  A    between atoms: C_2  and  C_4
REMARK    4  A    between atoms: C_5  and  N_6
REMARK    5  A    between atoms: N_9  and  C_10
REMARK    6  A    between atoms: N_19  and  C_20
REMARK    7  A    between atoms: N_26  and  C_27
REMARK                            x       y       z     vdW  Elec       q    Type
REMARK                         _______ _______ _______ _____ _____    ______ ____
ROOT
ATOM      1  C   UNL     1      -0.162  13.110  21.467  0.00  0.00    +0.000 A 
ATOM      2  C   UNL     1      -0.108  12.612  20.218  0.00  0.00    +0.000 A 
ATOM      3  C   UNL     1       0.679  13.599  19.414  0.00  0.00    +0.000 A 
ATOM      4  O   UNL     1       0.897  13.493  18.217  0.00  0.00    +0.000 OA
ATOM      5  N   UNL     1       1.108  14.578  20.315  0.00  0.00    +0.000 N 
ATOM      6  N   UNL     1       0.738  14.187  21.622  0.00  0.00    +0.000 N 
ATOM      7  C   UNL     1       0.522  15.276  22.583  0.00  0.00    +0.000 C 
ENDROOT
BRANCH   2   8
ATOM      8  N   UNL     1      -0.813  11.597  19.637  0.00  0.00    +0.000 N 
ATOM      9  C   UNL     1      -0.241  10.457  19.121  0.00  0.00    +0.000 C 
ATOM     10  O   UNL     1      -0.867   9.844  18.259  0.00  0.00    +0.000 OA
ATOM     11  N   UNL     1       0.977  10.074  19.642  0.00  0.00    +0.000 N 
ATOM     12  H   UNL     1      -1.447  11.902  18.902  0.00  0.00    +0.000 HD
ATOM     13  H   UNL     1       1.151  10.375  20.588  0.00  0.00    +0.000 HD
BRANCH  11  14
ATOM     14  C   UNL     1       1.611   8.879  19.229  0.00  0.00    +0.000 A 
ATOM     15  C   UNL     1       1.704   7.767  20.074  0.00  0.00    +0.000 A 
ATOM     16  C   UNL     1       2.451   6.650  19.692  0.00  0.00    +0.000 A 
ATOM     17  C   UNL     1       3.113   6.651  18.468  0.00  0.00    +0.000 A 
ATOM     18 CL   UNL     1       4.124   5.326  18.039  0.00  0.00    +0.000 Cl
ATOM     19  C   UNL     1       2.981   7.731  17.597  0.00  0.00    +0.000 A 
ATOM     20  C   UNL     1       2.201   8.834  17.963  0.00  0.00    +0.000 A 
ENDBRANCH  11  14
ENDBRANCH   2   8
BRANCH   5  21
ATOM     21  C   UNL     1       2.223  15.393  20.050  0.00  0.00    +0.000 A 
ATOM     22  C   UNL     1       3.506  14.966  20.338  0.00  0.00    +0.000 A 
ATOM     23  N   UNL     1       4.619  15.677  20.048  0.00  0.00    +0.000 NA
ATOM     24  C   UNL     1       4.411  16.875  19.479  0.00  0.00    +0.000 A 
ATOM     25  N   UNL     1       3.217  17.404  19.166  0.00  0.00    +0.000 NA
ATOM     26  C   UNL     1       2.142  16.638  19.461  0.00  0.00    +0.000 A 
ENDBRANCH   5  21
BRANCH   1  28
ATOM     27  C   UNL     1      -2.564  13.149  22.207  0.00  0.00    +0.000 C 
ATOM     28  C   UNL     1      -1.132  12.724  22.577  0.00  0.00    +0.000 C 
ATOM     29  C   UNL     1      -1.152  11.246  22.972  0.00  0.00    +0.000 C 
ENDBRANCH   1  28
TORSDOF 4
ENDMDL
MODEL 8
REMARK VINA RESULT:      -6.9      5.192     10.128
REMARK  Name = 
REMARK  7 active torsions:
REMARK  status: ('A' for Active; 'I' for Inactive)
REMARK    1  A    between atoms: C_1  and  C_2
REMARK    2  A    between atoms: C_2  and  C_3
REMARK    3  A    between atoms: C_2  and  C_4
REMARK    4  A    between atoms: C_5  and  N_6
REMARK    5  A    between atoms: N_9  and  C_10
REMARK    6  A    between atoms: N_19  and  C_20
REMARK    7  A    between atoms: N_26  and  C_27
REMARK                            x       y       z     vdW  Elec       q    Type
REMARK                         _______ _______ _______ _____ _____    ______ ____
ROOT
ATOM      1  C   UNL     1      -2.801  11.813  18.544  0.00  0.00    +0.000 A 
ATOM      2  C   UNL     1      -1.676  12.400  18.992  0.00  0.00    +0.000 A 
ATOM      3  C   UNL     1      -2.093  13.283  20.127  0.00  0.00    +0.000 A 
ATOM      4  O   UNL     1      -1.333  14.006  20.752  0.00  0.00    +0.000 OA
ATOM      5  N   UNL     1      -3.461  13.058  20.308  0.00  0.00    +0.000 N 
ATOM      6  N   UNL     1      -3.870  12.016  19.444  0.00  0.00    +0.000 N 
ATOM      7  C   UNL     1      -5.275  12.044  19.021  0.00  0.00    +0.000 C 
ENDROOT
BRANCH   2   8
ATOM      8  N   UNL     1      -0.431  12.471  18.434  0.00  0.00    +0.000 N 
ATOM      9  C   UNL     1       0.552  11.526  18.618  0.00  0.00    +0.000 C 
ATOM     10  O   UNL     1       1.719  11.878  18.463  0.00  0.00    +0.000 OA
ATOM     11  N   UNL     1       0.142  10.246  18.928  0.00  0.00    +0.000 N 
ATOM     12  H   UNL     1       0.048  13.353  18.604  0.00  0.00    +0.000 HD
ATOM     13  H   UNL     1      -0.777   9.999  18.596  0.00  0.00    +0.000 HD
BRANCH  11  14
ATOM     14  C   UNL     1       1.072   9.189  19.064  0.00  0.00    +0.000 A 
ATOM     15  C   UNL     1       1.796   8.701  17.969  0.00  0.00    +0.000 A 
ATOM     16  C   UNL     1       2.606   7.571  18.105  0.00  0.00    +0.000 A 
ATOM     17  C   UNL     1       2.682   6.922  19.334  0.00  0.00    +0.000 A 
ATOM     18 CL   UNL     1       3.588   5.467  19.481  0.00  0.00    +0.000 Cl
ATOM     19  C   UNL     1       2.009   7.434  20.443  0.00  0.00    +0.000 A 
ATOM     20  C   UNL     1       1.228   8.589  20.316  0.00  0.00    +0.000 A 
ENDBRANCH  11  14
ENDBRANCH   2   8
BRANCH   5  21
ATOM     21  C   UNL     1      -4.102  13.332  21.530  0.00  0.00    +0.000 A 
ATOM     22  C   UNL     1      -4.906  14.446  21.683  0.00  0.00    +0.000 A 
ATOM     23  N   UNL     1      -5.597  14.727  22.811  0.00  0.00    +0.000 NA
ATOM     24  C   UNL     1      -5.432  13.860  23.823  0.00  0.00    +0.000 A 
ATOM     25  N   UNL     1      -4.670  12.755  23.801  0.00  0.00    +0.000 NA
ATOM     26  C   UNL     1      -4.019  12.517  22.640  0.00  0.00    +0.000 A 
ENDBRANCH   5  21
BRANCH   1  28
ATOM     27  C   UNL     1      -3.073   9.603  17.378  0.00  0.00    +0.000 C 
ATOM     28  C   UNL     1      -3.018  11.131  17.199  0.00  0.00    +0.000 C 
ATOM     29  C   UNL     1      -4.254  11.571  16.412  0.00  0.00    +0.000 C 
ENDBRANCH   1  28
TORSDOF 4
ENDMDL
MODEL 9
REMARK VINA RESULT:      -6.9      4.730      9.034
REMARK  Name = 
REMARK  7 active torsions:
REMARK  status: ('A' for Active; 'I' for Inactive)
REMARK    1  A    between atoms: C_1  and  C_2
REMARK    2  A    between atoms: C_2  and  C_3
REMARK    3  A    between atoms: C_2  and  C_4
REMARK    4  A    between atoms: C_5  and  N_6
REMARK    5  A    between atoms: N_9  and  C_10
REMARK    6  A    between atoms: N_19  and  C_20
REMARK    7  A    between atoms: N_26  and  C_27
REMARK                            x       y       z     vdW  Elec       q    Type
REMARK                         _______ _______ _______ _____ _____    ______ ____
ROOT
ATOM      1  C   UNL     1       0.026  13.051  21.239  0.00  0.00    +0.000 A 
ATOM      2  C   UNL     1       0.134  12.589  19.980  0.00  0.00    +0.000 A 
ATOM      3  C   UNL     1       0.952  13.599  19.237  0.00  0.00    +0.000 A 
ATOM      4  O   UNL     1       1.220  13.526  18.048  0.00  0.00    +0.000 OA
ATOM      5  N   UNL     1       1.340  14.552  20.182  0.00  0.00    +0.000 N 
ATOM      6  N   UNL     1       0.917  14.125  21.462  0.00  0.00    +0.000 N 
ATOM      7  C   UNL     1       0.659  15.186  22.442  0.00  0.00    +0.000 C 
ENDROOT
BRANCH   2   8
ATOM      8  N   UNL     1      -0.544  11.589  19.343  0.00  0.00    +0.000 N 
ATOM      9  C   UNL     1       0.022  10.395  18.959  0.00  0.00    +0.000 C 
ATOM     10  O   UNL     1      -0.512   9.779  18.039  0.00  0.00    +0.000 OA
ATOM     11  N   UNL     1       1.127   9.969  19.666  0.00  0.00    +0.000 N 
ATOM     12  H   UNL     1      -1.046  11.895  18.511  0.00  0.00    +0.000 HD
ATOM     13  H   UNL     1       1.182  10.303  20.615  0.00  0.00    +0.000 HD
BRANCH  11  14
ATOM     14  C   UNL     1       1.736   8.721  19.396  0.00  0.00    +0.000 A 
ATOM     15  C   UNL     1       2.361   8.457  18.171  0.00  0.00    +0.000 A 
ATOM     16  C   UNL     1       2.833   7.175  17.880  0.00  0.00    +0.000 A 
ATOM     17  C   UNL     1       2.671   6.154  18.812  0.00  0.00    +0.000 A 
ATOM     18 CL   UNL     1       3.150   4.550  18.418  0.00  0.00    +0.000 Cl
ATOM     19  C   UNL     1       2.100   6.421  20.056  0.00  0.00    +0.000 A 
ATOM     20  C   UNL     1       1.661   7.714  20.362  0.00  0.00    +0.000 A 
ENDBRANCH  11  14
ENDBRANCH   2   8
BRANCH   5  21
ATOM     21  C   UNL     1       2.464  15.375  19.987  0.00  0.00    +0.000 A 
ATOM     22  C   UNL     1       3.745  14.898  20.190  0.00  0.00    +0.000 A 
ATOM     23  N   UNL     1       4.864  15.621  19.958  0.00  0.00    +0.000 NA
ATOM     24  C   UNL     1       4.665  16.881  19.540  0.00  0.00    +0.000 A 
ATOM     25  N   UNL     1       3.474  17.461  19.321  0.00  0.00    +0.000 NA
ATOM     26  C   UNL     1       2.392  16.683  19.552  0.00  0.00    +0.000 A 
ENDBRANCH   5  21
BRANCH   1  28
ATOM     27  C   UNL     1      -2.417  12.946  21.819  0.00  0.00    +0.000 C 
ATOM     28  C   UNL     1      -0.988  12.633  22.297  0.00  0.00    +0.000 C 
ATOM     29  C   UNL     1      -0.935  11.171  22.742  0.00  0.00    +0.000 C 
ENDBRANCH   1  28
TORSDOF 4
ENDMDL
