MODEL 1
REMARK VINA RESULT:      -5.2      0.000      0.000
REMARK  Name = 
REMARK  4 active torsions:
REMARK  status: ('A' for Active; 'I' for Inactive)
REMARK    1  A    between atoms: P_2  and  O_3
REMARK    2  A    between atoms: P_2  and  O_4
REMARK    3  A    between atoms: P_2  and  C_5
REMARK    4  A    between atoms: C_5  and  C_6
REMARK                            x       y       z     vdW  Elec       q    Type
REMARK                         _______ _______ _______ _____ _____    ______ ____
ROOT
ATOM      1  C   UNL     1       5.973   5.331  17.820  0.00  0.00    +0.000 C 
ENDROOT
BRANCH   1   2
ATOM      2  C   UNL     1       4.518   4.949  17.719  0.00  0.00    +0.000 A 
ATOM      3  C   UNL     1       4.126   3.710  17.203  0.00  0.00    +0.000 A 
ATOM      4  C   UNL     1       2.779   3.359  17.204  0.00  0.00    +0.000 A 
ATOM      5  C   UNL     1       1.868   4.261  17.727  0.00  0.00    +0.000 A 
ATOM      6  N   UNL     1       2.211   5.461  18.239  0.00  0.00    +0.000 NA
ATOM      7  C   UNL     1       3.526   5.778  18.228  0.00  0.00    +0.000 A 
ENDBRANCH   1   2
BRANCH   1   9
ATOM      8  O   UNL     1       7.550   5.134  14.839  0.00  0.00    +0.000 OA
ATOM      9  P   UNL     1       6.827   5.224  16.205  0.00  0.00    +0.000 P 
BRANCH   9  10
ATOM     10  O   UNL     1       7.910   4.203  16.905  0.00  0.00    +0.000 OA
ATOM     11  H   UNL     1       7.570   3.292  16.790  0.00  0.00    +0.000 HD
ENDBRANCH   9  10
BRANCH   9  12
ATOM     12  O   UNL     1       7.615   6.612  16.598  0.00  0.00    +0.000 OA
ATOM     13  H   UNL     1       8.575   6.423  16.567  0.00  0.00    +0.000 HD
ENDBRANCH   9  12
ENDBRANCH   1   9
TORSDOF 4
ENDMDL
MODEL 2
REMARK VINA RESULT:      -5.2      1.538      1.722
REMARK  Name = 
REMARK  4 active torsions:
REMARK  status: ('A' for Active; 'I' for Inactive)
REMARK    1  A    between atoms: P_2  and  O_3
REMARK    2  A    between atoms: P_2  and  O_4
REMARK    3  A    between atoms: P_2  and  C_5
REMARK    4  A    between atoms: C_5  and  C_6
REMARK                            x       y       z     vdW  Elec       q    Type
REMARK                         _______ _______ _______ _____ _____    ______ ____
ROOT
ATOM      1  C   UNL     1       5.865   4.906  18.528  0.00  0.00    +0.000 C 
ENDROOT
BRANCH   1   2
ATOM      2  C   UNL     1       4.630   4.047  18.427  0.00  0.00    +0.000 A 
ATOM      3  C   UNL     1       3.742   4.173  17.355  0.00  0.00    +0.000 A 
ATOM      4  C   UNL     1       2.659   3.305  17.252  0.00  0.00    +0.000 A 
ATOM      5  C   UNL     1       2.504   2.334  18.227  0.00  0.00    +0.000 A 
ATOM      6  N   UNL     1       3.345   2.178  19.270  0.00  0.00    +0.000 NA
ATOM      7  C   UNL     1       4.390   3.033  19.347  0.00  0.00    +0.000 A 
ENDBRANCH   1   2
BRANCH   1   9
ATOM      8  O   UNL     1       7.698   4.836  15.691  0.00  0.00    +0.000 OA
ATOM      9  P   UNL     1       6.858   4.867  16.991  0.00  0.00    +0.000 P 
BRANCH   9  10
ATOM     10  O   UNL     1       8.015   4.044  17.821  0.00  0.00    +0.000 OA
ATOM     11  H   UNL     1       8.829   4.589  17.807  0.00  0.00    +0.000 HD
ENDBRANCH   9  10
BRANCH   9  12
ATOM     12  O   UNL     1       7.401   6.370  17.376  0.00  0.00    +0.000 OA
ATOM     13  H   UNL     1       7.848   6.733  16.584  0.00  0.00    +0.000 HD
ENDBRANCH   9  12
ENDBRANCH   1   9
TORSDOF 4
ENDMDL
MODEL 3
REMARK VINA RESULT:      -5.1      3.572      4.297
REMARK  Name = 
REMARK  4 active torsions:
REMARK  status: ('A' for Active; 'I' for Inactive)
REMARK    1  A    between atoms: P_2  and  O_3
REMARK    2  A    between atoms: P_2  and  O_4
REMARK    3  A    between atoms: P_2  and  C_5
REMARK    4  A    between atoms: C_5  and  C_6
REMARK                            x       y       z     vdW  Elec       q    Type
REMARK                         _______ _______ _______ _____ _____    ______ ____
ROOT
ATOM      1  C   UNL     1       4.880   4.813  17.245  0.00  0.00    +0.000 C 
ENDROOT
BRANCH   1   2
ATOM      2  C   UNL     1       5.705   4.712  15.988  0.00  0.00    +0.000 A 
ATOM      3  C   UNL     1       5.244   4.013  14.868  0.00  0.00    +0.000 A 
ATOM      4  C   UNL     1       5.997   4.014  13.698  0.00  0.00    +0.000 A 
ATOM      5  C   UNL     1       7.187   4.720  13.685  0.00  0.00    +0.000 A 
ATOM      6  N   UNL     1       7.659   5.412  14.744  0.00  0.00    +0.000 NA
ATOM      7  C   UNL     1       6.909   5.397  15.869  0.00  0.00    +0.000 A 
ENDBRANCH   1   2
BRANCH   1   9
ATOM      8  O   UNL     1       6.793   5.315  19.984  0.00  0.00    +0.000 OA
ATOM      9  P   UNL     1       5.917   5.085  18.729  0.00  0.00    +0.000 P 
BRANCH   9  10
ATOM     10  O   UNL     1       5.794   3.475  19.046  0.00  0.00    +0.000 OA
ATOM     11  H   UNL     1       5.448   3.382  19.957  0.00  0.00    +0.000 HD
ENDBRANCH   9  10
BRANCH   9  12
ATOM     12  O   UNL     1       4.551   5.526  19.529  0.00  0.00    +0.000 OA
ATOM     13  H   UNL     1       3.966   4.742  19.566  0.00  0.00    +0.000 HD
ENDBRANCH   9  12
ENDBRANCH   1   9
TORSDOF 4
ENDMDL
MODEL 4
REMARK VINA RESULT:      -5.1      0.985      1.525
REMARK  Name = 
REMARK  4 active torsions:
REMARK  status: ('A' for Active; 'I' for Inactive)
REMARK    1  A    between atoms: P_2  and  O_3
REMARK    2  A    between atoms: P_2  and  O_4
REMARK    3  A    between atoms: P_2  and  C_5
REMARK    4  A    between atoms: C_5  and  C_6
REMARK                            x       y       z     vdW  Elec       q    Type
REMARK                         _______ _______ _______ _____ _____    ______ ____
ROOT
ATOM      1  C   UNL     1       6.014   4.737  18.298  0.00  0.00    +0.000 C 
ENDROOT
BRANCH   1   2
ATOM      2  C   UNL     1       4.528   4.541  18.137  0.00  0.00    +0.000 A 
ATOM      3  C   UNL     1       3.623   5.563  18.438  0.00  0.00    +0.000 A 
ATOM      4  C   UNL     1       2.265   5.373  18.196  0.00  0.00    +0.000 A 
ATOM      5  C   UNL     1       1.859   4.166  17.654  0.00  0.00    +0.000 A 
ATOM      6  N   UNL     1       2.705   3.161  17.344  0.00  0.00    +0.000 NA
ATOM      7  C   UNL     1       4.019   3.370  17.588  0.00  0.00    +0.000 A 
ENDBRANCH   1   2
BRANCH   1   9
ATOM      8  O   UNL     1       7.543   5.353  15.349  0.00  0.00    +0.000 OA
ATOM      9  P   UNL     1       6.842   5.070  16.700  0.00  0.00    +0.000 P 
BRANCH   9  10
ATOM     10  O   UNL     1       8.089   4.126  17.209  0.00  0.00    +0.000 OA
ATOM     11  H   UNL     1       7.819   3.193  17.085  0.00  0.00    +0.000 HD
ENDBRANCH   9  10
BRANCH   9  12
ATOM     12  O   UNL     1       7.405   6.470  17.353  0.00  0.00    +0.000 OA
ATOM     13  H   UNL     1       7.701   7.040  16.614  0.00  0.00    +0.000 HD
ENDBRANCH   9  12
ENDBRANCH   1   9
TORSDOF 4
ENDMDL
MODEL 5
REMARK VINA RESULT:      -5.1      1.711      2.287
REMARK  Name = 
REMARK  4 active torsions:
REMARK  status: ('A' for Active; 'I' for Inactive)
REMARK    1  A    between atoms: P_2  and  O_3
REMARK    2  A    between atoms: P_2  and  O_4
REMARK    3  A    between atoms: P_2  and  C_5
REMARK    4  A    between atoms: C_5  and  C_6
REMARK                            x       y       z     vdW  Elec       q    Type
REMARK                         _______ _______ _______ _____ _____    ______ ____
ROOT
ATOM      1  C   UNL     1       4.703   5.095  16.961  0.00  0.00    +0.000 C 
ENDROOT
BRANCH   1   2
ATOM      2  C   UNL     1       3.943   4.058  17.748  0.00  0.00    +0.000 A 
ATOM      3  C   UNL     1       2.789   3.457  17.235  0.00  0.00    +0.000 A 
ATOM      4  C   UNL     1       2.162   2.444  17.954  0.00  0.00    +0.000 A 
ATOM      5  C   UNL     1       2.716   2.061  19.164  0.00  0.00    +0.000 A 
ATOM      6  N   UNL     1       3.832   2.613  19.685  0.00  0.00    +0.000 NA
ATOM      7  C   UNL     1       4.423   3.594  18.967  0.00  0.00    +0.000 A 
ENDBRANCH   1   2
BRANCH   1   9
ATOM      8  O   UNL     1       8.012   4.423  16.843  0.00  0.00    +0.000 OA
ATOM      9  P   UNL     1       6.496   4.731  16.898  0.00  0.00    +0.000 P 
BRANCH   9  10
ATOM     10  O   UNL     1       6.635   5.884  15.732  0.00  0.00    +0.000 OA
ATOM     11  H   UNL     1       7.573   5.905  15.452  0.00  0.00    +0.000 HD
ENDBRANCH   9  10
BRANCH   9  12
ATOM     12  O   UNL     1       6.147   3.491  15.877  0.00  0.00    +0.000 OA
ATOM     13  H   UNL     1       6.181   2.663  16.398  0.00  0.00    +0.000 HD
ENDBRANCH   9  12
ENDBRANCH   1   9
TORSDOF 4
ENDMDL
MODEL 6
REMARK VINA RESULT:      -5.1      2.289      2.950
REMARK  Name = 
REMARK  4 active torsions:
REMARK  status: ('A' for Active; 'I' for Inactive)
REMARK    1  A    between atoms: P_2  and  O_3
REMARK    2  A    between atoms: P_2  and  O_4
REMARK    3  A    between atoms: P_2  and  C_5
REMARK    4  A    between atoms: C_5  and  C_6
REMARK                            x       y       z     vdW  Elec       q    Type
REMARK                         _______ _______ _______ _____ _____    ______ ____
ROOT
ATOM      1  C   UNL     1       4.199   4.117  17.560  0.00  0.00    +0.000 C 
ENDROOT
BRANCH   1   2
ATOM      2  C   UNL     1       2.916   3.788  18.280  0.00  0.00    +0.000 A 
ATOM      3  C   UNL     1       2.222   2.602  18.023  0.00  0.00    +0.000 A 
ATOM      4  C   UNL     1       1.087   2.294  18.769  0.00  0.00    +0.000 A 
ATOM      5  C   UNL     1       0.687   3.183  19.751  0.00  0.00    +0.000 A 
ATOM      6  N   UNL     1       1.337   4.333  20.031  0.00  0.00    +0.000 NA
ATOM      7  C   UNL     1       2.437   4.609  19.294  0.00  0.00    +0.000 A 
ENDBRANCH   1   2
BRANCH   1   9
ATOM      8  O   UNL     1       6.631   5.102  19.688  0.00  0.00    +0.000 OA
ATOM      9  P   UNL     1       5.517   4.652  18.713  0.00  0.00    +0.000 P 
BRANCH   9  10
ATOM     10  O   UNL     1       6.617   4.258  17.555  0.00  0.00    +0.000 OA
ATOM     11  H   UNL     1       7.451   4.023  18.012  0.00  0.00    +0.000 HD
ENDBRANCH   9  10
BRANCH   9  12
ATOM     12  O   UNL     1       5.440   3.159  19.397  0.00  0.00    +0.000 OA
ATOM     13  H   UNL     1       4.929   2.584  18.791  0.00  0.00    +0.000 HD
ENDBRANCH   9  12
ENDBRANCH   1   9
TORSDOF 4
ENDMDL
MODEL 7
REMARK VINA RESULT:      -5.1      1.396      1.968
REMARK  Name = 
REMARK  4 active torsions:
REMARK  status: ('A' for Active; 'I' for Inactive)
REMARK    1  A    between atoms: P_2  and  O_3
REMARK    2  A    between atoms: P_2  and  O_4
REMARK    3  A    between atoms: P_2  and  C_5
REMARK    4  A    between atoms: C_5  and  C_6
REMARK                            x       y       z     vdW  Elec       q    Type
REMARK                         _______ _______ _______ _____ _____    ______ ____
ROOT
ATOM      1  C   UNL     1       5.124   5.670  16.890  0.00  0.00    +0.000 C 
ENDROOT
BRANCH   1   2
ATOM      2  C   UNL     1       4.008   4.789  17.390  0.00  0.00    +0.000 A 
ATOM      3  C   UNL     1       2.791   5.328  17.819  0.00  0.00    +0.000 A 
ATOM      4  C   UNL     1       1.755   4.477  18.193  0.00  0.00    +0.000 A 
ATOM      5  C   UNL     1       1.970   3.111  18.120  0.00  0.00    +0.000 A 
ATOM      6  N   UNL     1       3.128   2.557  17.705  0.00  0.00    +0.000 NA
ATOM      7  C   UNL     1       4.119   3.404  17.345  0.00  0.00    +0.000 A 
ENDBRANCH   1   2
BRANCH   1   9
ATOM      8  O   UNL     1       8.157   4.246  17.320  0.00  0.00    +0.000 OA
ATOM      9  P   UNL     1       6.767   4.898  17.124  0.00  0.00    +0.000 P 
BRANCH   9  10
ATOM     10  O   UNL     1       6.839   5.621  18.599  0.00  0.00    +0.000 OA
ATOM     11  H   UNL     1       6.288   5.093  19.212  0.00  0.00    +0.000 HD
ENDBRANCH   9  10
BRANCH   9  12
ATOM     12  O   UNL     1       7.410   6.154  16.281  0.00  0.00    +0.000 OA
ATOM     13  H   UNL     1       6.906   6.236  15.446  0.00  0.00    +0.000 HD
ENDBRANCH   9  12
ENDBRANCH   1   9
TORSDOF 4
ENDMDL
MODEL 8
REMARK VINA RESULT:      -5.1      1.395      1.881
REMARK  Name = 
REMARK  4 active torsions:
REMARK  status: ('A' for Active; 'I' for Inactive)
REMARK    1  A    between atoms: P_2  and  O_3
REMARK    2  A    between atoms: P_2  and  O_4
REMARK    3  A    between atoms: P_2  and  C_5
REMARK    4  A    between atoms: C_5  and  C_6
REMARK                            x       y       z     vdW  Elec       q    Type
REMARK                         _______ _______ _______ _____ _____    ______ ____
ROOT
ATOM      1  C   UNL     1       5.779   4.547  16.572  0.00  0.00    +0.000 C 
ENDROOT
BRANCH   1   2
ATOM      2  C   UNL     1       4.347   4.644  17.033  0.00  0.00    +0.000 A 
ATOM      3  C   UNL     1       3.506   3.527  17.037  0.00  0.00    +0.000 A 
ATOM      4  C   UNL     1       2.217   3.638  17.550  0.00  0.00    +0.000 A 
ATOM      5  C   UNL     1       1.813   4.865  18.048  0.00  0.00    +0.000 A 
ATOM      6  N   UNL     1       2.600   5.961  18.067  0.00  0.00    +0.000 NA
ATOM      7  C   UNL     1       3.848   5.828  17.565  0.00  0.00    +0.000 A 
ENDBRANCH   1   2
BRANCH   1   9
ATOM      8  O   UNL     1       7.949   5.602  18.936  0.00  0.00    +0.000 OA
ATOM      9  P   UNL     1       6.955   5.119  17.852  0.00  0.00    +0.000 P 
BRANCH   9  10
ATOM     10  O   UNL     1       8.087   4.137  17.176  0.00  0.00    +0.000 OA
ATOM     11  H   UNL     1       7.616   3.497  16.604  0.00  0.00    +0.000 HD
ENDBRANCH   9  10
BRANCH   9  12
ATOM     12  O   UNL     1       6.318   3.985  18.858  0.00  0.00    +0.000 OA
ATOM     13  H   UNL     1       7.060   3.576  19.347  0.00  0.00    +0.000 HD
ENDBRANCH   9  12
ENDBRANCH   1   9
TORSDOF 4
ENDMDL
MODEL 9
REMARK VINA RESULT:      -5.1      1.331      1.925
REMARK  Name = 
REMARK  4 active torsions:
REMARK  status: ('A' for Active; 'I' for Inactive)
REMARK    1  A    between atoms: P_2  and  O_3
REMARK    2  A    between atoms: P_2  and  O_4
REMARK    3  A    between atoms: P_2  and  C_5
REMARK    4  A    between atoms: C_5  and  C_6
REMARK                            x       y       z     vdW  Elec       q    Type
REMARK                         _______ _______ _______ _____ _____    ______ ____
ROOT
ATOM      1  C   UNL     1       5.628   3.946  16.276  0.00  0.00    +0.000 C 
ENDROOT
BRANCH   1   2
ATOM      2  C   UNL     1       4.539   3.914  17.319  0.00  0.00    +0.000 A 
ATOM      3  C   UNL     1       3.201   3.710  16.969  0.00  0.00    +0.000 A 
ATOM      4  C   UNL     1       2.237   3.602  17.967  0.00  0.00    +0.000 A 
ATOM      5  C   UNL     1       2.647   3.698  19.286  0.00  0.00    +0.000 A 
ATOM      6  N   UNL     1       3.929   3.887  19.661  0.00  0.00    +0.000 NA
ATOM      7  C   UNL     1       4.847   3.987  18.673  0.00  0.00    +0.000 A 
ENDBRANCH   1   2
BRANCH   1   9
ATOM      8  O   UNL     1       7.597   6.674  16.579  0.00  0.00    +0.000 OA
ATOM      9  P   UNL     1       6.694   5.424  16.440  0.00  0.00    +0.000 P 
BRANCH   9  10
ATOM     10  O   UNL     1       6.902   5.390  14.809  0.00  0.00    +0.000 OA
ATOM     11  H   UNL     1       6.527   4.546  14.484  0.00  0.00    +0.000 HD
ENDBRANCH   9  10
BRANCH   9  12
ATOM     12  O   UNL     1       7.939   4.412  16.797  0.00  0.00    +0.000 OA
ATOM     13  H   UNL     1       8.609   4.931  17.286  0.00  0.00    +0.000 HD
ENDBRANCH   9  12
ENDBRANCH   1   9
TORSDOF 4
ENDMDL
