MODEL 1
REMARK VINA RESULT:      -7.4      0.000      0.000
REMARK  Name = 
REMARK  11 active torsions:
REMARK  status: ('A' for Active; 'I' for Inactive)
REMARK    1  A    between atoms: C_1  and  O_2
REMARK    2  A    between atoms: O_2  and  C_3
REMARK    3  A    between atoms: C_3  and  C_4
REMARK    4  A    between atoms: C_4  and  O_5
REMARK    5  A    between atoms: O_5  and  C_6
REMARK    6  A    between atoms: C_12  and  C_13
REMARK    7  A    between atoms: C_26  and  O_27
REMARK    8  A    between atoms: O_27  and  C_28
REMARK    9  A    between atoms: C_28  and  C_29
REMARK   10  A    between atoms: C_29  and  O_30
REMARK   11  A    between atoms: O_30  and  C_31
REMARK                            x       y       z     vdW  Elec       q    Type
REMARK                         _______ _______ _______ _____ _____    ______ ____
ROOT
ATOM      1  C   UNL     1      -1.962  12.069  20.120  0.00  0.00    +0.000 A 
ATOM      2  C   UNL     1      -1.482  11.721  21.400  0.00  0.00    +0.000 A 
ATOM      3  C   UNL     1      -0.515  10.739  21.620  0.00  0.00    +0.000 A 
ATOM      4  N   UNL     1      -0.106  10.492  22.870  0.00  0.00    +0.000 NA
ATOM      5  C   UNL     1       0.832   9.548  23.033  0.00  0.00    +0.000 A 
ATOM      6  N   UNL     1       1.382   8.802  22.067  0.00  0.00    +0.000 NA
ATOM      7  C   UNL     1       0.949   9.054  20.817  0.00  0.00    +0.000 A 
ATOM      8  C   UNL     1      -0.003  10.056  20.518  0.00  0.00    +0.000 A 
ATOM      9  C   UNL     1      -0.431  10.449  19.227  0.00  0.00    +0.000 A 
ATOM     10  C   UNL     1      -1.369  11.463  19.009  0.00  0.00    +0.000 A 
ENDROOT
BRANCH   7  11
ATOM     11  C   UNL     1       1.600   8.244  19.778  0.00  0.00    +0.000 A 
ATOM     12  C   UNL     1       1.994   8.734  18.544  0.00  0.00    +0.000 A 
ATOM     13  N   UNL     1       2.717   7.764  17.906  0.00  0.00    +0.000 N 
ATOM     14  C   UNL     1       2.678   6.597  18.632  0.00  0.00    +0.000 A 
ATOM     15  C   UNL     1       3.239   5.349  18.346  0.00  0.00    +0.000 A 
ATOM     16  C   UNL     1       3.001   4.320  19.256  0.00  0.00    +0.000 A 
ATOM     17  F   UNL     1       3.519   3.110  18.988  0.00  0.00    +0.000 F 
ATOM     18  C   UNL     1       2.249   4.527  20.408  0.00  0.00    +0.000 A 
ATOM     19 CL   UNL     1       1.951   3.227  21.500  0.00  0.00    +0.000 Cl
ATOM     20  C   UNL     1       1.727   5.792  20.698  0.00  0.00    +0.000 A 
ATOM     21  C   UNL     1       1.944   6.854  19.793  0.00  0.00    +0.000 A 
ATOM     22  H   UNL     1       3.194   7.879  17.022  0.00  0.00    +0.000 HD
ENDBRANCH   7  11
BRANCH   1  23
ATOM     23  O   UNL     1      -2.963  13.004  20.190  0.00  0.00    +0.000 OA
BRANCH  23  24
ATOM     24  C   UNL     1      -4.308  12.580  20.006  0.00  0.00    +0.000 C 
BRANCH  24  25
ATOM     25  C   UNL     1      -5.225  13.061  21.115  0.00  0.00    +0.000 C 
BRANCH  25  27
ATOM     26  C   UNL     1      -7.201  11.760  21.115  0.00  0.00    +0.000 C 
ATOM     27  O   UNL     1      -5.887  11.898  21.621  0.00  0.00    +0.000 OA
ENDBRANCH  25  27
ENDBRANCH  24  25
ENDBRANCH  23  24
ENDBRANCH   1  23
BRANCH  10  28
ATOM     28  O   UNL     1      -1.535  11.685  17.669  0.00  0.00    +0.000 OA
BRANCH  28  29
ATOM     29  C   UNL     1      -2.330  10.755  16.962  0.00  0.00    +0.000 C 
BRANCH  29  30
ATOM     30  C   UNL     1      -3.742  11.214  16.650  0.00  0.00    +0.000 C 
BRANCH  30  31
ATOM     31  O   UNL     1      -4.015  10.622  15.379  0.00  0.00    +0.000 OA
ATOM     32  C   UNL     1      -2.893  10.058  14.751  0.00  0.00    +0.000 C 
ENDBRANCH  30  31
ENDBRANCH  29  30
ENDBRANCH  28  29
ENDBRANCH  10  28
TORSDOF 9
ENDMDL
MODEL 2
REMARK VINA RESULT:      -7.3      0.840      1.011
REMARK  Name = 
REMARK  11 active torsions:
REMARK  status: ('A' for Active; 'I' for Inactive)
REMARK    1  A    between atoms: C_1  and  O_2
REMARK    2  A    between atoms: O_2  and  C_3
REMARK    3  A    between atoms: C_3  and  C_4
REMARK    4  A    between atoms: C_4  and  O_5
REMARK    5  A    between atoms: O_5  and  C_6
REMARK    6  A    between atoms: C_12  and  C_13
REMARK    7  A    between atoms: C_26  and  O_27
REMARK    8  A    between atoms: O_27  and  C_28
REMARK    9  A    between atoms: C_28  and  C_29
REMARK   10  A    between atoms: C_29  and  O_30
REMARK   11  A    between atoms: O_30  and  C_31
REMARK                            x       y       z     vdW  Elec       q    Type
REMARK                         _______ _______ _______ _____ _____    ______ ____
ROOT
ATOM      1  C   UNL     1      -1.852  11.580  19.577  0.00  0.00    +0.000 A 
ATOM      2  C   UNL     1      -1.327  11.419  20.876  0.00  0.00    +0.000 A 
ATOM      3  C   UNL     1      -0.316  10.510  21.192  0.00  0.00    +0.000 A 
ATOM      4  N   UNL     1       0.134  10.442  22.450  0.00  0.00    +0.000 NA
ATOM      5  C   UNL     1       1.114   9.563  22.705  0.00  0.00    +0.000 A 
ATOM      6  N   UNL     1       1.668   8.718  21.827  0.00  0.00    +0.000 NA
ATOM      7  C   UNL     1       1.193   8.789  20.568  0.00  0.00    +0.000 A 
ATOM      8  C   UNL     1       0.195   9.708  20.172  0.00  0.00    +0.000 A 
ATOM      9  C   UNL     1      -0.282   9.914  18.855  0.00  0.00    +0.000 A 
ATOM     10  C   UNL     1      -1.264  10.857  18.536  0.00  0.00    +0.000 A 
ENDROOT
BRANCH   7  11
ATOM     11  C   UNL     1       1.849   7.875  19.623  0.00  0.00    +0.000 A 
ATOM     12  C   UNL     1       2.376   8.265  18.403  0.00  0.00    +0.000 A 
ATOM     13  N   UNL     1       3.060   7.208  17.870  0.00  0.00    +0.000 N 
ATOM     14  C   UNL     1       2.867   6.087  18.644  0.00  0.00    +0.000 A 
ATOM     15  C   UNL     1       3.339   4.784  18.462  0.00  0.00    +0.000 A 
ATOM     16  C   UNL     1       2.946   3.827  19.397  0.00  0.00    +0.000 A 
ATOM     17  F   UNL     1       3.377   2.567  19.228  0.00  0.00    +0.000 F 
ATOM     18  C   UNL     1       2.130   4.156  20.474  0.00  0.00    +0.000 A 
ATOM     19 CL   UNL     1       1.640   2.944  21.598  0.00  0.00    +0.000 Cl
ATOM     20  C   UNL     1       1.697   5.473  20.663  0.00  0.00    +0.000 A 
ATOM     21  C   UNL     1       2.072   6.464  19.730  0.00  0.00    +0.000 A 
ATOM     22  H   UNL     1       3.610   7.236  17.023  0.00  0.00    +0.000 HD
ENDBRANCH   7  11
BRANCH   1  23
ATOM     23  O   UNL     1      -2.888  12.479  19.557  0.00  0.00    +0.000 OA
BRANCH  23  24
ATOM     24  C   UNL     1      -3.394  12.967  20.793  0.00  0.00    +0.000 C 
BRANCH  24  25
ATOM     25  C   UNL     1      -4.872  12.673  20.971  0.00  0.00    +0.000 C 
BRANCH  25  27
ATOM     26  C   UNL     1      -3.931  12.710  23.142  0.00  0.00    +0.000 C 
ATOM     27  O   UNL     1      -5.055  12.361  22.355  0.00  0.00    +0.000 OA
ENDBRANCH  25  27
ENDBRANCH  24  25
ENDBRANCH  23  24
ENDBRANCH   1  23
BRANCH  10  28
ATOM     28  O   UNL     1      -1.473  10.896  17.184  0.00  0.00    +0.000 OA
BRANCH  28  29
ATOM     29  C   UNL     1      -2.533  10.110  16.679  0.00  0.00    +0.000 C 
BRANCH  29  30
ATOM     30  C   UNL     1      -3.570  10.865  15.869  0.00  0.00    +0.000 C 
BRANCH  30  31
ATOM     31  O   UNL     1      -3.064  10.805  14.535  0.00  0.00    +0.000 OA
ATOM     32  C   UNL     1      -3.758   9.921  13.693  0.00  0.00    +0.000 C 
ENDBRANCH  30  31
ENDBRANCH  29  30
ENDBRANCH  28  29
ENDBRANCH  10  28
TORSDOF 9
ENDMDL
MODEL 3
REMARK VINA RESULT:      -7.3      5.121      8.969
REMARK  Name = 
REMARK  11 active torsions:
REMARK  status: ('A' for Active; 'I' for Inactive)
REMARK    1  A    between atoms: C_1  and  O_2
REMARK    2  A    between atoms: O_2  and  C_3
REMARK    3  A    between atoms: C_3  and  C_4
REMARK    4  A    between atoms: C_4  and  O_5
REMARK    5  A    between atoms: O_5  and  C_6
REMARK    6  A    between atoms: C_12  and  C_13
REMARK    7  A    between atoms: C_26  and  O_27
REMARK    8  A    between atoms: O_27  and  C_28
REMARK    9  A    between atoms: C_28  and  C_29
REMARK   10  A    between atoms: C_29  and  O_30
REMARK   11  A    between atoms: O_30  and  C_31
REMARK                            x       y       z     vdW  Elec       q    Type
REMARK                         _______ _______ _______ _____ _____    ______ ____
ROOT
ATOM      1  C   UNL     1       2.967   5.860  18.603  0.00  0.00    +0.000 A 
ATOM      2  C   UNL     1       2.986   7.049  17.845  0.00  0.00    +0.000 A 
ATOM      3  C   UNL     1       2.397   8.242  18.267  0.00  0.00    +0.000 A 
ATOM      4  N   UNL     1       2.484   9.327  17.487  0.00  0.00    +0.000 NA
ATOM      5  C   UNL     1       1.913  10.453  17.938  0.00  0.00    +0.000 A 
ATOM      6  N   UNL     1       1.231  10.593  19.081  0.00  0.00    +0.000 NA
ATOM      7  C   UNL     1       1.141   9.488  19.846  0.00  0.00    +0.000 A 
ATOM      8  C   UNL     1       1.741   8.258  19.497  0.00  0.00    +0.000 A 
ATOM      9  C   UNL     1       1.778   7.085  20.291  0.00  0.00    +0.000 A 
ATOM     10  C   UNL     1       2.408   5.905  19.882  0.00  0.00    +0.000 A 
ENDROOT
BRANCH   7  11
ATOM     11  C   UNL     1       0.419   9.687  21.110  0.00  0.00    +0.000 A 
ATOM     12  C   UNL     1       0.640   8.942  22.257  0.00  0.00    +0.000 A 
ATOM     13  N   UNL     1      -0.069   9.507  23.282  0.00  0.00    +0.000 N 
ATOM     14  C   UNL     1      -0.867  10.517  22.798  0.00  0.00    +0.000 A 
ATOM     15  C   UNL     1      -1.779  11.334  23.472  0.00  0.00    +0.000 A 
ATOM     16  C   UNL     1      -2.490  12.260  22.710  0.00  0.00    +0.000 A 
ATOM     17  F   UNL     1      -3.382  13.042  23.339  0.00  0.00    +0.000 F 
ATOM     18  C   UNL     1      -2.293  12.376  21.338  0.00  0.00    +0.000 A 
ATOM     19 CL   UNL     1      -3.208  13.512  20.419  0.00  0.00    +0.000 Cl
ATOM     20  C   UNL     1      -1.350  11.576  20.684  0.00  0.00    +0.000 A 
ATOM     21  C   UNL     1      -0.617  10.624  21.427  0.00  0.00    +0.000 A 
ATOM     22  H   UNL     1      -0.028   9.216  24.249  0.00  0.00    +0.000 HD
ENDBRANCH   7  11
BRANCH   1  23
ATOM     23  O   UNL     1       3.547   4.818  17.926  0.00  0.00    +0.000 OA
BRANCH  23  24
ATOM     24  C   UNL     1       4.827   4.359  18.345  0.00  0.00    +0.000 C 
BRANCH  24  25
ATOM     25  C   UNL     1       5.801   4.222  17.190  0.00  0.00    +0.000 C 
BRANCH  25  27
ATOM     26  C   UNL     1       7.159   5.882  18.188  0.00  0.00    +0.000 C 
ATOM     27  O   UNL     1       7.091   4.551  17.711  0.00  0.00    +0.000 OA
ENDBRANCH  25  27
ENDBRANCH  24  25
ENDBRANCH  23  24
ENDBRANCH   1  23
BRANCH  10  28
ATOM     28  O   UNL     1       2.357   4.965  20.875  0.00  0.00    +0.000 OA
BRANCH  28  29
ATOM     29  C   UNL     1       1.289   4.040  20.824  0.00  0.00    +0.000 C 
BRANCH  29  30
ATOM     30  C   UNL     1       1.684   2.585  20.993  0.00  0.00    +0.000 C 
BRANCH  30  31
ATOM     31  O   UNL     1       2.035   2.176  19.670  0.00  0.00    +0.000 OA
ATOM     32  C   UNL     1       1.037   2.406  18.710  0.00  0.00    +0.000 C 
ENDBRANCH  30  31
ENDBRANCH  29  30
ENDBRANCH  28  29
ENDBRANCH  10  28
TORSDOF 9
ENDMDL
MODEL 4
REMARK VINA RESULT:      -7.1      5.089      9.097
REMARK  Name = 
REMARK  11 active torsions:
REMARK  status: ('A' for Active; 'I' for Inactive)
REMARK    1  A    between atoms: C_1  and  O_2
REMARK    2  A    between atoms: O_2  and  C_3
REMARK    3  A    between atoms: C_3  and  C_4
REMARK    4  A    between atoms: C_4  and  O_5
REMARK    5  A    between atoms: O_5  and  C_6
REMARK    6  A    between atoms: C_12  and  C_13
REMARK    7  A    between atoms: C_26  and  O_27
REMARK    8  A    between atoms: O_27  and  C_28
REMARK    9  A    between atoms: C_28  and  C_29
REMARK   10  A    between atoms: C_29  and  O_30
REMARK   11  A    between atoms: O_30  and  C_31
REMARK                            x       y       z     vdW  Elec       q    Type
REMARK                         _______ _______ _______ _____ _____    ______ ____
ROOT
ATOM      1  C   UNL     1       2.818   6.153  18.681  0.00  0.00    +0.000 A 
ATOM      2  C   UNL     1       2.867   7.358  17.950  0.00  0.00    +0.000 A 
ATOM      3  C   UNL     1       2.281   8.548  18.385  0.00  0.00    +0.000 A 
ATOM      4  N   UNL     1       2.398   9.648  17.632  0.00  0.00    +0.000 NA
ATOM      5  C   UNL     1       1.828  10.771  18.095  0.00  0.00    +0.000 A 
ATOM      6  N   UNL     1       1.123  10.893  19.226  0.00  0.00    +0.000 NA
ATOM      7  C   UNL     1       1.003   9.773  19.964  0.00  0.00    +0.000 A 
ATOM      8  C   UNL     1       1.598   8.544  19.601  0.00  0.00    +0.000 A 
ATOM      9  C   UNL     1       1.605   7.354  20.369  0.00  0.00    +0.000 A 
ATOM     10  C   UNL     1       2.231   6.176  19.948  0.00  0.00    +0.000 A 
ENDROOT
BRANCH   7  11
ATOM     11  C   UNL     1       0.256   9.952  21.216  0.00  0.00    +0.000 A 
ATOM     12  C   UNL     1       0.476   9.211  22.366  0.00  0.00    +0.000 A 
ATOM     13  N   UNL     1      -0.263   9.757  23.379  0.00  0.00    +0.000 N 
ATOM     14  C   UNL     1      -1.078  10.747  22.883  0.00  0.00    +0.000 A 
ATOM     15  C   UNL     1      -2.022  11.541  23.542  0.00  0.00    +0.000 A 
ATOM     16  C   UNL     1      -2.742  12.449  22.769  0.00  0.00    +0.000 A 
ATOM     17  F   UNL     1      -3.664  13.209  23.384  0.00  0.00    +0.000 F 
ATOM     18  C   UNL     1      -2.525  12.573  21.401  0.00  0.00    +0.000 A 
ATOM     19 CL   UNL     1      -3.452  13.687  20.468  0.00  0.00    +0.000 Cl
ATOM     20  C   UNL     1      -1.551  11.797  20.763  0.00  0.00    +0.000 A 
ATOM     21  C   UNL     1      -0.808  10.862  21.517  0.00  0.00    +0.000 A 
ATOM     22  H   UNL     1      -0.232   9.465  24.346  0.00  0.00    +0.000 HD
ENDBRANCH   7  11
BRANCH   1  23
ATOM     23  O   UNL     1       3.402   5.119  17.994  0.00  0.00    +0.000 OA
BRANCH  23  24
ATOM     24  C   UNL     1       4.453   5.412  17.081  0.00  0.00    +0.000 C 
BRANCH  24  25
ATOM     25  C   UNL     1       5.010   4.167  16.419  0.00  0.00    +0.000 C 
BRANCH  25  27
ATOM     26  C   UNL     1       6.290   3.956  14.440  0.00  0.00    +0.000 C 
ATOM     27  O   UNL     1       6.179   4.580  15.705  0.00  0.00    +0.000 OA
ENDBRANCH  25  27
ENDBRANCH  24  25
ENDBRANCH  23  24
ENDBRANCH   1  23
BRANCH  10  28
ATOM     28  O   UNL     1       2.148   5.214  20.919  0.00  0.00    +0.000 OA
BRANCH  28  29
ATOM     29  C   UNL     1       1.313   4.107  20.649  0.00  0.00    +0.000 C 
BRANCH  29  30
ATOM     30  C   UNL     1       1.920   2.750  20.952  0.00  0.00    +0.000 C 
BRANCH  30  31
ATOM     31  O   UNL     1       3.294   2.908  20.595  0.00  0.00    +0.000 OA
ATOM     32  C   UNL     1       3.700   2.128  19.500  0.00  0.00    +0.000 C 
ENDBRANCH  30  31
ENDBRANCH  29  30
ENDBRANCH  28  29
ENDBRANCH  10  28
TORSDOF 9
ENDMDL
MODEL 5
REMARK VINA RESULT:      -7.0      5.342      9.081
REMARK  Name = 
REMARK  11 active torsions:
REMARK  status: ('A' for Active; 'I' for Inactive)
REMARK    1  A    between atoms: C_1  and  O_2
REMARK    2  A    between atoms: O_2  and  C_3
REMARK    3  A    between atoms: C_3  and  C_4
REMARK    4  A    between atoms: C_4  and  O_5
REMARK    5  A    between atoms: O_5  and  C_6
REMARK    6  A    between atoms: C_12  and  C_13
REMARK    7  A    between atoms: C_26  and  O_27
REMARK    8  A    between atoms: O_27  and  C_28
REMARK    9  A    between atoms: C_28  and  C_29
REMARK   10  A    between atoms: C_29  and  O_30
REMARK   11  A    between atoms: O_30  and  C_31
REMARK                            x       y       z     vdW  Elec       q    Type
REMARK                         _______ _______ _______ _____ _____    ______ ____
ROOT
ATOM      1  C   UNL     1       3.069   5.735  18.907  0.00  0.00    +0.000 A 
ATOM      2  C   UNL     1       3.110   6.868  18.069  0.00  0.00    +0.000 A 
ATOM      3  C   UNL     1       2.452   8.065  18.358  0.00  0.00    +0.000 A 
ATOM      4  N   UNL     1       2.565   9.095  17.510  0.00  0.00    +0.000 NA
ATOM      5  C   UNL     1       1.926  10.228  17.834  0.00  0.00    +0.000 A 
ATOM      6  N   UNL     1       1.155  10.422  18.911  0.00  0.00    +0.000 NA
ATOM      7  C   UNL     1       1.040   9.371  19.745  0.00  0.00    +0.000 A 
ATOM      8  C   UNL     1       1.704   8.142  19.532  0.00  0.00    +0.000 A 
ATOM      9  C   UNL     1       1.717   7.030  20.409  0.00  0.00    +0.000 A 
ATOM     10  C   UNL     1       2.413   5.849  20.135  0.00  0.00    +0.000 A 
ENDROOT
BRANCH   7  11
ATOM     11  C   UNL     1       0.218   9.632  20.935  0.00  0.00    +0.000 A 
ATOM     12  C   UNL     1      -0.206   8.651  21.817  0.00  0.00    +0.000 A 
ATOM     13  N   UNL     1      -0.792   9.261  22.891  0.00  0.00    +0.000 N 
ATOM     14  C   UNL     1      -0.896  10.613  22.663  0.00  0.00    +0.000 A 
ATOM     15  C   UNL     1      -1.458  11.613  23.462  0.00  0.00    +0.000 A 
ATOM     16  C   UNL     1      -1.460  12.910  22.952  0.00  0.00    +0.000 A 
ATOM     17  F   UNL     1      -2.010  13.880  23.701  0.00  0.00    +0.000 F 
ATOM     18  C   UNL     1      -0.915  13.203  21.707  0.00  0.00    +0.000 A 
ATOM     19 CL   UNL     1      -0.958  14.813  21.094  0.00  0.00    +0.000 Cl
ATOM     20  C   UNL     1      -0.324  12.197  20.935  0.00  0.00    +0.000 A 
ATOM     21  C   UNL     1      -0.311  10.871  21.420  0.00  0.00    +0.000 A 
ATOM     22  H   UNL     1      -1.119   8.789  23.722  0.00  0.00    +0.000 HD
ENDBRANCH   7  11
BRANCH   1  23
ATOM     23  O   UNL     1       3.733   4.670  18.353  0.00  0.00    +0.000 OA
BRANCH  23  24
ATOM     24  C   UNL     1       4.714   4.920  17.354  0.00  0.00    +0.000 C 
BRANCH  24  25
ATOM     25  C   UNL     1       4.862   3.763  16.384  0.00  0.00    +0.000 C 
BRANCH  25  27
ATOM     26  C   UNL     1       6.909   4.950  16.363  0.00  0.00    +0.000 C 
ATOM     27  O   UNL     1       6.216   3.797  15.924  0.00  0.00    +0.000 OA
ENDBRANCH  25  27
ENDBRANCH  24  25
ENDBRANCH  23  24
ENDBRANCH   1  23
BRANCH  10  28
ATOM     28  O   UNL     1       2.316   4.978  21.187  0.00  0.00    +0.000 OA
BRANCH  28  29
ATOM     29  C   UNL     1       1.543   3.813  20.981  0.00  0.00    +0.000 C 
BRANCH  29  30
ATOM     30  C   UNL     1       2.331   2.519  20.904  0.00  0.00    +0.000 C 
BRANCH  30  31
ATOM     31  O   UNL     1       1.978   1.987  19.626  0.00  0.00    +0.000 OA
ATOM     32  C   UNL     1       0.887   2.625  19.015  0.00  0.00    +0.000 C 
ENDBRANCH  30  31
ENDBRANCH  29  30
ENDBRANCH  28  29
ENDBRANCH  10  28
TORSDOF 9
ENDMDL
MODEL 6
REMARK VINA RESULT:      -6.9      0.985      1.287
REMARK  Name = 
REMARK  11 active torsions:
REMARK  status: ('A' for Active; 'I' for Inactive)
REMARK    1  A    between atoms: C_1  and  O_2
REMARK    2  A    between atoms: O_2  and  C_3
REMARK    3  A    between atoms: C_3  and  C_4
REMARK    4  A    between atoms: C_4  and  O_5
REMARK    5  A    between atoms: O_5  and  C_6
REMARK    6  A    between atoms: C_12  and  C_13
REMARK    7  A    between atoms: C_26  and  O_27
REMARK    8  A    between atoms: O_27  and  C_28
REMARK    9  A    between atoms: C_28  and  C_29
REMARK   10  A    between atoms: C_29  and  O_30
REMARK   11  A    between atoms: O_30  and  C_31
REMARK                            x       y       z     vdW  Elec       q    Type
REMARK                         _______ _______ _______ _____ _____    ______ ____
ROOT
ATOM      1  C   UNL     1      -1.964  12.245  20.542  0.00  0.00    +0.000 A 
ATOM      2  C   UNL     1      -1.482  11.779  21.783  0.00  0.00    +0.000 A 
ATOM      3  C   UNL     1      -0.527  10.770  21.910  0.00  0.00    +0.000 A 
ATOM      4  N   UNL     1      -0.116  10.407  23.131  0.00  0.00    +0.000 NA
ATOM      5  C   UNL     1       0.811   9.441  23.204  0.00  0.00    +0.000 A 
ATOM      6  N   UNL     1       1.346   8.777  22.172  0.00  0.00    +0.000 NA
ATOM      7  C   UNL     1       0.910   9.144  20.952  0.00  0.00    +0.000 A 
ATOM      8  C   UNL     1      -0.029  10.180  20.748  0.00  0.00    +0.000 A 
ATOM      9  C   UNL     1      -0.459  10.691  19.500  0.00  0.00    +0.000 A 
ATOM     10  C   UNL     1      -1.384  11.733  19.378  0.00  0.00    +0.000 A 
ENDROOT
BRANCH   7  11
ATOM     11  C   UNL     1       1.546   8.421  19.842  0.00  0.00    +0.000 A 
ATOM     12  C   UNL     1       1.834   8.986  18.610  0.00  0.00    +0.000 A 
ATOM     13  N   UNL     1       2.575   8.092  17.888  0.00  0.00    +0.000 N 
ATOM     14  C   UNL     1       2.651   6.895  18.561  0.00  0.00    +0.000 A 
ATOM     15  C   UNL     1       3.268   5.697  18.188  0.00  0.00    +0.000 A 
ATOM     16  C   UNL     1       3.148   4.618  19.062  0.00  0.00    +0.000 A 
ATOM     17  F   UNL     1       3.722   3.456  18.710  0.00  0.00    +0.000 F 
ATOM     18  C   UNL     1       2.456   4.729  20.263  0.00  0.00    +0.000 A 
ATOM     19 CL   UNL     1       2.304   3.368  21.310  0.00  0.00    +0.000 Cl
ATOM     20  C   UNL     1       1.876   5.945  20.640  0.00  0.00    +0.000 A 
ATOM     21  C   UNL     1       1.974   7.056  19.773  0.00  0.00    +0.000 A 
ATOM     22  H   UNL     1       2.991   8.273  16.985  0.00  0.00    +0.000 HD
ENDBRANCH   7  11
BRANCH   1  23
ATOM     23  O   UNL     1      -2.952  13.183  20.700  0.00  0.00    +0.000 OA
BRANCH  23  24
ATOM     24  C   UNL     1      -4.306  12.749  20.739  0.00  0.00    +0.000 C 
BRANCH  24  25
ATOM     25  C   UNL     1      -5.025  13.204  21.995  0.00  0.00    +0.000 C 
BRANCH  25  27
ATOM     26  C   UNL     1      -4.178  12.772  24.161  0.00  0.00    +0.000 C 
ATOM     27  O   UNL     1      -4.753  12.216  22.993  0.00  0.00    +0.000 OA
ENDBRANCH  25  27
ENDBRANCH  24  25
ENDBRANCH  23  24
ENDBRANCH   1  23
BRANCH  10  28
ATOM     28  O   UNL     1      -1.553  12.075  18.064  0.00  0.00    +0.000 OA
BRANCH  28  29
ATOM     29  C   UNL     1      -2.747  11.646  17.441  0.00  0.00    +0.000 C 
BRANCH  29  30
ATOM     30  C   UNL     1      -2.879  10.146  17.257  0.00  0.00    +0.000 C 
BRANCH  30  31
ATOM     31  O   UNL     1      -4.199   9.864  17.723  0.00  0.00    +0.000 OA
ATOM     32  C   UNL     1      -5.036  10.989  17.804  0.00  0.00    +0.000 C 
ENDBRANCH  30  31
ENDBRANCH  29  30
ENDBRANCH  28  29
ENDBRANCH  10  28
TORSDOF 9
ENDMDL
MODEL 7
REMARK VINA RESULT:      -6.9      4.264      6.705
REMARK  Name = 
REMARK  11 active torsions:
REMARK  status: ('A' for Active; 'I' for Inactive)
REMARK    1  A    between atoms: C_1  and  O_2
REMARK    2  A    between atoms: O_2  and  C_3
REMARK    3  A    between atoms: C_3  and  C_4
REMARK    4  A    between atoms: C_4  and  O_5
REMARK    5  A    between atoms: O_5  and  C_6
REMARK    6  A    between atoms: C_12  and  C_13
REMARK    7  A    between atoms: C_26  and  O_27
REMARK    8  A    between atoms: O_27  and  C_28
REMARK    9  A    between atoms: C_28  and  C_29
REMARK   10  A    between atoms: C_29  and  O_30
REMARK   11  A    between atoms: O_30  and  C_31
REMARK                            x       y       z     vdW  Elec       q    Type
REMARK                         _______ _______ _______ _____ _____    ______ ____
ROOT
ATOM      1  C   UNL     1       1.868   6.937  19.681  0.00  0.00    +0.000 A 
ATOM      2  C   UNL     1       2.110   5.579  19.973  0.00  0.00    +0.000 A 
ATOM      3  C   UNL     1       3.125   4.831  19.375  0.00  0.00    +0.000 A 
ATOM      4  N   UNL     1       3.291   3.551  19.731  0.00  0.00    +0.000 NA
ATOM      5  C   UNL     1       4.285   2.874  19.138  0.00  0.00    +0.000 A 
ATOM      6  N   UNL     1       5.113   3.344  18.197  0.00  0.00    +0.000 NA
ATOM      7  C   UNL     1       4.923   4.629  17.841  0.00  0.00    +0.000 A 
ATOM      8  C   UNL     1       3.937   5.454  18.428  0.00  0.00    +0.000 A 
ATOM      9  C   UNL     1       3.742   6.835  18.183  0.00  0.00    +0.000 A 
ATOM     10  C   UNL     1       2.751   7.591  18.818  0.00  0.00    +0.000 A 
ENDROOT
BRANCH   7  11
ATOM     11  C   UNL     1       5.873   5.123  16.834  0.00  0.00    +0.000 A 
ATOM     12  C   UNL     1       6.853   6.068  17.088  0.00  0.00    +0.000 A 
ATOM     13  N   UNL     1       7.659   6.160  15.988  0.00  0.00    +0.000 N 
ATOM     14  C   UNL     1       7.141   5.404  14.963  0.00  0.00    +0.000 A 
ATOM     15  C   UNL     1       7.606   5.232  13.656  0.00  0.00    +0.000 A 
ATOM     16  C   UNL     1       6.845   4.429  12.808  0.00  0.00    +0.000 A 
ATOM     17  F   UNL     1       7.270   4.267  11.544  0.00  0.00    +0.000 F 
ATOM     18  C   UNL     1       5.678   3.811  13.246  0.00  0.00    +0.000 A 
ATOM     19 CL   UNL     1       4.745   2.846  12.165  0.00  0.00    +0.000 Cl
ATOM     20  C   UNL     1       5.246   3.963  14.568  0.00  0.00    +0.000 A 
ATOM     21  C   UNL     1       5.991   4.776  15.450  0.00  0.00    +0.000 A 
ATOM     22  H   UNL     1       8.502   6.714  15.927  0.00  0.00    +0.000 HD
ENDBRANCH   7  11
BRANCH   1  23
ATOM     23  O   UNL     1       0.766   7.411  20.346  0.00  0.00    +0.000 OA
BRANCH  23  24
ATOM     24  C   UNL     1       0.954   8.337  21.409  0.00  0.00    +0.000 C 
BRANCH  24  25
ATOM     25  C   UNL     1      -0.348   8.706  22.094  0.00  0.00    +0.000 C 
BRANCH  25  27
ATOM     26  C   UNL     1      -0.885  10.813  23.027  0.00  0.00    +0.000 C 
ATOM     27  O   UNL     1      -0.020   9.694  23.075  0.00  0.00    +0.000 OA
ENDBRANCH  25  27
ENDBRANCH  24  25
ENDBRANCH  23  24
ENDBRANCH   1  23
BRANCH  10  28
ATOM     28  O   UNL     1       2.842   8.907  18.452  0.00  0.00    +0.000 OA
BRANCH  28  29
ATOM     29  C   UNL     1       1.739   9.454  17.759  0.00  0.00    +0.000 C 
BRANCH  29  30
ATOM     30  C   UNL     1       1.002  10.562  18.487  0.00  0.00    +0.000 C 
BRANCH  30  31
ATOM     31  O   UNL     1      -0.329  10.058  18.608  0.00  0.00    +0.000 OA
ATOM     32  C   UNL     1      -1.231  10.948  19.214  0.00  0.00    +0.000 C 
ENDBRANCH  30  31
ENDBRANCH  29  30
ENDBRANCH  28  29
ENDBRANCH  10  28
TORSDOF 9
ENDMDL
MODEL 8
REMARK VINA RESULT:      -6.8      1.391      1.673
REMARK  Name = 
REMARK  11 active torsions:
REMARK  status: ('A' for Active; 'I' for Inactive)
REMARK    1  A    between atoms: C_1  and  O_2
REMARK    2  A    between atoms: O_2  and  C_3
REMARK    3  A    between atoms: C_3  and  C_4
REMARK    4  A    between atoms: C_4  and  O_5
REMARK    5  A    between atoms: O_5  and  C_6
REMARK    6  A    between atoms: C_12  and  C_13
REMARK    7  A    between atoms: C_26  and  O_27
REMARK    8  A    between atoms: O_27  and  C_28
REMARK    9  A    between atoms: C_28  and  C_29
REMARK   10  A    between atoms: C_29  and  O_30
REMARK   11  A    between atoms: O_30  and  C_31
REMARK                            x       y       z     vdW  Elec       q    Type
REMARK                         _______ _______ _______ _____ _____    ______ ____
ROOT
ATOM      1  C   UNL     1      -2.665  11.240  18.209  0.00  0.00    +0.000 A 
ATOM      2  C   UNL     1      -2.220  11.419  19.535  0.00  0.00    +0.000 A 
ATOM      3  C   UNL     1      -1.061  10.832  20.045  0.00  0.00    +0.000 A 
ATOM      4  N   UNL     1      -0.707  11.077  21.313  0.00  0.00    +0.000 NA
ATOM      5  C   UNL     1       0.419  10.501  21.757  0.00  0.00    +0.000 A 
ATOM      6  N   UNL     1       1.214   9.676  21.064  0.00  0.00    +0.000 NA
ATOM      7  C   UNL     1       0.835   9.430  19.795  0.00  0.00    +0.000 A 
ATOM      8  C   UNL     1      -0.307  10.015  19.204  0.00  0.00    +0.000 A 
ATOM      9  C   UNL     1      -0.713   9.888  17.853  0.00  0.00    +0.000 A 
ATOM     10  C   UNL     1      -1.852  10.513  17.335  0.00  0.00    +0.000 A 
ENDROOT
BRANCH   7  11
ATOM     11  C   UNL     1       1.749   8.551  19.053  0.00  0.00    +0.000 A 
ATOM     12  C   UNL     1       2.376   8.904  17.869  0.00  0.00    +0.000 A 
ATOM     13  N   UNL     1       3.282   7.929  17.553  0.00  0.00    +0.000 N 
ATOM     14  C   UNL     1       3.155   6.872  18.424  0.00  0.00    +0.000 A 
ATOM     15  C   UNL     1       3.841   5.654  18.457  0.00  0.00    +0.000 A 
ATOM     16  C   UNL     1       3.472   4.741  19.443  0.00  0.00    +0.000 A 
ATOM     17  F   UNL     1       4.110   3.559  19.478  0.00  0.00    +0.000 F 
ATOM     18  C   UNL     1       2.472   5.031  20.365  0.00  0.00    +0.000 A 
ATOM     19 CL   UNL     1       2.020   3.868  21.555  0.00  0.00    +0.000 Cl
ATOM     20  C   UNL     1       1.821   6.269  20.342  0.00  0.00    +0.000 A 
ATOM     21  C   UNL     1       2.167   7.214  19.352  0.00  0.00    +0.000 A 
ATOM     22  H   UNL     1       3.935   7.967  16.783  0.00  0.00    +0.000 HD
ENDBRANCH   7  11
BRANCH   1  23
ATOM     23  O   UNL     1      -3.869  11.859  17.989  0.00  0.00    +0.000 OA
BRANCH  23  24
ATOM     24  C   UNL     1      -5.067  11.136  18.247  0.00  0.00    +0.000 C 
BRANCH  24  25
ATOM     25  C   UNL     1      -5.970  11.845  19.238  0.00  0.00    +0.000 C 
BRANCH  25  27
ATOM     26  C   UNL     1      -7.638  11.191  20.784  0.00  0.00    +0.000 C 
ATOM     27  O   UNL     1      -7.038  10.938  19.527  0.00  0.00    +0.000 OA
ENDBRANCH  25  27
ENDBRANCH  24  25
ENDBRANCH  23  24
ENDBRANCH   1  23
BRANCH  10  28
ATOM     28  O   UNL     1      -1.958  10.282  15.991  0.00  0.00    +0.000 OA
BRANCH  28  29
ATOM     29  C   UNL     1      -3.167   9.712  15.534  0.00  0.00    +0.000 C 
BRANCH  29  30
ATOM     30  C   UNL     1      -3.892  10.502  14.461  0.00  0.00    +0.000 C 
BRANCH  30  31
ATOM     31  O   UNL     1      -4.395   9.494  13.582  0.00  0.00    +0.000 OA
ATOM     32  C   UNL     1      -4.351   9.841  12.222  0.00  0.00    +0.000 C 
ENDBRANCH  30  31
ENDBRANCH  29  30
ENDBRANCH  28  29
ENDBRANCH  10  28
TORSDOF 9
ENDMDL
MODEL 9
REMARK VINA RESULT:      -6.8      1.135      1.515
REMARK  Name = 
REMARK  11 active torsions:
REMARK  status: ('A' for Active; 'I' for Inactive)
REMARK    1  A    between atoms: C_1  and  O_2
REMARK    2  A    between atoms: O_2  and  C_3
REMARK    3  A    between atoms: C_3  and  C_4
REMARK    4  A    between atoms: C_4  and  O_5
REMARK    5  A    between atoms: O_5  and  C_6
REMARK    6  A    between atoms: C_12  and  C_13
REMARK    7  A    between atoms: C_26  and  O_27
REMARK    8  A    between atoms: O_27  and  C_28
REMARK    9  A    between atoms: C_28  and  C_29
REMARK   10  A    between atoms: C_29  and  O_30
REMARK   11  A    between atoms: O_30  and  C_31
REMARK                            x       y       z     vdW  Elec       q    Type
REMARK                         _______ _______ _______ _____ _____    ______ ____
ROOT
ATOM      1  C   UNL     1      -1.643  11.725  19.714  0.00  0.00    +0.000 A 
ATOM      2  C   UNL     1      -1.144  11.502  21.014  0.00  0.00    +0.000 A 
ATOM      3  C   UNL     1      -0.192  10.527  21.318  0.00  0.00    +0.000 A 
ATOM      4  N   UNL     1       0.237  10.403  22.579  0.00  0.00    +0.000 NA
ATOM      5  C   UNL     1       1.159   9.460  22.823  0.00  0.00    +0.000 A 
ATOM      6  N   UNL     1       1.673   8.605  21.930  0.00  0.00    +0.000 NA
ATOM      7  C   UNL     1       1.220   8.736  20.668  0.00  0.00    +0.000 A 
ATOM      8  C   UNL     1       0.283   9.721  20.284  0.00  0.00    +0.000 A 
ATOM      9  C   UNL     1      -0.165   9.987  18.967  0.00  0.00    +0.000 A 
ATOM     10  C   UNL     1      -1.086  10.994  18.662  0.00  0.00    +0.000 A 
ENDROOT
BRANCH   7  11
ATOM     11  C   UNL     1       1.832   7.807  19.708  0.00  0.00    +0.000 A 
ATOM     12  C   UNL     1       2.328   8.184  18.470  0.00  0.00    +0.000 A 
ATOM     13  N   UNL     1       2.978   7.113  17.922  0.00  0.00    +0.000 N 
ATOM     14  C   UNL     1       2.791   5.999  18.707  0.00  0.00    +0.000 A 
ATOM     15  C   UNL     1       3.236   4.688  18.517  0.00  0.00    +0.000 A 
ATOM     16  C   UNL     1       2.856   3.741  19.467  0.00  0.00    +0.000 A 
ATOM     17  F   UNL     1       3.262   2.473  19.290  0.00  0.00    +0.000 F 
ATOM     18  C   UNL     1       2.079   4.087  20.567  0.00  0.00    +0.000 A 
ATOM     19 CL   UNL     1       1.604   2.888  21.710  0.00  0.00    +0.000 Cl
ATOM     20  C   UNL     1       1.673   5.412  20.763  0.00  0.00    +0.000 A 
ATOM     21  C   UNL     1       2.035   6.393  19.814  0.00  0.00    +0.000 A 
ATOM     22  H   UNL     1       3.503   7.130  17.059  0.00  0.00    +0.000 HD
ENDBRANCH   7  11
BRANCH   1  23
ATOM     23  O   UNL     1      -2.623  12.685  19.704  0.00  0.00    +0.000 OA
BRANCH  23  24
ATOM     24  C   UNL     1      -3.754  12.515  20.550  0.00  0.00    +0.000 C 
BRANCH  24  25
ATOM     25  C   UNL     1      -4.225  13.823  21.159  0.00  0.00    +0.000 C 
BRANCH  25  27
ATOM     26  C   UNL     1      -2.932  15.752  21.611  0.00  0.00    +0.000 C 
ATOM     27  O   UNL     1      -3.102  14.369  21.857  0.00  0.00    +0.000 OA
ENDBRANCH  25  27
ENDBRANCH  24  25
ENDBRANCH  23  24
ENDBRANCH   1  23
BRANCH  10  28
ATOM     28  O   UNL     1      -1.275  11.079  17.309  0.00  0.00    +0.000 OA
BRANCH  28  29
ATOM     29  C   UNL     1      -2.335  10.319  16.764  0.00  0.00    +0.000 C 
BRANCH  29  30
ATOM     30  C   UNL     1      -2.928  10.864  15.479  0.00  0.00    +0.000 C 
BRANCH  30  31
ATOM     31  O   UNL     1      -4.144  11.482  15.905  0.00  0.00    +0.000 OA
ATOM     32  C   UNL     1      -4.604  11.049  17.159  0.00  0.00    +0.000 C 
ENDBRANCH  30  31
ENDBRANCH  29  30
ENDBRANCH  28  29
ENDBRANCH  10  28
TORSDOF 9
ENDMDL
