MODEL 1
REMARK VINA RESULT:      -6.7      0.000      0.000
REMARK  Name = 
REMARK  5 active torsions:
REMARK  status: ('A' for Active; 'I' for Inactive)
REMARK    1  A    between atoms: C_1  and  S_2
REMARK    2  A    between atoms: S_2  and  C_3
REMARK    3  A    between atoms: N_5  and  C_6
REMARK    4  A    between atoms: C_12  and  C_13
REMARK    5  A    between atoms: N_14  and  C_15
REMARK                            x       y       z     vdW  Elec       q    Type
REMARK                         _______ _______ _______ _____ _____    ______ ____
ROOT
ATOM      1  C   UNL     1       6.654   4.942  17.978  0.00  0.00    +0.000 A 
ATOM      2  N   UNL     1       7.240   4.929  16.762  0.00  0.00    +0.000 NA
ATOM      3  N   UNL     1       6.348   4.465  15.901  0.00  0.00    +0.000 N 
ATOM      4  C   UNL     1       5.228   4.129  16.600  0.00  0.00    +0.000 A 
ATOM      5  C   UNL     1       3.985   3.506  15.999  0.00  0.00    +0.000 C 
ATOM      6  N   UNL     1       5.385   4.446  17.921  0.00  0.00    +0.000 N 
ENDROOT
BRANCH   3   7
ATOM      7  C   UNL     1       6.596   4.393  14.474  0.00  0.00    +0.000 A 
ATOM      8  C   UNL     1       7.532   5.261  13.878  0.00  0.00    +0.000 A 
ATOM      9  C   UNL     1       7.810   5.172  12.507  0.00  0.00    +0.000 A 
ATOM     10  C   UNL     1       7.147   4.232  11.714  0.00  0.00    +0.000 A 
ATOM     11  C   UNL     1       6.182   3.401  12.281  0.00  0.00    +0.000 A 
ATOM     12  C   UNL     1       5.900   3.489  13.642  0.00  0.00    +0.000 A 
ENDBRANCH   3   7
BRANCH   6  13
ATOM     13  C   UNL     1       4.396   4.345  18.990  0.00  0.00    +0.000 A 
ATOM     14  C   UNL     1       4.137   3.129  19.667  0.00  0.00    +0.000 A 
ATOM     15  C   UNL     1       3.135   3.025  20.630  0.00  0.00    +0.000 A 
ATOM     16  C   UNL     1       2.365   4.133  20.958  0.00  0.00    +0.000 A 
ATOM     17  C   UNL     1       2.608   5.354  20.330  0.00  0.00    +0.000 A 
ATOM     18  C   UNL     1       3.612   5.462  19.359  0.00  0.00    +0.000 A 
ENDBRANCH   6  13
BRANCH   1  20
ATOM     19  C   UNL     1       8.174   7.096  18.691  0.00  0.00    +0.000 C 
ATOM     20  S   UNL     1       7.500   5.581  19.442  0.00  0.00    +0.000 S 
ENDBRANCH   1  20
TORSDOF 3
ENDMDL
MODEL 2
REMARK VINA RESULT:      -6.6      0.110      1.087
REMARK  Name = 
REMARK  5 active torsions:
REMARK  status: ('A' for Active; 'I' for Inactive)
REMARK    1  A    between atoms: C_1  and  S_2
REMARK    2  A    between atoms: S_2  and  C_3
REMARK    3  A    between atoms: N_5  and  C_6
REMARK    4  A    between atoms: C_12  and  C_13
REMARK    5  A    between atoms: N_14  and  C_15
REMARK                            x       y       z     vdW  Elec       q    Type
REMARK                         _______ _______ _______ _____ _____    ______ ____
ROOT
ATOM      1  C   UNL     1       6.735   4.976  17.961  0.00  0.00    +0.000 A 
ATOM      2  N   UNL     1       7.332   4.954  16.750  0.00  0.00    +0.000 NA
ATOM      3  N   UNL     1       6.438   4.512  15.881  0.00  0.00    +0.000 N 
ATOM      4  C   UNL     1       5.304   4.199  16.568  0.00  0.00    +0.000 A 
ATOM      5  C   UNL     1       4.053   3.606  15.955  0.00  0.00    +0.000 C 
ATOM      6  N   UNL     1       5.456   4.509  17.891  0.00  0.00    +0.000 N 
ENDROOT
BRANCH   3   7
ATOM      7  C   UNL     1       6.697   4.438  14.456  0.00  0.00    +0.000 A 
ATOM      8  C   UNL     1       6.046   3.466  13.672  0.00  0.00    +0.000 A 
ATOM      9  C   UNL     1       6.257   3.413  12.287  0.00  0.00    +0.000 A 
ATOM     10  C   UNL     1       7.131   4.314  11.673  0.00  0.00    +0.000 A 
ATOM     11  C   UNL     1       7.820   5.248  12.444  0.00  0.00    +0.000 A 
ATOM     12  C   UNL     1       7.616   5.302  13.820  0.00  0.00    +0.000 A 
ENDBRANCH   3   7
BRANCH   6  13
ATOM     13  C   UNL     1       4.456   4.428  18.952  0.00  0.00    +0.000 A 
ATOM     14  C   UNL     1       4.176   3.220  19.635  0.00  0.00    +0.000 A 
ATOM     15  C   UNL     1       3.164   3.135  20.590  0.00  0.00    +0.000 A 
ATOM     16  C   UNL     1       2.404   4.254  20.901  0.00  0.00    +0.000 A 
ATOM     17  C   UNL     1       2.667   5.468  20.266  0.00  0.00    +0.000 A 
ATOM     18  C   UNL     1       3.681   5.556  19.305  0.00  0.00    +0.000 A 
ENDBRANCH   6  13
BRANCH   1  20
ATOM     19  C   UNL     1       8.190   7.158  18.729  0.00  0.00    +0.000 C 
ATOM     20  S   UNL     1       7.582   5.593  19.435  0.00  0.00    +0.000 S 
ENDBRANCH   1  20
TORSDOF 3
ENDMDL
MODEL 3
REMARK VINA RESULT:      -6.6      3.655      7.077
REMARK  Name = 
REMARK  5 active torsions:
REMARK  status: ('A' for Active; 'I' for Inactive)
REMARK    1  A    between atoms: C_1  and  S_2
REMARK    2  A    between atoms: S_2  and  C_3
REMARK    3  A    between atoms: N_5  and  C_6
REMARK    4  A    between atoms: C_12  and  C_13
REMARK    5  A    between atoms: N_14  and  C_15
REMARK                            x       y       z     vdW  Elec       q    Type
REMARK                         _______ _______ _______ _____ _____    ______ ____
ROOT
ATOM      1  C   UNL     1       3.469   6.579  18.023  0.00  0.00    +0.000 A 
ATOM      2  N   UNL     1       2.956   7.758  18.437  0.00  0.00    +0.000 NA
ATOM      3  N   UNL     1       2.134   7.497  19.441  0.00  0.00    +0.000 N 
ATOM      4  C   UNL     1       2.090   6.145  19.606  0.00  0.00    +0.000 A 
ATOM      5  C   UNL     1       1.224   5.422  20.616  0.00  0.00    +0.000 C 
ATOM      6  N   UNL     1       2.950   5.537  18.733  0.00  0.00    +0.000 N 
ENDROOT
BRANCH   3   7
ATOM      7  C   UNL     1       1.465   8.536  20.199  0.00  0.00    +0.000 A 
ATOM      8  C   UNL     1       0.869   9.622  19.530  0.00  0.00    +0.000 A 
ATOM      9  C   UNL     1       0.184  10.610  20.251  0.00  0.00    +0.000 A 
ATOM     10  C   UNL     1       0.101  10.536  21.644  0.00  0.00    +0.000 A 
ATOM     11  C   UNL     1       0.728   9.493  22.322  0.00  0.00    +0.000 A 
ATOM     12  C   UNL     1       1.414   8.512  21.611  0.00  0.00    +0.000 A 
ENDBRANCH   3   7
BRANCH   6  13
ATOM     13  C   UNL     1       3.282   4.118  18.644  0.00  0.00    +0.000 A 
ATOM     14  C   UNL     1       2.695   3.263  17.680  0.00  0.00    +0.000 A 
ATOM     15  C   UNL     1       2.959   1.895  17.656  0.00  0.00    +0.000 A 
ATOM     16  C   UNL     1       3.823   1.335  18.586  0.00  0.00    +0.000 A 
ATOM     17  C   UNL     1       4.441   2.149  19.535  0.00  0.00    +0.000 A 
ATOM     18  C   UNL     1       4.176   3.525  19.565  0.00  0.00    +0.000 A 
ENDBRANCH   6  13
BRANCH   1  20
ATOM     19  C   UNL     1       6.176   6.311  17.770  0.00  0.00    +0.000 C 
ATOM     20  S   UNL     1       4.706   6.482  16.709  0.00  0.00    +0.000 S 
ENDBRANCH   1  20
TORSDOF 3
ENDMDL
MODEL 4
REMARK VINA RESULT:      -6.6      2.975      7.170
REMARK  Name = 
REMARK  5 active torsions:
REMARK  status: ('A' for Active; 'I' for Inactive)
REMARK    1  A    between atoms: C_1  and  S_2
REMARK    2  A    between atoms: S_2  and  C_3
REMARK    3  A    between atoms: N_5  and  C_6
REMARK    4  A    between atoms: C_12  and  C_13
REMARK    5  A    between atoms: N_14  and  C_15
REMARK                            x       y       z     vdW  Elec       q    Type
REMARK                         _______ _______ _______ _____ _____    ______ ____
ROOT
ATOM      1  C   UNL     1       3.483   4.765  19.466  0.00  0.00    +0.000 A 
ATOM      2  N   UNL     1       2.616   5.554  20.137  0.00  0.00    +0.000 NA
ATOM      3  N   UNL     1       2.600   6.728  19.526  0.00  0.00    +0.000 N 
ATOM      4  C   UNL     1       3.509   6.684  18.512  0.00  0.00    +0.000 A 
ATOM      5  C   UNL     1       3.843   7.843  17.596  0.00  0.00    +0.000 C 
ATOM      6  N   UNL     1       4.067   5.439  18.434  0.00  0.00    +0.000 N 
ENDROOT
BRANCH   3   7
ATOM      7  C   UNL     1       1.711   7.805  19.916  0.00  0.00    +0.000 A 
ATOM      8  C   UNL     1       1.138   7.813  21.202  0.00  0.00    +0.000 A 
ATOM      9  C   UNL     1       0.311   8.871  21.605  0.00  0.00    +0.000 A 
ATOM     10  C   UNL     1       0.032   9.920  20.725  0.00  0.00    +0.000 A 
ATOM     11  C   UNL     1       0.553   9.900  19.432  0.00  0.00    +0.000 A 
ATOM     12  C   UNL     1       1.371   8.849  19.027  0.00  0.00    +0.000 A 
ENDBRANCH   3   7
BRANCH   6  13
ATOM     13  C   UNL     1       5.006   4.938  17.435  0.00  0.00    +0.000 A 
ATOM     14  C   UNL     1       6.404   4.913  17.657  0.00  0.00    +0.000 A 
ATOM     15  C   UNL     1       7.297   4.507  16.666  0.00  0.00    +0.000 A 
ATOM     16  C   UNL     1       6.825   4.105  15.424  0.00  0.00    +0.000 A 
ATOM     17  C   UNL     1       5.452   4.093  15.177  0.00  0.00    +0.000 A 
ATOM     18  C   UNL     1       4.552   4.502  16.169  0.00  0.00    +0.000 A 
ENDBRANCH   6  13
BRANCH   1  20
ATOM     19  C   UNL     1       2.474   2.921  21.211  0.00  0.00    +0.000 C 
ATOM     20  S   UNL     1       3.755   3.037  19.922  0.00  0.00    +0.000 S 
ENDBRANCH   1  20
TORSDOF 3
ENDMDL
MODEL 5
REMARK VINA RESULT:      -6.5      3.642      7.046
REMARK  Name = 
REMARK  5 active torsions:
REMARK  status: ('A' for Active; 'I' for Inactive)
REMARK    1  A    between atoms: C_1  and  S_2
REMARK    2  A    between atoms: S_2  and  C_3
REMARK    3  A    between atoms: N_5  and  C_6
REMARK    4  A    between atoms: C_12  and  C_13
REMARK    5  A    between atoms: N_14  and  C_15
REMARK                            x       y       z     vdW  Elec       q    Type
REMARK                         _______ _______ _______ _____ _____    ______ ____
ROOT
ATOM      1  C   UNL     1       3.504   6.561  17.989  0.00  0.00    +0.000 A 
ATOM      2  N   UNL     1       2.992   7.747  18.380  0.00  0.00    +0.000 NA
ATOM      3  N   UNL     1       2.157   7.504  19.378  0.00  0.00    +0.000 N 
ATOM      4  C   UNL     1       2.104   6.155  19.560  0.00  0.00    +0.000 A 
ATOM      5  C   UNL     1       1.222   5.449  20.569  0.00  0.00    +0.000 C 
ATOM      6  N   UNL     1       2.971   5.531  18.707  0.00  0.00    +0.000 N 
ENDROOT
BRANCH   3   7
ATOM      7  C   UNL     1       1.483   8.556  20.114  0.00  0.00    +0.000 A 
ATOM      8  C   UNL     1       1.385   8.481  21.517  0.00  0.00    +0.000 A 
ATOM      9  C   UNL     1       0.773   9.513  22.242  0.00  0.00    +0.000 A 
ATOM     10  C   UNL     1       0.237  10.619  21.577  0.00  0.00    +0.000 A 
ATOM     11  C   UNL     1       0.283  10.682  20.185  0.00  0.00    +0.000 A 
ATOM     12  C   UNL     1       0.886   9.657  19.460  0.00  0.00    +0.000 A 
ENDBRANCH   3   7
BRANCH   6  13
ATOM     13  C   UNL     1       3.298   4.110  18.641  0.00  0.00    +0.000 A 
ATOM     14  C   UNL     1       2.721   3.245  17.679  0.00  0.00    +0.000 A 
ATOM     15  C   UNL     1       2.979   1.876  17.677  0.00  0.00    +0.000 A 
ATOM     16  C   UNL     1       3.826   1.323  18.627  0.00  0.00    +0.000 A 
ATOM     17  C   UNL     1       4.433   2.147  19.575  0.00  0.00    +0.000 A 
ATOM     18  C   UNL     1       4.174   3.524  19.582  0.00  0.00    +0.000 A 
ENDBRANCH   6  13
BRANCH   1  20
ATOM     19  C   UNL     1       6.213   6.284  17.773  0.00  0.00    +0.000 C 
ATOM     20  S   UNL     1       4.757   6.440  16.691  0.00  0.00    +0.000 S 
ENDBRANCH   1  20
TORSDOF 3
ENDMDL
MODEL 6
REMARK VINA RESULT:      -6.5      3.090      7.174
REMARK  Name = 
REMARK  5 active torsions:
REMARK  status: ('A' for Active; 'I' for Inactive)
REMARK    1  A    between atoms: C_1  and  S_2
REMARK    2  A    between atoms: S_2  and  C_3
REMARK    3  A    between atoms: N_5  and  C_6
REMARK    4  A    between atoms: C_12  and  C_13
REMARK    5  A    between atoms: N_14  and  C_15
REMARK                            x       y       z     vdW  Elec       q    Type
REMARK                         _______ _______ _______ _____ _____    ______ ____
ROOT
ATOM      1  C   UNL     1       3.322   4.848  19.556  0.00  0.00    +0.000 A 
ATOM      2  N   UNL     1       2.450   5.667  20.183  0.00  0.00    +0.000 NA
ATOM      3  N   UNL     1       2.491   6.833  19.559  0.00  0.00    +0.000 N 
ATOM      4  C   UNL     1       3.438   6.754  18.583  0.00  0.00    +0.000 A 
ATOM      5  C   UNL     1       3.840   7.893  17.669  0.00  0.00    +0.000 C 
ATOM      6  N   UNL     1       3.965   5.493  18.541  0.00  0.00    +0.000 N 
ENDROOT
BRANCH   3   7
ATOM      7  C   UNL     1       1.617   7.939  19.901  0.00  0.00    +0.000 A 
ATOM      8  C   UNL     1       1.308   8.917  18.937  0.00  0.00    +0.000 A 
ATOM      9  C   UNL     1       0.431   9.966  19.245  0.00  0.00    +0.000 A 
ATOM     10  C   UNL     1      -0.132  10.062  20.520  0.00  0.00    +0.000 A 
ATOM     11  C   UNL     1       0.204   9.129  21.499  0.00  0.00    +0.000 A 
ATOM     12  C   UNL     1       1.078   8.087  21.199  0.00  0.00    +0.000 A 
ENDBRANCH   3   7
BRANCH   6  13
ATOM     13  C   UNL     1       4.929   4.956  17.585  0.00  0.00    +0.000 A 
ATOM     14  C   UNL     1       6.324   4.969  17.831  0.00  0.00    +0.000 A 
ATOM     15  C   UNL     1       7.240   4.527  16.877  0.00  0.00    +0.000 A 
ATOM     16  C   UNL     1       6.796   4.049  15.653  0.00  0.00    +0.000 A 
ATOM     17  C   UNL     1       5.428   3.997  15.385  0.00  0.00    +0.000 A 
ATOM     18  C   UNL     1       4.505   4.443  16.339  0.00  0.00    +0.000 A 
ENDBRANCH   6  13
BRANCH   1  20
ATOM     19  C   UNL     1       2.312   3.098  21.395  0.00  0.00    +0.000 C 
ATOM     20  S   UNL     1       3.528   3.118  20.040  0.00  0.00    +0.000 S 
ENDBRANCH   1  20
TORSDOF 3
ENDMDL
MODEL 7
REMARK VINA RESULT:      -6.5      4.245      7.926
REMARK  Name = 
REMARK  5 active torsions:
REMARK  status: ('A' for Active; 'I' for Inactive)
REMARK    1  A    between atoms: C_1  and  S_2
REMARK    2  A    between atoms: S_2  and  C_3
REMARK    3  A    between atoms: N_5  and  C_6
REMARK    4  A    between atoms: C_12  and  C_13
REMARK    5  A    between atoms: N_14  and  C_15
REMARK                            x       y       z     vdW  Elec       q    Type
REMARK                         _______ _______ _______ _____ _____    ______ ____
ROOT
ATOM      1  C   UNL     1       2.129   6.101  20.351  0.00  0.00    +0.000 A 
ATOM      2  N   UNL     1       1.405   7.109  20.883  0.00  0.00    +0.000 NA
ATOM      3  N   UNL     1       1.449   8.118  20.026  0.00  0.00    +0.000 N 
ATOM      4  C   UNL     1       2.257   7.754  18.992  0.00  0.00    +0.000 A 
ATOM      5  C   UNL     1       2.621   8.642  17.820  0.00  0.00    +0.000 C 
ATOM      6  N   UNL     1       2.683   6.465  19.159  0.00  0.00    +0.000 N 
ENDROOT
BRANCH   3   7
ATOM      7  C   UNL     1       0.707   9.348  20.222  0.00  0.00    +0.000 A 
ATOM      8  C   UNL     1      -0.136   9.831  19.202  0.00  0.00    +0.000 A 
ATOM      9  C   UNL     1      -0.890  10.996  19.397  0.00  0.00    +0.000 A 
ATOM     10  C   UNL     1      -0.797  11.703  20.599  0.00  0.00    +0.000 A 
ATOM     11  C   UNL     1       0.071  11.264  21.597  0.00  0.00    +0.000 A 
ATOM     12  C   UNL     1       0.825  10.109  21.407  0.00  0.00    +0.000 A 
ENDBRANCH   3   7
BRANCH   6  13
ATOM     13  C   UNL     1       3.477   5.656  18.239  0.00  0.00    +0.000 A 
ATOM     14  C   UNL     1       2.940   4.532  17.565  0.00  0.00    +0.000 A 
ATOM     15  C   UNL     1       3.729   3.720  16.751  0.00  0.00    +0.000 A 
ATOM     16  C   UNL     1       5.075   4.007  16.575  0.00  0.00    +0.000 A 
ATOM     17  C   UNL     1       5.633   5.120  17.203  0.00  0.00    +0.000 A 
ATOM     18  C   UNL     1       4.845   5.937  18.023  0.00  0.00    +0.000 A 
ENDBRANCH   6  13
BRANCH   1  20
ATOM     19  C   UNL     1       0.844   3.691  20.365  0.00  0.00    +0.000 C 
ATOM     20  S   UNL     1       2.271   4.493  21.164  0.00  0.00    +0.000 S 
ENDBRANCH   1  20
TORSDOF 3
ENDMDL
MODEL 8
REMARK VINA RESULT:      -6.5      2.021      2.784
REMARK  Name = 
REMARK  5 active torsions:
REMARK  status: ('A' for Active; 'I' for Inactive)
REMARK    1  A    between atoms: C_1  and  S_2
REMARK    2  A    between atoms: S_2  and  C_3
REMARK    3  A    between atoms: N_5  and  C_6
REMARK    4  A    between atoms: C_12  and  C_13
REMARK    5  A    between atoms: N_14  and  C_15
REMARK                            x       y       z     vdW  Elec       q    Type
REMARK                         _______ _______ _______ _____ _____    ______ ____
ROOT
ATOM      1  C   UNL     1       3.668   5.791  18.039  0.00  0.00    +0.000 A 
ATOM      2  N   UNL     1       4.437   5.997  16.949  0.00  0.00    +0.000 NA
ATOM      3  N   UNL     1       4.773   4.807  16.476  0.00  0.00    +0.000 N 
ATOM      4  C   UNL     1       4.262   3.863  17.315  0.00  0.00    +0.000 A 
ATOM      5  C   UNL     1       4.463   2.369  17.166  0.00  0.00    +0.000 C 
ATOM      6  N   UNL     1       3.531   4.460  18.305  0.00  0.00    +0.000 N 
ENDROOT
BRANCH   3   7
ATOM      7  C   UNL     1       5.528   4.633  15.250  0.00  0.00    +0.000 A 
ATOM      8  C   UNL     1       4.951   3.955  14.158  0.00  0.00    +0.000 A 
ATOM      9  C   UNL     1       5.657   3.818  12.955  0.00  0.00    +0.000 A 
ATOM     10  C   UNL     1       6.949   4.336  12.833  0.00  0.00    +0.000 A 
ATOM     11  C   UNL     1       7.551   4.965  13.922  0.00  0.00    +0.000 A 
ATOM     12  C   UNL     1       6.855   5.100  15.121  0.00  0.00    +0.000 A 
ENDBRANCH   3   7
BRANCH   6  13
ATOM     13  C   UNL     1       2.737   3.815  19.346  0.00  0.00    +0.000 A 
ATOM     14  C   UNL     1       1.326   3.718  19.269  0.00  0.00    +0.000 A 
ATOM     15  C   UNL     1       0.571   3.173  20.305  0.00  0.00    +0.000 A 
ATOM     16  C   UNL     1       1.197   2.698  21.449  0.00  0.00    +0.000 A 
ATOM     17  C   UNL     1       2.587   2.754  21.551  0.00  0.00    +0.000 A 
ATOM     18  C   UNL     1       3.349   3.304  20.512  0.00  0.00    +0.000 A 
ENDBRANCH   6  13
BRANCH   1  20
ATOM     19  C   UNL     1       2.519   8.217  17.531  0.00  0.00    +0.000 C 
ATOM     20  S   UNL     1       2.923   7.159  18.957  0.00  0.00    +0.000 S 
ENDBRANCH   1  20
TORSDOF 3
ENDMDL
MODEL 9
REMARK VINA RESULT:      -6.5      4.266      7.966
REMARK  Name = 
REMARK  5 active torsions:
REMARK  status: ('A' for Active; 'I' for Inactive)
REMARK    1  A    between atoms: C_1  and  S_2
REMARK    2  A    between atoms: S_2  and  C_3
REMARK    3  A    between atoms: N_5  and  C_6
REMARK    4  A    between atoms: C_12  and  C_13
REMARK    5  A    between atoms: N_14  and  C_15
REMARK                            x       y       z     vdW  Elec       q    Type
REMARK                         _______ _______ _______ _____ _____    ______ ____
ROOT
ATOM      1  C   UNL     1       2.139   6.130  20.331  0.00  0.00    +0.000 A 
ATOM      2  N   UNL     1       1.397   7.107  20.895  0.00  0.00    +0.000 NA
ATOM      3  N   UNL     1       1.399   8.133  20.058  0.00  0.00    +0.000 N 
ATOM      4  C   UNL     1       2.198   7.811  19.003  0.00  0.00    +0.000 A 
ATOM      5  C   UNL     1       2.516   8.732  17.844  0.00  0.00    +0.000 C 
ATOM      6  N   UNL     1       2.662   6.532  19.138  0.00  0.00    +0.000 N 
ENDROOT
BRANCH   3   7
ATOM      7  C   UNL     1       0.627   9.338  20.291  0.00  0.00    +0.000 A 
ATOM      8  C   UNL     1       0.608   9.926  21.571  0.00  0.00    +0.000 A 
ATOM      9  C   UNL     1      -0.101  11.114  21.796  0.00  0.00    +0.000 A 
ATOM     10  C   UNL     1      -0.813  11.717  20.756  0.00  0.00    +0.000 A 
ATOM     11  C   UNL     1      -0.844  11.119  19.498  0.00  0.00    +0.000 A 
ATOM     12  C   UNL     1      -0.145   9.937  19.270  0.00  0.00    +0.000 A 
ENDBRANCH   3   7
BRANCH   6  13
ATOM     13  C   UNL     1       3.462   5.764  18.188  0.00  0.00    +0.000 A 
ATOM     14  C   UNL     1       2.976   4.585  17.571  0.00  0.00    +0.000 A 
ATOM     15  C   UNL     1       3.777   3.816  16.729  0.00  0.00    +0.000 A 
ATOM     16  C   UNL     1       5.084   4.201  16.465  0.00  0.00    +0.000 A 
ATOM     17  C   UNL     1       5.589   5.370  17.035  0.00  0.00    +0.000 A 
ATOM     18  C   UNL     1       4.789   6.144  17.884  0.00  0.00    +0.000 A 
ENDBRANCH   6  13
BRANCH   1  20
ATOM     19  C   UNL     1       0.875   3.708  20.379  0.00  0.00    +0.000 C 
ATOM     20  S   UNL     1       2.338   4.510  21.109  0.00  0.00    +0.000 S 
ENDBRANCH   1  20
TORSDOF 3
ENDMDL
