MODEL 1
REMARK VINA RESULT:      -6.1      0.000      0.000
REMARK  Name = 
REMARK  3 active torsions:
REMARK  status: ('A' for Active; 'I' for Inactive)
REMARK    1  A    between atoms: N_2  and  N_3
REMARK    2  A    between atoms: C_6  and  O_7
REMARK    3  A    between atoms: C_8  and  C_9
REMARK                            x       y       z     vdW  Elec       q    Type
REMARK                         _______ _______ _______ _____ _____    ______ ____
ROOT
ATOM      1  N   UNL     1       6.569   5.730  18.891  0.00  0.00    +0.000 N 
ATOM      2  C   UNL     1       7.693   6.542  18.418  0.00  0.00    +0.000 C 
ATOM      3  C   UNL     1       7.251   6.973  17.037  0.00  0.00    +0.000 C 
ATOM      4  C   UNL     1       6.632   5.704  16.476  0.00  0.00    +0.000 C 
ATOM      5  C   UNL     1       6.065   4.955  17.717  0.00  0.00    +0.000 C 
ENDROOT
BRANCH   5   6
ATOM      6  C   UNL     1       4.560   4.784  17.697  0.00  0.00    +0.000 A 
ATOM      7  C   UNL     1       3.664   5.766  18.140  0.00  0.00    +0.000 A 
ATOM      8  C   UNL     1       2.294   5.521  18.109  0.00  0.00    +0.000 A 
ATOM      9  C   UNL     1       1.855   4.303  17.621  0.00  0.00    +0.000 A 
ATOM     10  N   UNL     1       2.679   3.341  17.159  0.00  0.00    +0.000 NA
ATOM     11  C   UNL     1       4.006   3.602  17.208  0.00  0.00    +0.000 A 
ENDBRANCH   5   6
BRANCH   1  13
ATOM     12  O   UNL     1       7.988   5.306  20.391  0.00  0.00    +0.000 OA
ATOM     13  N   UNL     1       6.857   5.043  19.974  0.00  0.00    +0.000 NA
ENDBRANCH   1  13
BRANCH   4  14
ATOM     14  O   UNL     1       5.724   6.017  15.431  0.00  0.00    +0.000 OA
ATOM     15  H   UNL     1       6.093   6.746  14.901  0.00  0.00    +0.000 HD
ENDBRANCH   4  14
TORSDOF 3
ENDMDL
MODEL 2
REMARK VINA RESULT:      -6.1      2.930      5.084
REMARK  Name = 
REMARK  3 active torsions:
REMARK  status: ('A' for Active; 'I' for Inactive)
REMARK    1  A    between atoms: N_2  and  N_3
REMARK    2  A    between atoms: C_6  and  O_7
REMARK    3  A    between atoms: C_8  and  C_9
REMARK                            x       y       z     vdW  Elec       q    Type
REMARK                         _______ _______ _______ _____ _____    ______ ____
ROOT
ATOM      1  N   UNL     1       1.909   3.423  18.854  0.00  0.00    +0.000 N 
ATOM      2  C   UNL     1       1.833   2.683  20.117  0.00  0.00    +0.000 C 
ATOM      3  C   UNL     1       3.251   2.746  20.640  0.00  0.00    +0.000 C 
ATOM      4  C   UNL     1       4.077   2.501  19.388  0.00  0.00    +0.000 C 
ATOM      5  C   UNL     1       3.221   3.082  18.226  0.00  0.00    +0.000 C 
ENDROOT
BRANCH   5   6
ATOM      6  C   UNL     1       3.874   4.242  17.503  0.00  0.00    +0.000 A 
ATOM      7  C   UNL     1       4.722   4.086  16.399  0.00  0.00    +0.000 A 
ATOM      8  C   UNL     1       5.301   5.204  15.804  0.00  0.00    +0.000 A 
ATOM      9  C   UNL     1       5.005   6.452  16.323  0.00  0.00    +0.000 A 
ATOM     10  N   UNL     1       4.174   6.650  17.366  0.00  0.00    +0.000 NA
ATOM     11  C   UNL     1       3.631   5.547  17.930  0.00  0.00    +0.000 A 
ENDBRANCH   5   6
BRANCH   1  13
ATOM     12  O   UNL     1       0.227   2.238  18.397  0.00  0.00    +0.000 OA
ATOM     13  N   UNL     1       0.838   3.271  18.108  0.00  0.00    +0.000 NA
ENDBRANCH   1  13
BRANCH   4  14
ATOM     14  O   UNL     1       5.389   3.015  19.554  0.00  0.00    +0.000 OA
ATOM     15  H   UNL     1       5.523   3.241  20.492  0.00  0.00    +0.000 HD
ENDBRANCH   4  14
TORSDOF 3
ENDMDL
MODEL 3
REMARK VINA RESULT:      -6.1      0.959      1.040
REMARK  Name = 
REMARK  3 active torsions:
REMARK  status: ('A' for Active; 'I' for Inactive)
REMARK    1  A    between atoms: N_2  and  N_3
REMARK    2  A    between atoms: C_6  and  O_7
REMARK    3  A    between atoms: C_8  and  C_9
REMARK                            x       y       z     vdW  Elec       q    Type
REMARK                         _______ _______ _______ _____ _____    ______ ____
ROOT
ATOM      1  N   UNL     1       6.211   5.443  18.541  0.00  0.00    +0.000 N 
ATOM      2  C   UNL     1       7.328   6.005  17.777  0.00  0.00    +0.000 C 
ATOM      3  C   UNL     1       6.905   5.794  16.341  0.00  0.00    +0.000 C 
ATOM      4  C   UNL     1       6.322   4.392  16.369  0.00  0.00    +0.000 C 
ATOM      5  C   UNL     1       5.746   4.229  17.805  0.00  0.00    +0.000 C 
ENDROOT
BRANCH   5   6
ATOM      6  C   UNL     1       4.244   4.026  17.845  0.00  0.00    +0.000 A 
ATOM      7  C   UNL     1       3.322   5.080  17.834  0.00  0.00    +0.000 A 
ATOM      8  C   UNL     1       1.957   4.810  17.896  0.00  0.00    +0.000 A 
ATOM      9  C   UNL     1       1.551   3.488  17.952  0.00  0.00    +0.000 A 
ATOM     10  N   UNL     1       2.402   2.443  17.937  0.00  0.00    +0.000 NA
ATOM     11  C   UNL     1       3.723   2.734  17.885  0.00  0.00    +0.000 A 
ENDBRANCH   5   6
BRANCH   1  13
ATOM     12  O   UNL     1       7.703   5.367  20.028  0.00  0.00    +0.000 OA
ATOM     13  N   UNL     1       6.489   5.291  19.817  0.00  0.00    +0.000 NA
ENDBRANCH   1  13
BRANCH   4  14
ATOM     14  O   UNL     1       5.430   4.205  15.281  0.00  0.00    +0.000 OA
ATOM     15  H   UNL     1       5.939   3.920  14.501  0.00  0.00    +0.000 HD
ENDBRANCH   4  14
TORSDOF 3
ENDMDL
MODEL 4
REMARK VINA RESULT:      -6.0      0.754      1.283
REMARK  Name = 
REMARK  3 active torsions:
REMARK  status: ('A' for Active; 'I' for Inactive)
REMARK    1  A    between atoms: N_2  and  N_3
REMARK    2  A    between atoms: C_6  and  O_7
REMARK    3  A    between atoms: C_8  and  C_9
REMARK                            x       y       z     vdW  Elec       q    Type
REMARK                         _______ _______ _______ _____ _____    ______ ____
ROOT
ATOM      1  N   UNL     1       6.558   5.731  18.875  0.00  0.00    +0.000 N 
ATOM      2  C   UNL     1       7.658   6.573  18.395  0.00  0.00    +0.000 C 
ATOM      3  C   UNL     1       7.196   6.991  17.017  0.00  0.00    +0.000 C 
ATOM      4  C   UNL     1       6.608   5.706  16.460  0.00  0.00    +0.000 C 
ATOM      5  C   UNL     1       6.069   4.943  17.705  0.00  0.00    +0.000 C 
ENDROOT
BRANCH   5   6
ATOM      6  C   UNL     1       4.568   4.731  17.692  0.00  0.00    +0.000 A 
ATOM      7  C   UNL     1       3.958   3.550  17.253  0.00  0.00    +0.000 A 
ATOM      8  C   UNL     1       2.570   3.444  17.251  0.00  0.00    +0.000 A 
ATOM      9  C   UNL     1       1.828   4.521  17.705  0.00  0.00    +0.000 A 
ATOM     10  N   UNL     1       2.374   5.665  18.162  0.00  0.00    +0.000 NA
ATOM     11  C   UNL     1       3.725   5.745  18.145  0.00  0.00    +0.000 A 
ENDBRANCH   5   6
BRANCH   1  13
ATOM     12  O   UNL     1       7.986   5.364  20.382  0.00  0.00    +0.000 OA
ATOM     13  N   UNL     1       6.870   5.053  19.957  0.00  0.00    +0.000 NA
ENDBRANCH   1  13
BRANCH   4  14
ATOM     14  O   UNL     1       5.687   5.993  15.420  0.00  0.00    +0.000 OA
ATOM     15  H   UNL     1       4.785   5.806  15.738  0.00  0.00    +0.000 HD
ENDBRANCH   4  14
TORSDOF 3
ENDMDL
MODEL 5
REMARK VINA RESULT:      -6.0      2.976      4.970
REMARK  Name = 
REMARK  3 active torsions:
REMARK  status: ('A' for Active; 'I' for Inactive)
REMARK    1  A    between atoms: N_2  and  N_3
REMARK    2  A    between atoms: C_6  and  O_7
REMARK    3  A    between atoms: C_8  and  C_9
REMARK                            x       y       z     vdW  Elec       q    Type
REMARK                         _______ _______ _______ _____ _____    ______ ____
ROOT
ATOM      1  N   UNL     1       1.880   3.367  18.903  0.00  0.00    +0.000 N 
ATOM      2  C   UNL     1       1.815   2.575  20.134  0.00  0.00    +0.000 C 
ATOM      3  C   UNL     1       3.229   2.649  20.668  0.00  0.00    +0.000 C 
ATOM      4  C   UNL     1       4.066   2.473  19.413  0.00  0.00    +0.000 C 
ATOM      5  C   UNL     1       3.203   3.080  18.270  0.00  0.00    +0.000 C 
ENDROOT
BRANCH   5   6
ATOM      6  C   UNL     1       3.833   4.283  17.597  0.00  0.00    +0.000 A 
ATOM      7  C   UNL     1       3.642   5.601  18.032  0.00  0.00    +0.000 A 
ATOM      8  C   UNL     1       4.239   6.653  17.344  0.00  0.00    +0.000 A 
ATOM      9  C   UNL     1       5.026   6.358  16.245  0.00  0.00    +0.000 A 
ATOM     10  N   UNL     1       5.259   5.104  15.808  0.00  0.00    +0.000 NA
ATOM     11  C   UNL     1       4.660   4.100  16.489  0.00  0.00    +0.000 A 
ENDBRANCH   5   6
BRANCH   1  13
ATOM     12  O   UNL     1       0.225   2.166  18.393  0.00  0.00    +0.000 OA
ATOM     13  N   UNL     1       0.817   3.220  18.145  0.00  0.00    +0.000 NA
ENDBRANCH   1  13
BRANCH   4  14
ATOM     14  O   UNL     1       5.366   3.010  19.607  0.00  0.00    +0.000 OA
ATOM     15  H   UNL     1       5.290   3.844  20.105  0.00  0.00    +0.000 HD
ENDBRANCH   4  14
TORSDOF 3
ENDMDL
MODEL 6
REMARK VINA RESULT:      -6.0      2.511      4.911
REMARK  Name = 
REMARK  3 active torsions:
REMARK  status: ('A' for Active; 'I' for Inactive)
REMARK    1  A    between atoms: N_2  and  N_3
REMARK    2  A    between atoms: C_6  and  O_7
REMARK    3  A    between atoms: C_8  and  C_9
REMARK                            x       y       z     vdW  Elec       q    Type
REMARK                         _______ _______ _______ _____ _____    ______ ____
ROOT
ATOM      1  N   UNL     1       2.557   4.503  18.518  0.00  0.00    +0.000 N 
ATOM      2  C   UNL     1       1.547   3.614  19.101  0.00  0.00    +0.000 C 
ATOM      3  C   UNL     1       2.266   2.287  19.191  0.00  0.00    +0.000 C 
ATOM      4  C   UNL     1       3.008   2.221  17.867  0.00  0.00    +0.000 C 
ATOM      5  C   UNL     1       3.309   3.704  17.504  0.00  0.00    +0.000 C 
ENDROOT
BRANCH   5   6
ATOM      6  C   UNL     1       4.787   4.032  17.439  0.00  0.00    +0.000 A 
ATOM      7  C   UNL     1       5.518   4.070  16.245  0.00  0.00    +0.000 A 
ATOM      8  C   UNL     1       6.880   4.358  16.273  0.00  0.00    +0.000 A 
ATOM      9  C   UNL     1       7.472   4.615  17.497  0.00  0.00    +0.000 A 
ATOM     10  N   UNL     1       6.802   4.616  18.667  0.00  0.00    +0.000 NA
ATOM     11  C   UNL     1       5.481   4.325  18.612  0.00  0.00    +0.000 A 
ENDBRANCH   5   6
BRANCH   1  13
ATOM     12  O   UNL     1       2.578   6.603  18.701  0.00  0.00    +0.000 OA
ATOM     13  N   UNL     1       2.056   5.649  18.116  0.00  0.00    +0.000 NA
ENDBRANCH   1  13
BRANCH   4  14
ATOM     14  O   UNL     1       4.112   1.334  17.962  0.00  0.00    +0.000 OA
ATOM     15  H   UNL     1       4.792   1.609  17.321  0.00  0.00    +0.000 HD
ENDBRANCH   4  14
TORSDOF 3
ENDMDL
MODEL 7
REMARK VINA RESULT:      -6.0      2.320      2.521
REMARK  Name = 
REMARK  3 active torsions:
REMARK  status: ('A' for Active; 'I' for Inactive)
REMARK    1  A    between atoms: N_2  and  N_3
REMARK    2  A    between atoms: C_6  and  O_7
REMARK    3  A    between atoms: C_8  and  C_9
REMARK                            x       y       z     vdW  Elec       q    Type
REMARK                         _______ _______ _______ _____ _____    ______ ____
ROOT
ATOM      1  N   UNL     1       5.938   5.378  18.842  0.00  0.00    +0.000 N 
ATOM      2  C   UNL     1       6.397   5.760  17.503  0.00  0.00    +0.000 C 
ATOM      3  C   UNL     1       5.234   5.374  16.616  0.00  0.00    +0.000 C 
ATOM      4  C   UNL     1       4.819   4.026  17.182  0.00  0.00    +0.000 C 
ATOM      5  C   UNL     1       5.175   4.102  18.695  0.00  0.00    +0.000 C 
ENDROOT
BRANCH   5   6
ATOM      6  C   UNL     1       3.975   3.996  19.614  0.00  0.00    +0.000 A 
ATOM      7  C   UNL     1       3.148   5.080  19.933  0.00  0.00    +0.000 A 
ATOM      8  C   UNL     1       2.077   4.904  20.805  0.00  0.00    +0.000 A 
ATOM      9  C   UNL     1       1.853   3.640  21.324  0.00  0.00    +0.000 A 
ATOM     10  N   UNL     1       2.607   2.564  21.023  0.00  0.00    +0.000 NA
ATOM     11  C   UNL     1       3.646   2.765  20.180  0.00  0.00    +0.000 A 
ENDBRANCH   5   6
BRANCH   1  13
ATOM     12  O   UNL     1       7.990   5.096  19.233  0.00  0.00    +0.000 OA
ATOM     13  N   UNL     1       6.902   5.392  19.735  0.00  0.00    +0.000 NA
ENDBRANCH   1  13
BRANCH   4  14
ATOM     14  O   UNL     1       3.471   3.741  16.841  0.00  0.00    +0.000 OA
ATOM     15  H   UNL     1       3.105   4.497  16.347  0.00  0.00    +0.000 HD
ENDBRANCH   4  14
TORSDOF 3
ENDMDL
MODEL 8
REMARK VINA RESULT:      -6.0      2.338      4.236
REMARK  Name = 
REMARK  3 active torsions:
REMARK  status: ('A' for Active; 'I' for Inactive)
REMARK    1  A    between atoms: N_2  and  N_3
REMARK    2  A    between atoms: C_6  and  O_7
REMARK    3  A    between atoms: C_8  and  C_9
REMARK                            x       y       z     vdW  Elec       q    Type
REMARK                         _______ _______ _______ _____ _____    ______ ____
ROOT
ATOM      1  N   UNL     1       3.626   3.116  18.816  0.00  0.00    +0.000 N 
ATOM      2  C   UNL     1       2.421   3.571  19.515  0.00  0.00    +0.000 C 
ATOM      3  C   UNL     1       2.262   4.997  19.035  0.00  0.00    +0.000 C 
ATOM      4  C   UNL     1       3.688   5.518  19.065  0.00  0.00    +0.000 C 
ATOM      5  C   UNL     1       4.574   4.270  18.783  0.00  0.00    +0.000 C 
ENDROOT
BRANCH   5   6
ATOM      6  C   UNL     1       5.380   4.365  17.503  0.00  0.00    +0.000 A 
ATOM      7  C   UNL     1       4.832   4.167  16.229  0.00  0.00    +0.000 A 
ATOM      8  C   UNL     1       5.646   4.249  15.103  0.00  0.00    +0.000 A 
ATOM      9  C   UNL     1       6.987   4.544  15.280  0.00  0.00    +0.000 A 
ATOM     10  N   UNL     1       7.549   4.770  16.485  0.00  0.00    +0.000 NA
ATOM     11  C   UNL     1       6.738   4.675  17.563  0.00  0.00    +0.000 A 
ENDBRANCH   5   6
BRANCH   1  13
ATOM     12  O   UNL     1       4.880   2.165  20.219  0.00  0.00    +0.000 OA
ATOM     13  N   UNL     1       4.091   1.981  19.287  0.00  0.00    +0.000 NA
ENDBRANCH   1  13
BRANCH   4  14
ATOM     14  O   UNL     1       3.827   6.629  18.192  0.00  0.00    +0.000 OA
ATOM     15  H   UNL     1       3.196   6.531  17.457  0.00  0.00    +0.000 HD
ENDBRANCH   4  14
TORSDOF 3
ENDMDL
MODEL 9
REMARK VINA RESULT:      -5.9      2.752      4.480
REMARK  Name = 
REMARK  3 active torsions:
REMARK  status: ('A' for Active; 'I' for Inactive)
REMARK    1  A    between atoms: N_2  and  N_3
REMARK    2  A    between atoms: C_6  and  O_7
REMARK    3  A    between atoms: C_8  and  C_9
REMARK                            x       y       z     vdW  Elec       q    Type
REMARK                         _______ _______ _______ _____ _____    ______ ____
ROOT
ATOM      1  N   UNL     1       3.886   2.780  19.128  0.00  0.00    +0.000 N 
ATOM      2  C   UNL     1       2.739   1.975  19.555  0.00  0.00    +0.000 C 
ATOM      3  C   UNL     1       1.658   2.364  18.571  0.00  0.00    +0.000 C 
ATOM      4  C   UNL     1       1.834   3.869  18.463  0.00  0.00    +0.000 C 
ATOM      5  C   UNL     1       3.353   4.110  18.705  0.00  0.00    +0.000 C 
ENDROOT
BRANCH   5   6
ATOM      6  C   UNL     1       4.076   4.711  17.517  0.00  0.00    +0.000 A 
ATOM      7  C   UNL     1       4.633   3.946  16.484  0.00  0.00    +0.000 A 
ATOM      8  C   UNL     1       5.302   4.575  15.437  0.00  0.00    +0.000 A 
ATOM      9  C   UNL     1       5.385   5.956  15.446  0.00  0.00    +0.000 A 
ATOM     10  N   UNL     1       4.841   6.732  16.404  0.00  0.00    +0.000 NA
ATOM     11  C   UNL     1       4.203   6.095  17.414  0.00  0.00    +0.000 A 
ENDBRANCH   5   6
BRANCH   1  13
ATOM     12  O   UNL     1       5.049   1.663  20.486  0.00  0.00    +0.000 OA
ATOM     13  N   UNL     1       4.862   2.786  20.009  0.00  0.00    +0.000 NA
ENDBRANCH   1  13
BRANCH   4  14
ATOM     14  O   UNL     1       1.283   4.345  17.245  0.00  0.00    +0.000 OA
ATOM     15  H   UNL     1       1.164   5.310  17.310  0.00  0.00    +0.000 HD
ENDBRANCH   4  14
TORSDOF 3
ENDMDL
