MODEL 1
REMARK VINA RESULT:      -7.3      0.000      0.000
REMARK  Name = 
REMARK  6 active torsions:
REMARK  status: ('A' for Active; 'I' for Inactive)
REMARK    1  A    between atoms: C_1  and  O_2
REMARK    2  A    between atoms: O_2  and  C_3
REMARK    3  A    between atoms: C_3  and  C_5
REMARK    4  A    between atoms: C_6  and  C_7
REMARK    5  A    between atoms: N_19  and  C_20
REMARK    6  A    between atoms: C_20  and  C_21
REMARK                            x       y       z     vdW  Elec       q    Type
REMARK                         _______ _______ _______ _____ _____    ______ ____
ROOT
ATOM      1  C   UNL     1       3.066   5.311  17.863  0.00  0.00    +0.000 C 
ATOM      2  C   UNL     1       4.412   4.543  17.959  0.00  0.00    +0.000 C 
ATOM      3  C   UNL     1       4.402   3.313  18.906  0.00  0.00    +0.000 C 
ATOM      4  C   UNL     1       3.039   2.605  18.994  0.00  0.00    +0.000 C 
ATOM      5  C   UNL     1       2.546   2.133  17.625  0.00  0.00    +0.000 C 
ATOM      6  C   UNL     1       1.731   3.311  17.083  0.00  0.00    +0.000 C 
ATOM      7  C   UNL     1       1.844   4.404  18.167  0.00  0.00    +0.000 C 
ATOM      8  N   UNL     1       1.968   3.540  19.357  0.00  0.00    +0.000 NA
ENDROOT
BRANCH   2   9
ATOM      9  C   UNL     1       5.638   5.431  18.134  0.00  0.00    +0.000 A 
ATOM     10  C   UNL     1       5.984   6.406  17.185  0.00  0.00    +0.000 A 
ATOM     11  C   UNL     1       7.106   7.215  17.366  0.00  0.00    +0.000 A 
ATOM     12  C   UNL     1       7.894   7.044  18.492  0.00  0.00    +0.000 A 
ATOM     13  F   UNL     1       8.973   7.822  18.669  0.00  0.00    +0.000 F 
ATOM     14  C   UNL     1       7.589   6.074  19.437  0.00  0.00    +0.000 A 
ATOM     15  C   UNL     1       6.465   5.265  19.260  0.00  0.00    +0.000 A 
ENDBRANCH   2   9
BRANCH   1  16
ATOM     16  C   UNL     1       2.979   6.650  18.597  0.00  0.00    +0.000 C 
ATOM     17  O   UNL     1       2.900   6.811  19.804  0.00  0.00    +0.000 OA
BRANCH  16  19
ATOM     18  C   UNL     1       1.936   8.634  17.893  0.00  0.00    +0.000 C 
ATOM     19  O   UNL     1       2.987   7.681  17.696  0.00  0.00    +0.000 OA
ENDBRANCH  16  19
ENDBRANCH   1  16
BRANCH   8  20
ATOM     20  C   UNL     1       2.136   4.239  20.637  0.00  0.00    +0.000 C 
BRANCH  20  21
ATOM     21  C   UNL     1       2.177   3.359  21.889  0.00  0.00    +0.000 C 
ATOM     22  F   UNL     1       1.073   2.563  21.938  0.00  0.00    +0.000 F 
ENDBRANCH  20  21
ENDBRANCH   8  20
TORSDOF 5
ENDMDL
MODEL 2
REMARK VINA RESULT:      -7.0      0.333      1.077
REMARK  Name = 
REMARK  6 active torsions:
REMARK  status: ('A' for Active; 'I' for Inactive)
REMARK    1  A    between atoms: C_1  and  O_2
REMARK    2  A    between atoms: O_2  and  C_3
REMARK    3  A    between atoms: C_3  and  C_5
REMARK    4  A    between atoms: C_6  and  C_7
REMARK    5  A    between atoms: N_19  and  C_20
REMARK    6  A    between atoms: C_20  and  C_21
REMARK                            x       y       z     vdW  Elec       q    Type
REMARK                         _______ _______ _______ _____ _____    ______ ____
ROOT
ATOM      1  C   UNL     1       3.211   5.085  17.826  0.00  0.00    +0.000 C 
ATOM      2  C   UNL     1       4.613   4.436  17.985  0.00  0.00    +0.000 C 
ATOM      3  C   UNL     1       4.686   3.270  19.007  0.00  0.00    +0.000 C 
ATOM      4  C   UNL     1       3.384   2.461  19.123  0.00  0.00    +0.000 C 
ATOM      5  C   UNL     1       2.952   1.867  17.781  0.00  0.00    +0.000 C 
ATOM      6  C   UNL     1       2.054   2.940  17.158  0.00  0.00    +0.000 C 
ATOM      7  C   UNL     1       2.061   4.102  18.173  0.00  0.00    +0.000 C 
ATOM      8  N   UNL     1       2.236   3.326  19.416  0.00  0.00    +0.000 NA
ENDROOT
BRANCH   2   9
ATOM      9  C   UNL     1       5.761   5.430  18.117  0.00  0.00    +0.000 A 
ATOM     10  C   UNL     1       6.699   5.337  19.157  0.00  0.00    +0.000 A 
ATOM     11  C   UNL     1       7.748   6.252  19.258  0.00  0.00    +0.000 A 
ATOM     12  C   UNL     1       7.856   7.269  18.326  0.00  0.00    +0.000 A 
ATOM     13  F   UNL     1       8.866   8.149  18.419  0.00  0.00    +0.000 F 
ATOM     14  C   UNL     1       6.931   7.398  17.299  0.00  0.00    +0.000 A 
ATOM     15  C   UNL     1       5.882   6.483  17.193  0.00  0.00    +0.000 A 
ENDBRANCH   2   9
BRANCH   1  16
ATOM     16  C   UNL     1       3.004   6.455  18.475  0.00  0.00    +0.000 C 
ATOM     17  O   UNL     1       3.204   6.741  19.644  0.00  0.00    +0.000 OA
BRANCH  16  19
ATOM     18  C   UNL     1       2.358   8.675  18.055  0.00  0.00    +0.000 C 
ATOM     19  O   UNL     1       2.538   7.348  17.547  0.00  0.00    +0.000 OA
ENDBRANCH  16  19
ENDBRANCH   1  16
BRANCH   8  20
ATOM     20  C   UNL     1       2.327   4.114  20.652  0.00  0.00    +0.000 C 
BRANCH  20  21
ATOM     21  C   UNL     1       2.142   3.342  21.961  0.00  0.00    +0.000 C 
ATOM     22  F   UNL     1       1.063   2.516  21.871  0.00  0.00    +0.000 F 
ENDBRANCH  20  21
ENDBRANCH   8  20
TORSDOF 5
ENDMDL
MODEL 3
REMARK VINA RESULT:      -6.9      2.777      4.933
REMARK  Name = 
REMARK  6 active torsions:
REMARK  status: ('A' for Active; 'I' for Inactive)
REMARK    1  A    between atoms: C_1  and  O_2
REMARK    2  A    between atoms: O_2  and  C_3
REMARK    3  A    between atoms: C_3  and  C_5
REMARK    4  A    between atoms: C_6  and  C_7
REMARK    5  A    between atoms: N_19  and  C_20
REMARK    6  A    between atoms: C_20  and  C_21
REMARK                            x       y       z     vdW  Elec       q    Type
REMARK                         _______ _______ _______ _____ _____    ______ ____
ROOT
ATOM      1  C   UNL     1       4.110   4.619  19.217  0.00  0.00    +0.000 C 
ATOM      2  C   UNL     1       2.618   4.952  18.950  0.00  0.00    +0.000 C 
ATOM      3  C   UNL     1       2.010   4.281  17.689  0.00  0.00    +0.000 C 
ATOM      4  C   UNL     1       2.623   2.911  17.353  0.00  0.00    +0.000 C 
ATOM      5  C   UNL     1       2.486   1.920  18.510  0.00  0.00    +0.000 C 
ATOM      6  C   UNL     1       3.758   2.120  19.341  0.00  0.00    +0.000 C 
ATOM      7  C   UNL     1       4.528   3.248  18.622  0.00  0.00    +0.000 C 
ATOM      8  N   UNL     1       4.084   2.988  17.238  0.00  0.00    +0.000 NA
ENDROOT
BRANCH   2   9
ATOM      9  C   UNL     1       2.263   6.428  19.081  0.00  0.00    +0.000 A 
ATOM     10  C   UNL     1       2.000   7.015  20.328  0.00  0.00    +0.000 A 
ATOM     11  C   UNL     1       1.684   8.370  20.430  0.00  0.00    +0.000 A 
ATOM     12  C   UNL     1       1.618   9.141  19.281  0.00  0.00    +0.000 A 
ATOM     13  F   UNL     1       1.317  10.445  19.376  0.00  0.00    +0.000 F 
ATOM     14  C   UNL     1       1.853   8.583  18.032  0.00  0.00    +0.000 A 
ATOM     15  C   UNL     1       2.172   7.228  17.928  0.00  0.00    +0.000 A 
ENDBRANCH   2   9
BRANCH   1  16
ATOM     16  C   UNL     1       5.132   5.713  18.896  0.00  0.00    +0.000 C 
ATOM     17  O   UNL     1       5.021   6.582  18.048  0.00  0.00    +0.000 OA
BRANCH  16  19
ATOM     18  C   UNL     1       7.476   5.799  19.031  0.00  0.00    +0.000 C 
ATOM     19  O   UNL     1       6.230   5.579  19.703  0.00  0.00    +0.000 OA
ENDBRANCH  16  19
ENDBRANCH   1  16
BRANCH   8  20
ATOM     20  C   UNL     1       4.597   3.914  16.220  0.00  0.00    +0.000 C 
BRANCH  20  21
ATOM     21  C   UNL     1       6.082   3.780  15.871  0.00  0.00    +0.000 C 
ATOM     22  F   UNL     1       6.230   3.558  14.535  0.00  0.00    +0.000 F 
ENDBRANCH  20  21
ENDBRANCH   8  20
TORSDOF 5
ENDMDL
MODEL 4
REMARK VINA RESULT:      -6.8      2.609      4.813
REMARK  Name = 
REMARK  6 active torsions:
REMARK  status: ('A' for Active; 'I' for Inactive)
REMARK    1  A    between atoms: C_1  and  O_2
REMARK    2  A    between atoms: O_2  and  C_3
REMARK    3  A    between atoms: C_3  and  C_5
REMARK    4  A    between atoms: C_6  and  C_7
REMARK    5  A    between atoms: N_19  and  C_20
REMARK    6  A    between atoms: C_20  and  C_21
REMARK                            x       y       z     vdW  Elec       q    Type
REMARK                         _______ _______ _______ _____ _____    ______ ____
ROOT
ATOM      1  C   UNL     1       4.114   4.620  19.207  0.00  0.00    +0.000 C 
ATOM      2  C   UNL     1       2.620   4.944  18.936  0.00  0.00    +0.000 C 
ATOM      3  C   UNL     1       2.022   4.274  17.670  0.00  0.00    +0.000 C 
ATOM      4  C   UNL     1       2.645   2.910  17.332  0.00  0.00    +0.000 C 
ATOM      5  C   UNL     1       2.510   1.913  18.485  0.00  0.00    +0.000 C 
ATOM      6  C   UNL     1       3.778   2.118  19.321  0.00  0.00    +0.000 C 
ATOM      7  C   UNL     1       4.543   3.254  18.609  0.00  0.00    +0.000 C 
ATOM      8  N   UNL     1       4.106   2.997  17.222  0.00  0.00    +0.000 NA
ENDROOT
BRANCH   2   9
ATOM      9  C   UNL     1       2.255   6.417  19.071  0.00  0.00    +0.000 A 
ATOM     10  C   UNL     1       2.191   7.266  17.955  0.00  0.00    +0.000 A 
ATOM     11  C   UNL     1       1.847   8.611  18.096  0.00  0.00    +0.000 A 
ATOM     12  C   UNL     1       1.578   9.115  19.357  0.00  0.00    +0.000 A 
ATOM     13  F   UNL     1       1.245  10.407  19.496  0.00  0.00    +0.000 F 
ATOM     14  C   UNL     1       1.654   8.304  20.482  0.00  0.00    +0.000 A 
ATOM     15  C   UNL     1       1.994   6.958  20.343  0.00  0.00    +0.000 A 
ENDBRANCH   2   9
BRANCH   1  16
ATOM     16  C   UNL     1       5.130   5.722  18.895  0.00  0.00    +0.000 C 
ATOM     17  O   UNL     1       5.013   6.598  18.054  0.00  0.00    +0.000 OA
BRANCH  16  19
ATOM     18  C   UNL     1       7.473   5.825  19.029  0.00  0.00    +0.000 C 
ATOM     19  O   UNL     1       6.229   5.587  19.699  0.00  0.00    +0.000 OA
ENDBRANCH  16  19
ENDBRANCH   1  16
BRANCH   8  20
ATOM     20  C   UNL     1       4.617   3.929  16.210  0.00  0.00    +0.000 C 
BRANCH  20  21
ATOM     21  C   UNL     1       6.111   3.830  15.892  0.00  0.00    +0.000 C 
ATOM     22  F   UNL     1       6.650   5.076  15.780  0.00  0.00    +0.000 F 
ENDBRANCH  20  21
ENDBRANCH   8  20
TORSDOF 5
ENDMDL
MODEL 5
REMARK VINA RESULT:      -6.7      2.478      5.687
REMARK  Name = 
REMARK  6 active torsions:
REMARK  status: ('A' for Active; 'I' for Inactive)
REMARK    1  A    between atoms: C_1  and  O_2
REMARK    2  A    between atoms: O_2  and  C_3
REMARK    3  A    between atoms: C_3  and  C_5
REMARK    4  A    between atoms: C_6  and  C_7
REMARK    5  A    between atoms: N_19  and  C_20
REMARK    6  A    between atoms: C_20  and  C_21
REMARK                            x       y       z     vdW  Elec       q    Type
REMARK                         _______ _______ _______ _____ _____    ______ ____
ROOT
ATOM      1  C   UNL     1       4.971   4.328  17.786  0.00  0.00    +0.000 C 
ATOM      2  C   UNL     1       4.013   5.480  17.381  0.00  0.00    +0.000 C 
ATOM      3  C   UNL     1       4.681   6.650  16.609  0.00  0.00    +0.000 C 
ATOM      4  C   UNL     1       5.873   6.222  15.737  0.00  0.00    +0.000 C 
ATOM      5  C   UNL     1       5.482   5.159  14.709  0.00  0.00    +0.000 C 
ATOM      6  C   UNL     1       5.719   3.826  15.425  0.00  0.00    +0.000 C 
ATOM      7  C   UNL     1       6.196   4.215  16.840  0.00  0.00    +0.000 C 
ATOM      8  N   UNL     1       6.874   5.486  16.517  0.00  0.00    +0.000 NA
ENDROOT
BRANCH   2   9
ATOM      9  C   UNL     1       3.073   5.944  18.487  0.00  0.00    +0.000 A 
ATOM     10  C   UNL     1       2.362   5.030  19.282  0.00  0.00    +0.000 A 
ATOM     11  C   UNL     1       1.512   5.473  20.295  0.00  0.00    +0.000 A 
ATOM     12  C   UNL     1       1.360   6.832  20.511  0.00  0.00    +0.000 A 
ATOM     13  F   UNL     1       0.545   7.260  21.487  0.00  0.00    +0.000 F 
ATOM     14  C   UNL     1       2.035   7.759  19.728  0.00  0.00    +0.000 A 
ATOM     15  C   UNL     1       2.888   7.319  18.716  0.00  0.00    +0.000 A 
ENDBRANCH   2   9
BRANCH   1  16
ATOM     16  C   UNL     1       5.380   4.253  19.259  0.00  0.00    +0.000 C 
ATOM     17  O   UNL     1       5.974   5.111  19.891  0.00  0.00    +0.000 OA
BRANCH  16  19
ATOM     18  C   UNL     1       4.134   2.287  18.940  0.00  0.00    +0.000 C 
ATOM     19  O   UNL     1       4.992   3.054  19.793  0.00  0.00    +0.000 OA
ENDBRANCH  16  19
ENDBRANCH   1  16
BRANCH   8  20
ATOM     20  C   UNL     1       7.454   6.207  17.657  0.00  0.00    +0.000 C 
BRANCH  20  21
ATOM     21  C   UNL     1       7.697   7.705  17.458  0.00  0.00    +0.000 C 
ATOM     22  F   UNL     1       8.486   8.189  18.457  0.00  0.00    +0.000 F 
ENDBRANCH  20  21
ENDBRANCH   8  20
TORSDOF 5
ENDMDL
MODEL 6
REMARK VINA RESULT:      -6.7      2.479      5.632
REMARK  Name = 
REMARK  6 active torsions:
REMARK  status: ('A' for Active; 'I' for Inactive)
REMARK    1  A    between atoms: C_1  and  O_2
REMARK    2  A    between atoms: O_2  and  C_3
REMARK    3  A    between atoms: C_3  and  C_5
REMARK    4  A    between atoms: C_6  and  C_7
REMARK    5  A    between atoms: N_19  and  C_20
REMARK    6  A    between atoms: C_20  and  C_21
REMARK                            x       y       z     vdW  Elec       q    Type
REMARK                         _______ _______ _______ _____ _____    ______ ____
ROOT
ATOM      1  C   UNL     1       4.934   4.346  17.796  0.00  0.00    +0.000 C 
ATOM      2  C   UNL     1       3.983   5.495  17.366  0.00  0.00    +0.000 C 
ATOM      3  C   UNL     1       4.657   6.642  16.565  0.00  0.00    +0.000 C 
ATOM      4  C   UNL     1       5.844   6.185  15.701  0.00  0.00    +0.000 C 
ATOM      5  C   UNL     1       5.444   5.101  14.699  0.00  0.00    +0.000 C 
ATOM      6  C   UNL     1       5.674   3.783  15.446  0.00  0.00    +0.000 C 
ATOM      7  C   UNL     1       6.156   4.203  16.851  0.00  0.00    +0.000 C 
ATOM      8  N   UNL     1       6.842   5.461  16.496  0.00  0.00    +0.000 NA
ENDROOT
BRANCH   2   9
ATOM      9  C   UNL     1       3.049   5.991  18.463  0.00  0.00    +0.000 A 
ATOM     10  C   UNL     1       2.889   7.359  18.732  0.00  0.00    +0.000 A 
ATOM     11  C   UNL     1       2.023   7.795  19.736  0.00  0.00    +0.000 A 
ATOM     12  C   UNL     1       1.323   6.863  20.482  0.00  0.00    +0.000 A 
ATOM     13  F   UNL     1       0.487   7.280  21.446  0.00  0.00    +0.000 F 
ATOM     14  C   UNL     1       1.476   5.503  20.252  0.00  0.00    +0.000 A 
ATOM     15  C   UNL     1       2.339   5.064  19.246  0.00  0.00    +0.000 A 
ENDBRANCH   2   9
BRANCH   1  16
ATOM     16  C   UNL     1       5.347   4.304  19.270  0.00  0.00    +0.000 C 
ATOM     17  O   UNL     1       5.702   5.252  19.951  0.00  0.00    +0.000 OA
BRANCH  16  19
ATOM     18  C   UNL     1       4.107   2.308  19.314  0.00  0.00    +0.000 C 
ATOM     19  O   UNL     1       5.276   3.020  19.739  0.00  0.00    +0.000 OA
ENDBRANCH  16  19
ENDBRANCH   1  16
BRANCH   8  20
ATOM     20  C   UNL     1       7.429   6.205  17.617  0.00  0.00    +0.000 C 
BRANCH  20  21
ATOM     21  C   UNL     1       7.672   7.699  17.386  0.00  0.00    +0.000 C 
ATOM     22  F   UNL     1       8.459   8.205  18.376  0.00  0.00    +0.000 F 
ENDBRANCH  20  21
ENDBRANCH   8  20
TORSDOF 5
ENDMDL
MODEL 7
REMARK VINA RESULT:      -6.5      2.461      5.955
REMARK  Name = 
REMARK  6 active torsions:
REMARK  status: ('A' for Active; 'I' for Inactive)
REMARK    1  A    between atoms: C_1  and  O_2
REMARK    2  A    between atoms: O_2  and  C_3
REMARK    3  A    between atoms: C_3  and  C_5
REMARK    4  A    between atoms: C_6  and  C_7
REMARK    5  A    between atoms: N_19  and  C_20
REMARK    6  A    between atoms: C_20  and  C_21
REMARK                            x       y       z     vdW  Elec       q    Type
REMARK                         _______ _______ _______ _____ _____    ______ ____
ROOT
ATOM      1  C   UNL     1       5.570   4.081  17.365  0.00  0.00    +0.000 C 
ATOM      2  C   UNL     1       4.328   4.929  16.979  0.00  0.00    +0.000 C 
ATOM      3  C   UNL     1       4.643   6.347  16.432  0.00  0.00    +0.000 C 
ATOM      4  C   UNL     1       5.975   6.439  15.669  0.00  0.00    +0.000 C 
ATOM      5  C   UNL     1       6.030   5.469  14.487  0.00  0.00    +0.000 C 
ATOM      6  C   UNL     1       6.625   4.184  15.071  0.00  0.00    +0.000 C 
ATOM      7  C   UNL     1       6.837   4.490  16.569  0.00  0.00    +0.000 C 
ATOM      8  N   UNL     1       7.094   5.941  16.476  0.00  0.00    +0.000 NA
ENDROOT
BRANCH   2   9
ATOM      9  C   UNL     1       3.204   4.913  18.008  0.00  0.00    +0.000 A 
ATOM     10  C   UNL     1       3.114   5.887  19.016  0.00  0.00    +0.000 A 
ATOM     11  C   UNL     1       2.073   5.861  19.945  0.00  0.00    +0.000 A 
ATOM     12  C   UNL     1       1.125   4.855  19.877  0.00  0.00    +0.000 A 
ATOM     13  F   UNL     1       0.122   4.830  20.768  0.00  0.00    +0.000 F 
ATOM     14  C   UNL     1       1.200   3.867  18.904  0.00  0.00    +0.000 A 
ATOM     15  C   UNL     1       2.238   3.892  17.972  0.00  0.00    +0.000 A 
ENDBRANCH   2   9
BRANCH   1  16
ATOM     16  C   UNL     1       5.863   3.922  18.859  0.00  0.00    +0.000 C 
ATOM     17  O   UNL     1       6.398   4.744  19.584  0.00  0.00    +0.000 OA
BRANCH  16  19
ATOM     18  C   UNL     1       4.510   2.742  20.375  0.00  0.00    +0.000 C 
ATOM     19  O   UNL     1       5.445   2.692  19.290  0.00  0.00    +0.000 OA
ENDBRANCH  16  19
ENDBRANCH   1  16
BRANCH   8  20
ATOM     20  C   UNL     1       7.319   6.631  17.753  0.00  0.00    +0.000 C 
BRANCH  20  21
ATOM     21  C   UNL     1       7.832   8.071  17.663  0.00  0.00    +0.000 C 
ATOM     22  F   UNL     1       8.681   8.331  18.695  0.00  0.00    +0.000 F 
ENDBRANCH  20  21
ENDBRANCH   8  20
TORSDOF 5
ENDMDL
MODEL 8
REMARK VINA RESULT:      -6.5      2.465      5.953
REMARK  Name = 
REMARK  6 active torsions:
REMARK  status: ('A' for Active; 'I' for Inactive)
REMARK    1  A    between atoms: C_1  and  O_2
REMARK    2  A    between atoms: O_2  and  C_3
REMARK    3  A    between atoms: C_3  and  C_5
REMARK    4  A    between atoms: C_6  and  C_7
REMARK    5  A    between atoms: N_19  and  C_20
REMARK    6  A    between atoms: C_20  and  C_21
REMARK                            x       y       z     vdW  Elec       q    Type
REMARK                         _______ _______ _______ _____ _____    ______ ____
ROOT
ATOM      1  C   UNL     1       5.578   4.053  17.352  0.00  0.00    +0.000 C 
ATOM      2  C   UNL     1       4.327   4.881  16.950  0.00  0.00    +0.000 C 
ATOM      3  C   UNL     1       4.628   6.303  16.406  0.00  0.00    +0.000 C 
ATOM      4  C   UNL     1       5.968   6.416  15.660  0.00  0.00    +0.000 C 
ATOM      5  C   UNL     1       6.054   5.447  14.479  0.00  0.00    +0.000 C 
ATOM      6  C   UNL     1       6.661   4.172  15.072  0.00  0.00    +0.000 C 
ATOM      7  C   UNL     1       6.849   4.482  16.572  0.00  0.00    +0.000 C 
ATOM      8  N   UNL     1       7.084   5.937  16.482  0.00  0.00    +0.000 NA
ENDROOT
BRANCH   2   9
ATOM      9  C   UNL     1       3.191   4.848  17.964  0.00  0.00    +0.000 A 
ATOM     10  C   UNL     1       2.212   3.842  17.942  0.00  0.00    +0.000 A 
ATOM     11  C   UNL     1       1.182   3.824  18.884  0.00  0.00    +0.000 A 
ATOM     12  C   UNL     1       1.122   4.820  19.844  0.00  0.00    +0.000 A 
ATOM     13  F   UNL     1       0.134   4.803  20.753  0.00  0.00    +0.000 F 
ATOM     14  C   UNL     1       2.064   5.839  19.878  0.00  0.00    +0.000 A 
ATOM     15  C   UNL     1       3.097   5.857  18.939  0.00  0.00    +0.000 A 
ENDBRANCH   2   9
BRANCH   1  16
ATOM     16  C   UNL     1       5.854   3.899  18.850  0.00  0.00    +0.000 C 
ATOM     17  O   UNL     1       6.365   4.731  19.582  0.00  0.00    +0.000 OA
BRANCH  16  19
ATOM     18  C   UNL     1       4.513   2.696  20.358  0.00  0.00    +0.000 C 
ATOM     19  O   UNL     1       5.451   2.662  19.276  0.00  0.00    +0.000 OA
ENDBRANCH  16  19
ENDBRANCH   1  16
BRANCH   8  20
ATOM     20  C   UNL     1       7.281   6.631  17.761  0.00  0.00    +0.000 C 
BRANCH  20  21
ATOM     21  C   UNL     1       7.838   8.055  17.680  0.00  0.00    +0.000 C 
ATOM     22  F   UNL     1       8.697   8.282  18.712  0.00  0.00    +0.000 F 
ENDBRANCH  20  21
ENDBRANCH   8  20
TORSDOF 5
ENDMDL
MODEL 9
REMARK VINA RESULT:      -6.5      2.377      5.934
REMARK  Name = 
REMARK  6 active torsions:
REMARK  status: ('A' for Active; 'I' for Inactive)
REMARK    1  A    between atoms: C_1  and  O_2
REMARK    2  A    between atoms: O_2  and  C_3
REMARK    3  A    between atoms: C_3  and  C_5
REMARK    4  A    between atoms: C_6  and  C_7
REMARK    5  A    between atoms: N_19  and  C_20
REMARK    6  A    between atoms: C_20  and  C_21
REMARK                            x       y       z     vdW  Elec       q    Type
REMARK                         _______ _______ _______ _____ _____    ______ ____
ROOT
ATOM      1  C   UNL     1       6.280   4.493  17.696  0.00  0.00    +0.000 C 
ATOM      2  C   UNL     1       4.752   4.556  17.434  0.00  0.00    +0.000 C 
ATOM      3  C   UNL     1       4.271   5.803  16.644  0.00  0.00    +0.000 C 
ATOM      4  C   UNL     1       5.304   6.342  15.640  0.00  0.00    +0.000 C 
ATOM      5  C   UNL     1       5.719   5.284  14.616  0.00  0.00    +0.000 C 
ATOM      6  C   UNL     1       6.924   4.585  15.254  0.00  0.00    +0.000 C 
ATOM      7  C   UNL     1       7.098   5.267  16.627  0.00  0.00    +0.000 C 
ATOM      8  N   UNL     1       6.593   6.612  16.286  0.00  0.00    +0.000 NA
ENDROOT
BRANCH   2   9
ATOM      9  C   UNL     1       3.886   4.238  18.646  0.00  0.00    +0.000 A 
ATOM     10  C   UNL     1       3.805   2.939  19.174  0.00  0.00    +0.000 A 
ATOM     11  C   UNL     1       3.013   2.667  20.290  0.00  0.00    +0.000 A 
ATOM     12  C   UNL     1       2.288   3.691  20.875  0.00  0.00    +0.000 A 
ATOM     13  F   UNL     1       1.527   3.433  21.950  0.00  0.00    +0.000 F 
ATOM     14  C   UNL     1       2.332   4.981  20.363  0.00  0.00    +0.000 A 
ATOM     15  C   UNL     1       3.127   5.256  19.249  0.00  0.00    +0.000 A 
ENDBRANCH   2   9
BRANCH   1  16
ATOM     16  C   UNL     1       6.754   4.813  19.116  0.00  0.00    +0.000 C 
ATOM     17  O   UNL     1       6.045   5.006  20.090  0.00  0.00    +0.000 OA
BRANCH  16  19
ATOM     18  C   UNL     1       8.652   5.297  20.412  0.00  0.00    +0.000 C 
ATOM     19  O   UNL     1       8.121   4.869  19.153  0.00  0.00    +0.000 OA
ENDBRANCH  16  19
ENDBRANCH   1  16
BRANCH   8  20
ATOM     20  C   UNL     1       6.567   7.581  17.388  0.00  0.00    +0.000 C 
BRANCH  20  21
ATOM     21  C   UNL     1       7.832   8.422  17.581  0.00  0.00    +0.000 C 
ATOM     22  F   UNL     1       8.547   7.954  18.642  0.00  0.00    +0.000 F 
ENDBRANCH  20  21
ENDBRANCH   8  20
TORSDOF 5
ENDMDL
