MODEL 1
REMARK VINA RESULT:      -5.8      0.000      0.000
REMARK  Name = 
REMARK  5 active torsions:
REMARK  status: ('A' for Active; 'I' for Inactive)
REMARK    1  A    between atoms: C_1  and  C_2
REMARK    2  A    between atoms: C_2  and  O_4
REMARK    3  A    between atoms: O_4  and  C_5
REMARK    4  A    between atoms: C_5  and  C_6
REMARK    5  A    between atoms: C_5  and  C_7
REMARK                            x       y       z     vdW  Elec       q    Type
REMARK                         _______ _______ _______ _____ _____    ______ ____
ROOT
ATOM      1  C   UNL     1       5.313   5.823  17.998  0.00  0.00    +0.000 C 
ATOM      2  C   UNL     1       4.116   6.244  18.422  0.00  0.00    +0.000 C 
ATOM      3 BR   UNL     1       3.212   7.731  17.801  0.00  0.00    +0.000 Br
ATOM      4  C   UNL     1       3.582   5.306  19.386  0.00  0.00    +0.000 C 
ATOM      5  C   UNL     1       2.525   5.348  20.223  0.00  0.00    +0.000 C 
ATOM      6 BR   UNL     1       1.345   6.777  20.498  0.00  0.00    +0.000 Br
ATOM      7 BR   UNL     1       2.128   3.877  21.350  0.00  0.00    +0.000 Br
ATOM      8  O   UNL     1       4.444   4.203  19.430  0.00  0.00    +0.000 OA
ATOM      9  C   UNL     1       5.528   4.542  18.680  0.00  0.00    +0.000 C 
ATOM     10  O   UNL     1       6.535   3.857  18.577  0.00  0.00    +0.000 OA
ENDROOT
BRANCH   1  11
ATOM     11  C   UNL     1       6.393   6.316  17.080  0.00  0.00    +0.000 C 
ATOM     12  C   UNL     1       6.911   7.731  17.329  0.00  0.00    +0.000 C 
BRANCH  11  13
ATOM     13  O   UNL     1       5.880   6.254  15.733  0.00  0.00    +0.000 OA
BRANCH  13  15
ATOM     14  C   UNL     1       5.583   4.168  14.695  0.00  0.00    +0.000 C 
ATOM     15  C   UNL     1       6.481   5.344  14.916  0.00  0.00    +0.000 C 
ATOM     16  O   UNL     1       7.600   5.453  14.433  0.00  0.00    +0.000 OA
ENDBRANCH  13  15
ENDBRANCH  11  13
ENDBRANCH   1  11
TORSDOF 3
ENDMDL
MODEL 2
REMARK VINA RESULT:      -5.7      2.158      2.217
REMARK  Name = 
REMARK  5 active torsions:
REMARK  status: ('A' for Active; 'I' for Inactive)
REMARK    1  A    between atoms: C_1  and  C_2
REMARK    2  A    between atoms: C_2  and  O_4
REMARK    3  A    between atoms: O_4  and  C_5
REMARK    4  A    between atoms: C_5  and  C_6
REMARK    5  A    between atoms: C_5  and  C_7
REMARK                            x       y       z     vdW  Elec       q    Type
REMARK                         _______ _______ _______ _____ _____    ______ ____
ROOT
ATOM      1  C   UNL     1       4.960   4.554  17.873  0.00  0.00    +0.000 C 
ATOM      2  C   UNL     1       3.814   3.864  17.912  0.00  0.00    +0.000 C 
ATOM      3 BR   UNL     1       2.864   3.264  16.446  0.00  0.00    +0.000 Br
ATOM      4  C   UNL     1       3.466   3.575  19.287  0.00  0.00    +0.000 C 
ATOM      5  C   UNL     1       2.355   3.078  19.870  0.00  0.00    +0.000 C 
ATOM      6 BR   UNL     1       0.734   2.635  19.041  0.00  0.00    +0.000 Br
ATOM      7 BR   UNL     1       2.283   2.819  21.745  0.00  0.00    +0.000 Br
ATOM      8  O   UNL     1       4.531   3.992  20.094  0.00  0.00    +0.000 OA
ATOM      9  C   UNL     1       5.385   4.664  19.273  0.00  0.00    +0.000 C 
ATOM     10  O   UNL     1       6.381   5.260  19.656  0.00  0.00    +0.000 OA
ENDROOT
BRANCH   1  11
ATOM     11  C   UNL     1       5.828   5.191  16.828  0.00  0.00    +0.000 C 
ATOM     12  C   UNL     1       5.190   6.298  15.991  0.00  0.00    +0.000 C 
BRANCH  11  13
ATOM     13  O   UNL     1       6.269   4.147  15.934  0.00  0.00    +0.000 OA
BRANCH  13  15
ATOM     14  C   UNL     1       6.210   3.917  13.597  0.00  0.00    +0.000 C 
ATOM     15  C   UNL     1       6.855   4.572  14.779  0.00  0.00    +0.000 C 
ATOM     16  O   UNL     1       7.785   5.364  14.703  0.00  0.00    +0.000 OA
ENDBRANCH  13  15
ENDBRANCH  11  13
ENDBRANCH   1  11
TORSDOF 3
ENDMDL
MODEL 3
REMARK VINA RESULT:      -5.7      1.456      2.285
REMARK  Name = 
REMARK  5 active torsions:
REMARK  status: ('A' for Active; 'I' for Inactive)
REMARK    1  A    between atoms: C_1  and  C_2
REMARK    2  A    between atoms: C_2  and  O_4
REMARK    3  A    between atoms: O_4  and  C_5
REMARK    4  A    between atoms: C_5  and  C_6
REMARK    5  A    between atoms: C_5  and  C_7
REMARK                            x       y       z     vdW  Elec       q    Type
REMARK                         _______ _______ _______ _____ _____    ______ ____
ROOT
ATOM      1  C   UNL     1       4.455   5.399  17.078  0.00  0.00    +0.000 C 
ATOM      2  C   UNL     1       3.577   6.048  17.852  0.00  0.00    +0.000 C 
ATOM      3 BR   UNL     1       3.214   7.858  17.790  0.00  0.00    +0.000 Br
ATOM      4  C   UNL     1       2.879   5.102  18.695  0.00  0.00    +0.000 C 
ATOM      5  C   UNL     1       2.048   5.246  19.749  0.00  0.00    +0.000 C 
ATOM      6 BR   UNL     1       1.540   6.842  20.590  0.00  0.00    +0.000 Br
ATOM      7 BR   UNL     1       1.300   3.729  20.602  0.00  0.00    +0.000 Br
ATOM      8  O   UNL     1       3.263   3.814  18.301  0.00  0.00    +0.000 OA
ATOM      9  C   UNL     1       4.273   3.980  17.404  0.00  0.00    +0.000 C 
ATOM     10  O   UNL     1       4.925   3.064  16.924  0.00  0.00    +0.000 OA
ENDROOT
BRANCH   1  11
ATOM     11  C   UNL     1       5.494   5.753  16.055  0.00  0.00    +0.000 C 
ATOM     12  C   UNL     1       5.463   4.965  14.746  0.00  0.00    +0.000 C 
BRANCH  11  13
ATOM     13  O   UNL     1       6.788   5.563  16.665  0.00  0.00    +0.000 OA
BRANCH  13  15
ATOM     14  C   UNL     1       7.726   6.169  18.731  0.00  0.00    +0.000 C 
ATOM     15  C   UNL     1       7.261   6.621  17.382  0.00  0.00    +0.000 C 
ATOM     16  O   UNL     1       7.297   7.781  16.996  0.00  0.00    +0.000 OA
ENDBRANCH  13  15
ENDBRANCH  11  13
ENDBRANCH   1  11
TORSDOF 3
ENDMDL
MODEL 4
REMARK VINA RESULT:      -5.6      1.826      2.491
REMARK  Name = 
REMARK  5 active torsions:
REMARK  status: ('A' for Active; 'I' for Inactive)
REMARK    1  A    between atoms: C_1  and  C_2
REMARK    2  A    between atoms: C_2  and  O_4
REMARK    3  A    between atoms: O_4  and  C_5
REMARK    4  A    between atoms: C_5  and  C_6
REMARK    5  A    between atoms: C_5  and  C_7
REMARK                            x       y       z     vdW  Elec       q    Type
REMARK                         _______ _______ _______ _____ _____    ______ ____
ROOT
ATOM      1  C   UNL     1       4.975   4.532  17.531  0.00  0.00    +0.000 C 
ATOM      2  C   UNL     1       4.002   3.864  18.161  0.00  0.00    +0.000 C 
ATOM      3 BR   UNL     1       3.716   2.040  18.082  0.00  0.00    +0.000 Br
ATOM      4  C   UNL     1       3.247   4.774  18.995  0.00  0.00    +0.000 C 
ATOM      5  C   UNL     1       2.089   4.653  19.677  0.00  0.00    +0.000 C 
ATOM      6 BR   UNL     1       0.938   3.174  19.715  0.00  0.00    +0.000 Br
ATOM      7 BR   UNL     1       1.413   6.100  20.696  0.00  0.00    +0.000 Br
ATOM      8  O   UNL     1       3.894   6.016  18.965  0.00  0.00    +0.000 OA
ATOM      9  C   UNL     1       4.869   5.910  18.022  0.00  0.00    +0.000 C 
ATOM     10  O   UNL     1       5.572   6.839  17.651  0.00  0.00    +0.000 OA
ENDROOT
BRANCH   1  11
ATOM     11  C   UNL     1       6.047   4.229  16.525  0.00  0.00    +0.000 C 
ATOM     12  C   UNL     1       7.492   4.405  16.988  0.00  0.00    +0.000 C 
BRANCH  11  13
ATOM     13  O   UNL     1       5.830   5.089  15.386  0.00  0.00    +0.000 OA
BRANCH  13  15
ATOM     14  C   UNL     1       6.115   3.758  13.472  0.00  0.00    +0.000 C 
ATOM     15  C   UNL     1       6.650   4.870  14.320  0.00  0.00    +0.000 C 
ATOM     16  O   UNL     1       7.684   5.478  14.082  0.00  0.00    +0.000 OA
ENDBRANCH  13  15
ENDBRANCH  11  13
ENDBRANCH   1  11
TORSDOF 3
ENDMDL
MODEL 5
REMARK VINA RESULT:      -5.6      2.895      5.449
REMARK  Name = 
REMARK  5 active torsions:
REMARK  status: ('A' for Active; 'I' for Inactive)
REMARK    1  A    between atoms: C_1  and  C_2
REMARK    2  A    between atoms: C_2  and  O_4
REMARK    3  A    between atoms: O_4  and  C_5
REMARK    4  A    between atoms: C_5  and  C_6
REMARK    5  A    between atoms: C_5  and  C_7
REMARK                            x       y       z     vdW  Elec       q    Type
REMARK                         _______ _______ _______ _____ _____    ______ ____
ROOT
ATOM      1  C   UNL     1       3.571   3.480  18.998  0.00  0.00    +0.000 C 
ATOM      2  C   UNL     1       3.924   4.673  18.504  0.00  0.00    +0.000 C 
ATOM      3 BR   UNL     1       2.794   5.877  17.676  0.00  0.00    +0.000 Br
ATOM      4  C   UNL     1       5.319   4.926  18.793  0.00  0.00    +0.000 C 
ATOM      5  C   UNL     1       6.189   5.870  18.376  0.00  0.00    +0.000 C 
ATOM      6 BR   UNL     1       5.882   7.230  17.124  0.00  0.00    +0.000 Br
ATOM      7 BR   UNL     1       7.975   5.882  19.007  0.00  0.00    +0.000 Br
ATOM      8  O   UNL     1       5.778   3.894  19.621  0.00  0.00    +0.000 OA
ATOM      9  C   UNL     1       4.773   2.977  19.672  0.00  0.00    +0.000 C 
ATOM     10  O   UNL     1       4.861   1.890  20.223  0.00  0.00    +0.000 OA
ENDROOT
BRANCH   1  11
ATOM     11  C   UNL     1       2.346   2.613  19.013  0.00  0.00    +0.000 C 
ATOM     12  C   UNL     1       2.004   1.888  17.713  0.00  0.00    +0.000 C 
BRANCH  11  13
ATOM     13  O   UNL     1       1.226   3.449  19.372  0.00  0.00    +0.000 OA
BRANCH  13  15
ATOM     14  C   UNL     1       1.339   2.868  21.645  0.00  0.00    +0.000 C 
ATOM     15  C   UNL     1       1.259   3.967  20.632  0.00  0.00    +0.000 C 
ATOM     16  O   UNL     1       1.217   5.157  20.912  0.00  0.00    +0.000 OA
ENDBRANCH  13  15
ENDBRANCH  11  13
ENDBRANCH   1  11
TORSDOF 3
ENDMDL
MODEL 6
REMARK VINA RESULT:      -5.5      2.759      5.669
REMARK  Name = 
REMARK  5 active torsions:
REMARK  status: ('A' for Active; 'I' for Inactive)
REMARK    1  A    between atoms: C_1  and  C_2
REMARK    2  A    between atoms: C_2  and  O_4
REMARK    3  A    between atoms: O_4  and  C_5
REMARK    4  A    between atoms: C_5  and  C_6
REMARK    5  A    between atoms: C_5  and  C_7
REMARK                            x       y       z     vdW  Elec       q    Type
REMARK                         _______ _______ _______ _____ _____    ______ ____
ROOT
ATOM      1  C   UNL     1       3.357   3.191  19.190  0.00  0.00    +0.000 C 
ATOM      2  C   UNL     1       3.562   4.291  18.456  0.00  0.00    +0.000 C 
ATOM      3 BR   UNL     1       2.249   5.327  17.672  0.00  0.00    +0.000 Br
ATOM      4  C   UNL     1       4.974   4.609  18.439  0.00  0.00    +0.000 C 
ATOM      5  C   UNL     1       5.712   5.484  17.724  0.00  0.00    +0.000 C 
ATOM      6 BR   UNL     1       5.124   6.616  16.351  0.00  0.00    +0.000 Br
ATOM      7 BR   UNL     1       7.580   5.626  18.005  0.00  0.00    +0.000 Br
ATOM      8  O   UNL     1       5.619   3.734  19.321  0.00  0.00    +0.000 OA
ATOM      9  C   UNL     1       4.682   2.822  19.701  0.00  0.00    +0.000 C 
ATOM     10  O   UNL     1       4.916   1.842  20.392  0.00  0.00    +0.000 OA
ENDROOT
BRANCH   1  11
ATOM     11  C   UNL     1       2.195   2.320  19.568  0.00  0.00    +0.000 C 
ATOM     12  C   UNL     1       1.470   1.610  18.426  0.00  0.00    +0.000 C 
BRANCH  11  13
ATOM     13  O   UNL     1       1.239   3.148  20.264  0.00  0.00    +0.000 OA
BRANCH  13  15
ATOM     14  C   UNL     1       1.541   5.316  21.116  0.00  0.00    +0.000 C 
ATOM     15  C   UNL     1       1.729   3.845  21.327  0.00  0.00    +0.000 C 
ATOM     16  O   UNL     1       2.261   3.355  22.314  0.00  0.00    +0.000 OA
ENDBRANCH  13  15
ENDBRANCH  11  13
ENDBRANCH   1  11
TORSDOF 3
ENDMDL
MODEL 7
REMARK VINA RESULT:      -5.5      1.965      2.616
REMARK  Name = 
REMARK  5 active torsions:
REMARK  status: ('A' for Active; 'I' for Inactive)
REMARK    1  A    between atoms: C_1  and  C_2
REMARK    2  A    between atoms: C_2  and  O_4
REMARK    3  A    between atoms: O_4  and  C_5
REMARK    4  A    between atoms: C_5  and  C_6
REMARK    5  A    between atoms: C_5  and  C_7
REMARK                            x       y       z     vdW  Elec       q    Type
REMARK                         _______ _______ _______ _____ _____    ______ ____
ROOT
ATOM      1  C   UNL     1       4.438   5.511  17.007  0.00  0.00    +0.000 C 
ATOM      2  C   UNL     1       3.426   5.558  17.881  0.00  0.00    +0.000 C 
ATOM      3 BR   UNL     1       2.646   7.093  18.551  0.00  0.00    +0.000 Br
ATOM      4  C   UNL     1       2.963   4.216  18.164  0.00  0.00    +0.000 C 
ATOM      5  C   UNL     1       2.113   3.709  19.082  0.00  0.00    +0.000 C 
ATOM      6 BR   UNL     1       1.238   4.633  20.457  0.00  0.00    +0.000 Br
ATOM      7 BR   UNL     1       1.737   1.853  19.127  0.00  0.00    +0.000 Br
ATOM      8  O   UNL     1       3.643   3.341  17.307  0.00  0.00    +0.000 OA
ATOM      9  C   UNL     1       4.593   4.088  16.681  0.00  0.00    +0.000 C 
ATOM     10  O   UNL     1       5.445   3.633  15.934  0.00  0.00    +0.000 OA
ENDROOT
BRANCH   1  11
ATOM     11  C   UNL     1       5.372   6.484  16.350  0.00  0.00    +0.000 C 
ATOM     12  C   UNL     1       5.285   6.596  14.829  0.00  0.00    +0.000 C 
BRANCH  11  13
ATOM     13  O   UNL     1       6.718   6.097  16.697  0.00  0.00    +0.000 OA
BRANCH  13  15
ATOM     14  C   UNL     1       7.859   6.270  18.744  0.00  0.00    +0.000 C 
ATOM     15  C   UNL     1       7.390   6.966  17.504  0.00  0.00    +0.000 C 
ATOM     16  O   UNL     1       7.581   8.151  17.269  0.00  0.00    +0.000 OA
ENDBRANCH  13  15
ENDBRANCH  11  13
ENDBRANCH   1  11
TORSDOF 3
ENDMDL
MODEL 8
REMARK VINA RESULT:      -5.5      3.104      5.895
REMARK  Name = 
REMARK  5 active torsions:
REMARK  status: ('A' for Active; 'I' for Inactive)
REMARK    1  A    between atoms: C_1  and  C_2
REMARK    2  A    between atoms: C_2  and  O_4
REMARK    3  A    between atoms: O_4  and  C_5
REMARK    4  A    between atoms: C_5  and  C_6
REMARK    5  A    between atoms: C_5  and  C_7
REMARK                            x       y       z     vdW  Elec       q    Type
REMARK                         _______ _______ _______ _____ _____    ______ ____
ROOT
ATOM      1  C   UNL     1       3.211   4.601  18.446  0.00  0.00    +0.000 C 
ATOM      2  C   UNL     1       4.498   4.773  18.122  0.00  0.00    +0.000 C 
ATOM      3 BR   UNL     1       5.834   5.336  19.266  0.00  0.00    +0.000 Br
ATOM      4  C   UNL     1       4.714   4.363  16.751  0.00  0.00    +0.000 C 
ATOM      5  C   UNL     1       5.756   4.496  15.904  0.00  0.00    +0.000 C 
ATOM      6 BR   UNL     1       7.371   5.393  16.216  0.00  0.00    +0.000 Br
ATOM      7 BR   UNL     1       5.666   3.794  14.147  0.00  0.00    +0.000 Br
ATOM      8  O   UNL     1       3.525   3.789  16.285  0.00  0.00    +0.000 OA
ATOM      9  C   UNL     1       2.594   4.012  17.252  0.00  0.00    +0.000 C 
ATOM     10  O   UNL     1       1.408   3.738  17.143  0.00  0.00    +0.000 OA
ENDROOT
BRANCH   1  11
ATOM     11  C   UNL     1       2.330   4.856  19.634  0.00  0.00    +0.000 C 
ATOM     12  C   UNL     1       2.270   6.294  20.146  0.00  0.00    +0.000 C 
BRANCH  11  13
ATOM     13  O   UNL     1       2.796   4.014  20.709  0.00  0.00    +0.000 OA
BRANCH  13  15
ATOM     14  C   UNL     1       0.655   3.104  20.380  0.00  0.00    +0.000 C 
ATOM     15  C   UNL     1       1.855   3.203  21.270  0.00  0.00    +0.000 C 
ATOM     16  O   UNL     1       1.957   2.638  22.350  0.00  0.00    +0.000 OA
ENDBRANCH  13  15
ENDBRANCH  11  13
ENDBRANCH   1  11
TORSDOF 3
ENDMDL
MODEL 9
REMARK VINA RESULT:      -5.5      1.712      1.825
REMARK  Name = 
REMARK  5 active torsions:
REMARK  status: ('A' for Active; 'I' for Inactive)
REMARK    1  A    between atoms: C_1  and  C_2
REMARK    2  A    between atoms: C_2  and  O_4
REMARK    3  A    between atoms: O_4  and  C_5
REMARK    4  A    between atoms: C_5  and  C_6
REMARK    5  A    between atoms: C_5  and  C_7
REMARK                            x       y       z     vdW  Elec       q    Type
REMARK                         _______ _______ _______ _____ _____    ______ ____
ROOT
ATOM      1  C   UNL     1       4.754   4.243  17.221  0.00  0.00    +0.000 C 
ATOM      2  C   UNL     1       4.054   5.238  17.778  0.00  0.00    +0.000 C 
ATOM      3 BR   UNL     1       4.299   7.041  17.461  0.00  0.00    +0.000 Br
ATOM      4  C   UNL     1       3.004   4.688  18.609  0.00  0.00    +0.000 C 
ATOM      5  C   UNL     1       2.156   5.237  19.504  0.00  0.00    +0.000 C 
ATOM      6 BR   UNL     1       2.101   7.020  20.077  0.00  0.00    +0.000 Br
ATOM      7 BR   UNL     1       0.876   4.168  20.401  0.00  0.00    +0.000 Br
ATOM      8  O   UNL     1       2.994   3.301  18.422  0.00  0.00    +0.000 OA
ATOM      9  C   UNL     1       4.094   3.013  17.673  0.00  0.00    +0.000 C 
ATOM     10  O   UNL     1       4.464   1.881  17.400  0.00  0.00    +0.000 OA
ENDROOT
BRANCH   1  11
ATOM     11  C   UNL     1       5.954   4.105  16.330  0.00  0.00    +0.000 C 
ATOM     12  C   UNL     1       7.305   4.480  16.937  0.00  0.00    +0.000 C 
BRANCH  11  13
ATOM     13  O   UNL     1       5.734   4.936  15.172  0.00  0.00    +0.000 OA
BRANCH  13  15
ATOM     14  C   UNL     1       6.204   3.694  13.234  0.00  0.00    +0.000 C 
ATOM     15  C   UNL     1       6.636   4.787  14.161  0.00  0.00    +0.000 C 
ATOM     16  O   UNL     1       7.663   5.438  14.024  0.00  0.00    +0.000 OA
ENDBRANCH  13  15
ENDBRANCH  11  13
ENDBRANCH   1  11
TORSDOF 3
ENDMDL
