MODEL 1
REMARK VINA RESULT:      -6.7      0.000      0.000
REMARK  Name = 
REMARK  7 active torsions:
REMARK  status: ('A' for Active; 'I' for Inactive)
REMARK    1  A    between atoms: C_1  and  C_2
REMARK    2  A    between atoms: C_2  and  C_3
REMARK    3  A    between atoms: C_3  and  C_4
REMARK    4  A    between atoms: C_4  and  N_5
REMARK    5  A    between atoms: N_5  and  C_6
REMARK    6  A    between atoms: C_6  and  C_7
REMARK    7  A    between atoms: C_12  and  C_13
REMARK                            x       y       z     vdW  Elec       q    Type
REMARK                         _______ _______ _______ _____ _____    ______ ____
ROOT
ATOM      1  C   UNL     1       4.311   3.089  17.969  0.00  0.00    +0.000 A 
ATOM      2  C   UNL     1       4.809   3.745  19.099  0.00  0.00    +0.000 A 
ATOM      3  C   UNL     1       5.592   4.893  18.958  0.00  0.00    +0.000 A 
ATOM      4  C   UNL     1       5.891   5.406  17.691  0.00  0.00    +0.000 A 
ATOM      5 CL   UNL     1       6.886   6.860  17.647  0.00  0.00    +0.000 Cl
ATOM      6  C   UNL     1       5.394   4.752  16.531  0.00  0.00    +0.000 A 
ATOM      7  C   UNL     1       4.604   3.597  16.694  0.00  0.00    +0.000 A 
ENDROOT
BRANCH   6   8
ATOM      8  C   UNL     1       5.652   5.213  15.107  0.00  0.00    +0.000 C 
ATOM      9  F   UNL     1       6.991   5.311  14.789  0.00  0.00    +0.000 F 
ATOM     10  F   UNL     1       5.068   4.319  14.228  0.00  0.00    +0.000 F 
ATOM     11  F   UNL     1       5.077   6.458  14.922  0.00  0.00    +0.000 F 
ENDBRANCH   6   8
BRANCH   1  12
ATOM     12  C   UNL     1       3.454   1.858  18.125  0.00  0.00    +0.000 C 
BRANCH  12  13
ATOM     13  N   UNL     1       2.081   2.121  17.675  0.00  0.00    +0.000 NA
ATOM     14  H   UNL     1       2.071   3.029  17.153  0.00  0.00    +0.000 HD
BRANCH  13  15
ATOM     15  C   UNL     1       1.182   2.232  18.833  0.00  0.00    +0.000 C 
BRANCH  15  16
ATOM     16  C   UNL     1       1.102   3.684  19.321  0.00  0.00    +0.000 C 
BRANCH  16  18
ATOM     17  C   UNL     1       2.126   2.734  21.435  0.00  0.00    +0.000 C 
ATOM     18  C   UNL     1       1.140   3.743  20.854  0.00  0.00    +0.000 C 
ENDBRANCH  16  18
ENDBRANCH  15  16
ENDBRANCH  13  15
ENDBRANCH  12  13
ENDBRANCH   1  12
TORSDOF 6
ENDMDL
MODEL 2
REMARK VINA RESULT:      -6.6      0.477      1.194
REMARK  Name = 
REMARK  7 active torsions:
REMARK  status: ('A' for Active; 'I' for Inactive)
REMARK    1  A    between atoms: C_1  and  C_2
REMARK    2  A    between atoms: C_2  and  C_3
REMARK    3  A    between atoms: C_3  and  C_4
REMARK    4  A    between atoms: C_4  and  N_5
REMARK    5  A    between atoms: N_5  and  C_6
REMARK    6  A    between atoms: C_6  and  C_7
REMARK    7  A    between atoms: C_12  and  C_13
REMARK                            x       y       z     vdW  Elec       q    Type
REMARK                         _______ _______ _______ _____ _____    ______ ____
ROOT
ATOM      1  C   UNL     1       4.268   3.160  18.092  0.00  0.00    +0.000 A 
ATOM      2  C   UNL     1       4.806   3.815  19.204  0.00  0.00    +0.000 A 
ATOM      3  C   UNL     1       5.620   4.937  19.034  0.00  0.00    +0.000 A 
ATOM      4  C   UNL     1       5.912   5.424  17.756  0.00  0.00    +0.000 A 
ATOM      5 CL   UNL     1       6.949   6.847  17.674  0.00  0.00    +0.000 Cl
ATOM      6  C   UNL     1       5.375   4.771  16.613  0.00  0.00    +0.000 A 
ATOM      7  C   UNL     1       4.554   3.643  16.805  0.00  0.00    +0.000 A 
ENDROOT
BRANCH   6   8
ATOM      8  C   UNL     1       5.622   5.205  15.179  0.00  0.00    +0.000 C 
ATOM      9  F   UNL     1       5.070   4.358  14.240  0.00  0.00    +0.000 F 
ATOM     10  F   UNL     1       5.084   6.464  14.988  0.00  0.00    +0.000 F 
ATOM     11  F   UNL     1       6.985   5.265  14.951  0.00  0.00    +0.000 F 
ENDBRANCH   6   8
BRANCH   1  12
ATOM     12  C   UNL     1       3.378   1.958  18.279  0.00  0.00    +0.000 C 
BRANCH  12  13
ATOM     13  N   UNL     1       2.052   2.197  17.695  0.00  0.00    +0.000 NA
ATOM     14  H   UNL     1       2.168   2.802  16.847  0.00  0.00    +0.000 HD
BRANCH  13  15
ATOM     15  C   UNL     1       1.192   2.897  18.659  0.00  0.00    +0.000 C 
BRANCH  15  16
ATOM     16  C   UNL     1       1.360   2.307  20.065  0.00  0.00    +0.000 C 
BRANCH  16  18
ATOM     17  C   UNL     1       1.456   4.807  20.466  0.00  0.00    +0.000 C 
ATOM     18  C   UNL     1       1.479   3.424  21.111  0.00  0.00    +0.000 C 
ENDBRANCH  16  18
ENDBRANCH  15  16
ENDBRANCH  13  15
ENDBRANCH  12  13
ENDBRANCH   1  12
TORSDOF 6
ENDMDL
MODEL 3
REMARK VINA RESULT:      -6.6      3.759      5.627
REMARK  Name = 
REMARK  7 active torsions:
REMARK  status: ('A' for Active; 'I' for Inactive)
REMARK    1  A    between atoms: C_1  and  C_2
REMARK    2  A    between atoms: C_2  and  C_3
REMARK    3  A    between atoms: C_3  and  C_4
REMARK    4  A    between atoms: C_4  and  N_5
REMARK    5  A    between atoms: N_5  and  C_6
REMARK    6  A    between atoms: C_6  and  C_7
REMARK    7  A    between atoms: C_12  and  C_13
REMARK                            x       y       z     vdW  Elec       q    Type
REMARK                         _______ _______ _______ _____ _____    ______ ____
ROOT
ATOM      1  C   UNL     1       4.107   4.652  17.054  0.00  0.00    +0.000 A 
ATOM      2  C   UNL     1       3.953   5.945  17.562  0.00  0.00    +0.000 A 
ATOM      3  C   UNL     1       3.143   6.172  18.676  0.00  0.00    +0.000 A 
ATOM      4  C   UNL     1       2.472   5.115  19.302  0.00  0.00    +0.000 A 
ATOM      5 CL   UNL     1       1.483   5.530  20.700  0.00  0.00    +0.000 Cl
ATOM      6  C   UNL     1       2.616   3.793  18.799  0.00  0.00    +0.000 A 
ATOM      7  C   UNL     1       3.439   3.585  17.676  0.00  0.00    +0.000 A 
ENDROOT
BRANCH   6   8
ATOM      8  C   UNL     1       1.939   2.569  19.392  0.00  0.00    +0.000 C 
ATOM      9  F   UNL     1       0.562   2.604  19.314  0.00  0.00    +0.000 F 
ATOM     10  F   UNL     1       2.379   1.441  18.724  0.00  0.00    +0.000 F 
ATOM     11  F   UNL     1       2.288   2.460  20.727  0.00  0.00    +0.000 F 
ENDBRANCH   6   8
BRANCH   1  12
ATOM     12  C   UNL     1       4.993   4.408  15.859  0.00  0.00    +0.000 C 
BRANCH  12  13
ATOM     13  N   UNL     1       6.227   3.718  16.259  0.00  0.00    +0.000 NA
ATOM     14  H   UNL     1       6.034   3.180  17.138  0.00  0.00    +0.000 HD
BRANCH  13  15
ATOM     15  C   UNL     1       7.290   4.696  16.528  0.00  0.00    +0.000 C 
BRANCH  15  16
ATOM     16  C   UNL     1       7.667   4.695  18.014  0.00  0.00    +0.000 C 
BRANCH  16  18
ATOM     17  C   UNL     1       7.462   7.164  17.480  0.00  0.00    +0.000 C 
ATOM     18  C   UNL     1       7.640   6.121  18.581  0.00  0.00    +0.000 C 
ENDBRANCH  16  18
ENDBRANCH  15  16
ENDBRANCH  13  15
ENDBRANCH  12  13
ENDBRANCH   1  12
TORSDOF 6
ENDMDL
MODEL 4
REMARK VINA RESULT:      -6.5      1.529      1.782
REMARK  Name = 
REMARK  7 active torsions:
REMARK  status: ('A' for Active; 'I' for Inactive)
REMARK    1  A    between atoms: C_1  and  C_2
REMARK    2  A    between atoms: C_2  and  C_3
REMARK    3  A    between atoms: C_3  and  C_4
REMARK    4  A    between atoms: C_4  and  N_5
REMARK    5  A    between atoms: N_5  and  C_6
REMARK    6  A    between atoms: C_6  and  C_7
REMARK    7  A    between atoms: C_12  and  C_13
REMARK                            x       y       z     vdW  Elec       q    Type
REMARK                         _______ _______ _______ _____ _____    ______ ____
ROOT
ATOM      1  C   UNL     1       3.101   4.829  17.482  0.00  0.00    +0.000 A 
ATOM      2  C   UNL     1       3.147   6.113  18.033  0.00  0.00    +0.000 A 
ATOM      3  C   UNL     1       4.315   6.873  17.950  0.00  0.00    +0.000 A 
ATOM      4  C   UNL     1       5.456   6.367  17.319  0.00  0.00    +0.000 A 
ATOM      5 CL   UNL     1       6.866   7.424  17.279  0.00  0.00    +0.000 Cl
ATOM      6  C   UNL     1       5.429   5.063  16.753  0.00  0.00    +0.000 A 
ATOM      7  C   UNL     1       4.241   4.313  16.845  0.00  0.00    +0.000 A 
ENDROOT
BRANCH   6   8
ATOM      8  C   UNL     1       6.603   4.408  16.045  0.00  0.00    +0.000 C 
ATOM      9  F   UNL     1       7.694   4.195  16.862  0.00  0.00    +0.000 F 
ATOM     10  F   UNL     1       6.201   3.186  15.539  0.00  0.00    +0.000 F 
ATOM     11  F   UNL     1       7.006   5.214  14.995  0.00  0.00    +0.000 F 
ENDBRANCH   6   8
BRANCH   1  12
ATOM     12  C   UNL     1       1.834   4.016  17.560  0.00  0.00    +0.000 C 
BRANCH  12  13
ATOM     13  N   UNL     1       2.139   2.579  17.588  0.00  0.00    +0.000 NA
ATOM     14  H   UNL     1       1.467   2.086  16.953  0.00  0.00    +0.000 HD
BRANCH  13  15
ATOM     15  C   UNL     1       1.974   2.054  18.950  0.00  0.00    +0.000 C 
BRANCH  15  16
ATOM     16  C   UNL     1       0.900   2.842  19.711  0.00  0.00    +0.000 C 
BRANCH  16  18
ATOM     17  C   UNL     1       2.229   4.364  21.240  0.00  0.00    +0.000 C 
ATOM     18  C   UNL     1       1.351   3.119  21.151  0.00  0.00    +0.000 C 
ENDBRANCH  16  18
ENDBRANCH  15  16
ENDBRANCH  13  15
ENDBRANCH  12  13
ENDBRANCH   1  12
TORSDOF 6
ENDMDL
MODEL 5
REMARK VINA RESULT:      -6.4      3.531      5.839
REMARK  Name = 
REMARK  7 active torsions:
REMARK  status: ('A' for Active; 'I' for Inactive)
REMARK    1  A    between atoms: C_1  and  C_2
REMARK    2  A    between atoms: C_2  and  C_3
REMARK    3  A    between atoms: C_3  and  C_4
REMARK    4  A    between atoms: C_4  and  N_5
REMARK    5  A    between atoms: N_5  and  C_6
REMARK    6  A    between atoms: C_6  and  C_7
REMARK    7  A    between atoms: C_12  and  C_13
REMARK                            x       y       z     vdW  Elec       q    Type
REMARK                         _______ _______ _______ _____ _____    ______ ____
ROOT
ATOM      1  C   UNL     1       5.562   5.005  16.574  0.00  0.00    +0.000 A 
ATOM      2  C   UNL     1       5.698   6.369  16.848  0.00  0.00    +0.000 A 
ATOM      3  C   UNL     1       4.664   7.069  17.472  0.00  0.00    +0.000 A 
ATOM      4  C   UNL     1       3.477   6.423  17.832  0.00  0.00    +0.000 A 
ATOM      5 CL   UNL     1       2.248   7.414  18.615  0.00  0.00    +0.000 Cl
ATOM      6  C   UNL     1       3.319   5.036  17.562  0.00  0.00    +0.000 A 
ATOM      7  C   UNL     1       4.375   4.347  16.934  0.00  0.00    +0.000 A 
ENDROOT
BRANCH   6   8
ATOM      8  C   UNL     1       2.079   4.228  17.905  0.00  0.00    +0.000 C 
ATOM      9  F   UNL     1       0.940   4.657  17.255  0.00  0.00    +0.000 F 
ATOM     10  F   UNL     1       2.293   2.905  17.566  0.00  0.00    +0.000 F 
ATOM     11  F   UNL     1       1.849   4.307  19.267  0.00  0.00    +0.000 F 
ENDBRANCH   6   8
BRANCH   1  12
ATOM     12  C   UNL     1       6.686   4.249  15.913  0.00  0.00    +0.000 C 
BRANCH  12  13
ATOM     13  N   UNL     1       7.452   5.131  15.023  0.00  0.00    +0.000 NA
ATOM     14  H   UNL     1       7.226   6.124  15.267  0.00  0.00    +0.000 HD
BRANCH  13  15
ATOM     15  C   UNL     1       7.073   4.890  13.624  0.00  0.00    +0.000 C 
BRANCH  15  16
ATOM     16  C   UNL     1       6.039   3.762  13.527  0.00  0.00    +0.000 C 
BRANCH  16  18
ATOM     17  C   UNL     1       4.535   3.211  11.563  0.00  0.00    +0.000 C 
ATOM     18  C   UNL     1       5.966   3.216  12.094  0.00  0.00    +0.000 C 
ENDBRANCH  16  18
ENDBRANCH  15  16
ENDBRANCH  13  15
ENDBRANCH  12  13
ENDBRANCH   1  12
TORSDOF 6
ENDMDL
MODEL 6
REMARK VINA RESULT:      -6.3      3.567      5.885
REMARK  Name = 
REMARK  7 active torsions:
REMARK  status: ('A' for Active; 'I' for Inactive)
REMARK    1  A    between atoms: C_1  and  C_2
REMARK    2  A    between atoms: C_2  and  C_3
REMARK    3  A    between atoms: C_3  and  C_4
REMARK    4  A    between atoms: C_4  and  N_5
REMARK    5  A    between atoms: N_5  and  C_6
REMARK    6  A    between atoms: C_6  and  C_7
REMARK    7  A    between atoms: C_12  and  C_13
REMARK                            x       y       z     vdW  Elec       q    Type
REMARK                         _______ _______ _______ _____ _____    ______ ____
ROOT
ATOM      1  C   UNL     1       5.597   5.148  15.833  0.00  0.00    +0.000 A 
ATOM      2  C   UNL     1       5.597   6.458  16.323  0.00  0.00    +0.000 A 
ATOM      3  C   UNL     1       4.657   6.852  17.277  0.00  0.00    +0.000 A 
ATOM      4  C   UNL     1       3.702   5.950  17.758  0.00  0.00    +0.000 A 
ATOM      5 CL   UNL     1       2.573   6.569  18.962  0.00  0.00    +0.000 Cl
ATOM      6  C   UNL     1       3.686   4.615  17.271  0.00  0.00    +0.000 A 
ATOM      7  C   UNL     1       4.644   4.236  16.311  0.00  0.00    +0.000 A 
ENDROOT
BRANCH   6   8
ATOM      8  C   UNL     1       2.700   3.549  17.717  0.00  0.00    +0.000 C 
ATOM      9  F   UNL     1       2.902   2.322  17.119  0.00  0.00    +0.000 F 
ATOM     10  F   UNL     1       2.803   3.380  19.085  0.00  0.00    +0.000 F 
ATOM     11  F   UNL     1       1.415   3.965  17.415  0.00  0.00    +0.000 F 
ENDBRANCH   6   8
BRANCH   1  12
ATOM     12  C   UNL     1       6.623   4.722  14.813  0.00  0.00    +0.000 C 
BRANCH  12  13
ATOM     13  N   UNL     1       6.198   3.491  14.134  0.00  0.00    +0.000 NA
ATOM     14  H   UNL     1       6.753   2.691  14.522  0.00  0.00    +0.000 HD
BRANCH  13  15
ATOM     15  C   UNL     1       6.462   3.592  12.692  0.00  0.00    +0.000 C 
BRANCH  15  16
ATOM     16  C   UNL     1       5.460   2.748  11.895  0.00  0.00    +0.000 C 
BRANCH  16  18
ATOM     17  C   UNL     1       3.373   2.907  10.466  0.00  0.00    +0.000 C 
ATOM     18  C   UNL     1       4.207   3.567  11.561  0.00  0.00    +0.000 C 
ENDBRANCH  16  18
ENDBRANCH  15  16
ENDBRANCH  13  15
ENDBRANCH  12  13
ENDBRANCH   1  12
TORSDOF 6
ENDMDL
MODEL 7
REMARK VINA RESULT:      -6.3      2.545      3.450
REMARK  Name = 
REMARK  7 active torsions:
REMARK  status: ('A' for Active; 'I' for Inactive)
REMARK    1  A    between atoms: C_1  and  C_2
REMARK    2  A    between atoms: C_2  and  C_3
REMARK    3  A    between atoms: C_3  and  C_4
REMARK    4  A    between atoms: C_4  and  N_5
REMARK    5  A    between atoms: N_5  and  C_6
REMARK    6  A    between atoms: C_6  and  C_7
REMARK    7  A    between atoms: C_12  and  C_13
REMARK                            x       y       z     vdW  Elec       q    Type
REMARK                         _______ _______ _______ _____ _____    ______ ____
ROOT
ATOM      1  C   UNL     1       3.713   5.565  18.858  0.00  0.00    +0.000 A 
ATOM      2  C   UNL     1       3.331   5.080  17.604  0.00  0.00    +0.000 A 
ATOM      3  C   UNL     1       4.299   4.712  16.667  0.00  0.00    +0.000 A 
ATOM      4  C   UNL     1       5.661   4.822  16.963  0.00  0.00    +0.000 A 
ATOM      5 CL   UNL     1       6.783   4.323  15.698  0.00  0.00    +0.000 Cl
ATOM      6  C   UNL     1       6.069   5.313  18.233  0.00  0.00    +0.000 A 
ATOM      7  C   UNL     1       5.078   5.677  19.165  0.00  0.00    +0.000 A 
ENDROOT
BRANCH   6   8
ATOM      8  C   UNL     1       7.515   5.478  18.668  0.00  0.00    +0.000 C 
ATOM      9  F   UNL     1       8.324   4.416  18.317  0.00  0.00    +0.000 F 
ATOM     10  F   UNL     1       8.035   6.621  18.089  0.00  0.00    +0.000 F 
ATOM     11  F   UNL     1       7.562   5.614  20.044  0.00  0.00    +0.000 F 
ENDBRANCH   6   8
BRANCH   1  12
ATOM     12  C   UNL     1       2.666   5.948  19.873  0.00  0.00    +0.000 C 
BRANCH  12  13
ATOM     13  N   UNL     1       2.505   4.890  20.878  0.00  0.00    +0.000 NA
ATOM     14  H   UNL     1       3.313   4.228  20.794  0.00  0.00    +0.000 HD
BRANCH  13  15
ATOM     15  C   UNL     1       1.259   4.149  20.638  0.00  0.00    +0.000 C 
BRANCH  15  16
ATOM     16  C   UNL     1       1.528   2.640  20.571  0.00  0.00    +0.000 C 
BRANCH  16  18
ATOM     17  C   UNL     1       3.068   1.768  18.756  0.00  0.00    +0.000 C 
ATOM     18  C   UNL     1       1.640   2.175  19.113  0.00  0.00    +0.000 C 
ENDBRANCH  16  18
ENDBRANCH  15  16
ENDBRANCH  13  15
ENDBRANCH  12  13
ENDBRANCH   1  12
TORSDOF 6
ENDMDL
MODEL 8
REMARK VINA RESULT:      -6.3      3.792      5.760
REMARK  Name = 
REMARK  7 active torsions:
REMARK  status: ('A' for Active; 'I' for Inactive)
REMARK    1  A    between atoms: C_1  and  C_2
REMARK    2  A    between atoms: C_2  and  C_3
REMARK    3  A    between atoms: C_3  and  C_4
REMARK    4  A    between atoms: C_4  and  N_5
REMARK    5  A    between atoms: N_5  and  C_6
REMARK    6  A    between atoms: C_6  and  C_7
REMARK    7  A    between atoms: C_12  and  C_13
REMARK                            x       y       z     vdW  Elec       q    Type
REMARK                         _______ _______ _______ _____ _____    ______ ____
ROOT
ATOM      1  C   UNL     1       4.193   4.753  17.098  0.00  0.00    +0.000 A 
ATOM      2  C   UNL     1       3.818   5.965  17.688  0.00  0.00    +0.000 A 
ATOM      3  C   UNL     1       2.882   5.983  18.724  0.00  0.00    +0.000 A 
ATOM      4  C   UNL     1       2.306   4.797  19.190  0.00  0.00    +0.000 A 
ATOM      5 CL   UNL     1       1.141   4.952  20.504  0.00  0.00    +0.000 Cl
ATOM      6  C   UNL     1       2.675   3.555  18.603  0.00  0.00    +0.000 A 
ATOM      7  C   UNL     1       3.621   3.558  17.561  0.00  0.00    +0.000 A 
ENDROOT
BRANCH   6   8
ATOM      8  C   UNL     1       2.118   2.206  19.023  0.00  0.00    +0.000 C 
ATOM      9  F   UNL     1       2.115   2.007  20.388  0.00  0.00    +0.000 F 
ATOM     10  F   UNL     1       0.816   2.093  18.571  0.00  0.00    +0.000 F 
ATOM     11  F   UNL     1       2.877   1.203  18.447  0.00  0.00    +0.000 F 
ENDBRANCH   6   8
BRANCH   1  12
ATOM     12  C   UNL     1       5.214   4.736  15.989  0.00  0.00    +0.000 C 
BRANCH  12  13
ATOM     13  N   UNL     1       6.429   4.027  16.412  0.00  0.00    +0.000 NA
ATOM     14  H   UNL     1       6.152   3.088  16.784  0.00  0.00    +0.000 HD
BRANCH  13  15
ATOM     15  C   UNL     1       7.106   4.777  17.479  0.00  0.00    +0.000 C 
BRANCH  15  16
ATOM     16  C   UNL     1       7.344   6.231  17.056  0.00  0.00    +0.000 C 
BRANCH  16  18
ATOM     17  C   UNL     1       8.042   8.528  17.869  0.00  0.00    +0.000 C 
ATOM     18  C   UNL     1       7.916   7.049  18.222  0.00  0.00    +0.000 C 
ENDBRANCH  16  18
ENDBRANCH  15  16
ENDBRANCH  13  15
ENDBRANCH  12  13
ENDBRANCH   1  12
TORSDOF 6
ENDMDL
MODEL 9
REMARK VINA RESULT:      -6.3      3.523      5.843
REMARK  Name = 
REMARK  7 active torsions:
REMARK  status: ('A' for Active; 'I' for Inactive)
REMARK    1  A    between atoms: C_1  and  C_2
REMARK    2  A    between atoms: C_2  and  C_3
REMARK    3  A    between atoms: C_3  and  C_4
REMARK    4  A    between atoms: C_4  and  N_5
REMARK    5  A    between atoms: N_5  and  C_6
REMARK    6  A    between atoms: C_6  and  C_7
REMARK    7  A    between atoms: C_12  and  C_13
REMARK                            x       y       z     vdW  Elec       q    Type
REMARK                         _______ _______ _______ _____ _____    ______ ____
ROOT
ATOM      1  C   UNL     1       5.491   4.937  16.515  0.00  0.00    +0.000 A 
ATOM      2  C   UNL     1       5.611   6.321  16.681  0.00  0.00    +0.000 A 
ATOM      3  C   UNL     1       4.586   7.047  17.291  0.00  0.00    +0.000 A 
ATOM      4  C   UNL     1       3.426   6.410  17.743  0.00  0.00    +0.000 A 
ATOM      5 CL   UNL     1       2.208   7.437  18.497  0.00  0.00    +0.000 Cl
ATOM      6  C   UNL     1       3.285   5.005  17.582  0.00  0.00    +0.000 A 
ATOM      7  C   UNL     1       4.331   4.289  16.967  0.00  0.00    +0.000 A 
ENDROOT
BRANCH   6   8
ATOM      8  C   UNL     1       2.075   4.204  18.031  0.00  0.00    +0.000 C 
ATOM      9  F   UNL     1       1.769   4.362  19.367  0.00  0.00    +0.000 F 
ATOM     10  F   UNL     1       0.974   4.593  17.291  0.00  0.00    +0.000 F 
ATOM     11  F   UNL     1       2.311   2.859  17.804  0.00  0.00    +0.000 F 
ENDBRANCH   6   8
BRANCH   1  12
ATOM     12  C   UNL     1       6.604   4.153  15.869  0.00  0.00    +0.000 C 
BRANCH  12  13
ATOM     13  N   UNL     1       6.090   3.334  14.763  0.00  0.00    +0.000 NA
ATOM     14  H   UNL     1       6.808   2.609  14.528  0.00  0.00    +0.000 HD
BRANCH  13  15
ATOM     15  C   UNL     1       5.858   4.171  13.578  0.00  0.00    +0.000 C 
BRANCH  15  16
ATOM     16  C   UNL     1       6.447   3.514  12.324  0.00  0.00    +0.000 C 
BRANCH  16  18
ATOM     17  C   UNL     1       4.176   3.224  11.237  0.00  0.00    +0.000 C 
ATOM     18  C   UNL     1       5.447   2.524  11.711  0.00  0.00    +0.000 C 
ENDBRANCH  16  18
ENDBRANCH  15  16
ENDBRANCH  13  15
ENDBRANCH  12  13
ENDBRANCH   1  12
TORSDOF 6
ENDMDL
