MODEL 1
REMARK VINA RESULT:      -7.4      0.000      0.000
REMARK  Name = 
REMARK  2 active torsions:
REMARK  status: ('A' for Active; 'I' for Inactive)
REMARK    1  A    between atoms: N_1  and  C_2
REMARK    2  A    between atoms: C_5  and  C_6
REMARK                            x       y       z     vdW  Elec       q    Type
REMARK                         _______ _______ _______ _____ _____    ______ ____
ROOT
ATOM      1  C   UNL     1       6.431   4.992  16.167  0.00  0.00    +0.000 A 
ATOM      2  C   UNL     1       5.329   4.205  15.844  0.00  0.00    +0.000 A 
ATOM      3  C   UNL     1       4.344   3.916  16.802  0.00  0.00    +0.000 A 
ATOM      4  C   UNL     1       4.457   4.346  18.136  0.00  0.00    +0.000 A 
ATOM      5  C   UNL     1       5.619   5.075  18.448  0.00  0.00    +0.000 A 
ATOM      6  F   UNL     1       5.868   5.457  19.712  0.00  0.00    +0.000 F 
ATOM      7  C   UNL     1       6.587   5.391  17.490  0.00  0.00    +0.000 A 
ENDROOT
BRANCH   4   8
ATOM      8  C   UNL     1       3.433   4.006  19.157  0.00  0.00    +0.000 A 
ATOM      9  C   UNL     1       2.218   4.706  19.257  0.00  0.00    +0.000 A 
ATOM     10  F   UNL     1       1.940   5.717  18.416  0.00  0.00    +0.000 F 
ATOM     11  C   UNL     1       1.241   4.389  20.206  0.00  0.00    +0.000 A 
ATOM     12  C   UNL     1       1.444   3.338  21.090  0.00  0.00    +0.000 A 
ATOM     13  C   UNL     1       2.632   2.622  21.026  0.00  0.00    +0.000 A 
ATOM     14  C   UNL     1       3.612   2.970  20.089  0.00  0.00    +0.000 A 
ATOM     15  F   UNL     1       4.764   2.279  20.136  0.00  0.00    +0.000 F 
ENDBRANCH   4   8
BRANCH   1  16
ATOM     16  N   UNL     1       7.471   5.164  15.248  0.00  0.00    +0.000 N 
ATOM     17  H   UNL     1       7.165   5.408  14.311  0.00  0.00    +0.000 HD
ATOM     18  H   UNL     1       8.220   5.766  15.577  0.00  0.00    +0.000 HD
ENDBRANCH   1  16
TORSDOF 2
ENDMDL
MODEL 2
REMARK VINA RESULT:      -7.4      0.957      2.658
REMARK  Name = 
REMARK  2 active torsions:
REMARK  status: ('A' for Active; 'I' for Inactive)
REMARK    1  A    between atoms: N_1  and  C_2
REMARK    2  A    between atoms: C_5  and  C_6
REMARK                            x       y       z     vdW  Elec       q    Type
REMARK                         _______ _______ _______ _____ _____    ______ ____
ROOT
ATOM      1  C   UNL     1       6.556   4.963  16.571  0.00  0.00    +0.000 A 
ATOM      2  C   UNL     1       6.666   5.314  17.914  0.00  0.00    +0.000 A 
ATOM      3  C   UNL     1       5.671   4.952  18.837  0.00  0.00    +0.000 A 
ATOM      4  C   UNL     1       4.498   4.287  18.442  0.00  0.00    +0.000 A 
ATOM      5  C   UNL     1       4.382   4.015  17.067  0.00  0.00    +0.000 A 
ATOM      6  F   UNL     1       3.262   3.463  16.571  0.00  0.00    +0.000 F 
ATOM      7  C   UNL     1       5.383   4.345  16.149  0.00  0.00    +0.000 A 
ENDROOT
BRANCH   4   8
ATOM      8  C   UNL     1       3.430   3.941  19.415  0.00  0.00    +0.000 A 
ATOM      9  C   UNL     1       3.552   2.859  20.303  0.00  0.00    +0.000 A 
ATOM     10  F   UNL     1       4.659   2.097  20.305  0.00  0.00    +0.000 F 
ATOM     11  C   UNL     1       2.559   2.529  21.232  0.00  0.00    +0.000 A 
ATOM     12  C   UNL     1       1.400   3.289  21.310  0.00  0.00    +0.000 A 
ATOM     13  C   UNL     1       1.238   4.365  20.448  0.00  0.00    +0.000 A 
ATOM     14  C   UNL     1       2.228   4.666  19.506  0.00  0.00    +0.000 A 
ATOM     15  F   UNL     1       1.969   5.675  18.658  0.00  0.00    +0.000 F 
ENDBRANCH   4   8
BRANCH   1  16
ATOM     16  N   UNL     1       7.481   5.440  15.637  0.00  0.00    +0.000 N 
ATOM     17  H   UNL     1       8.238   4.796  15.433  0.00  0.00    +0.000 HD
ATOM     18  H   UNL     1       7.062   5.822  14.795  0.00  0.00    +0.000 HD
ENDBRANCH   1  16
TORSDOF 2
ENDMDL
MODEL 3
REMARK VINA RESULT:      -7.4      0.079      2.066
REMARK  Name = 
REMARK  2 active torsions:
REMARK  status: ('A' for Active; 'I' for Inactive)
REMARK    1  A    between atoms: N_1  and  C_2
REMARK    2  A    between atoms: C_5  and  C_6
REMARK                            x       y       z     vdW  Elec       q    Type
REMARK                         _______ _______ _______ _____ _____    ______ ____
ROOT
ATOM      1  C   UNL     1       6.442   5.033  16.133  0.00  0.00    +0.000 A 
ATOM      2  C   UNL     1       5.356   4.226  15.803  0.00  0.00    +0.000 A 
ATOM      3  C   UNL     1       4.369   3.920  16.754  0.00  0.00    +0.000 A 
ATOM      4  C   UNL     1       4.466   4.351  18.089  0.00  0.00    +0.000 A 
ATOM      5  C   UNL     1       5.612   5.100  18.409  0.00  0.00    +0.000 A 
ATOM      6  F   UNL     1       5.847   5.486  19.675  0.00  0.00    +0.000 F 
ATOM      7  C   UNL     1       6.581   5.434  17.458  0.00  0.00    +0.000 A 
ENDROOT
BRANCH   4   8
ATOM      8  C   UNL     1       3.441   3.993  19.103  0.00  0.00    +0.000 A 
ATOM      9  C   UNL     1       3.649   2.973  20.047  0.00  0.00    +0.000 A 
ATOM     10  F   UNL     1       4.803   2.284  20.065  0.00  0.00    +0.000 F 
ATOM     11  C   UNL     1       2.697   2.634  21.014  0.00  0.00    +0.000 A 
ATOM     12  C   UNL     1       1.492   3.322  21.076  0.00  0.00    +0.000 A 
ATOM     13  C   UNL     1       1.246   4.335  20.160  0.00  0.00    +0.000 A 
ATOM     14  C   UNL     1       2.197   4.644  19.180  0.00  0.00    +0.000 A 
ATOM     15  F   UNL     1       1.858   5.586  18.284  0.00  0.00    +0.000 F 
ENDBRANCH   4   8
BRANCH   1  16
ATOM     16  N   UNL     1       7.484   5.223  15.221  0.00  0.00    +0.000 N 
ATOM     17  H   UNL     1       7.786   4.377  14.748  0.00  0.00    +0.000 HD
ATOM     18  H   UNL     1       7.335   5.993  14.576  0.00  0.00    +0.000 HD
ENDBRANCH   1  16
TORSDOF 2
ENDMDL
MODEL 4
REMARK VINA RESULT:      -7.4      0.956      1.671
REMARK  Name = 
REMARK  2 active torsions:
REMARK  status: ('A' for Active; 'I' for Inactive)
REMARK    1  A    between atoms: N_1  and  C_2
REMARK    2  A    between atoms: C_5  and  C_6
REMARK                            x       y       z     vdW  Elec       q    Type
REMARK                         _______ _______ _______ _____ _____    ______ ____
ROOT
ATOM      1  C   UNL     1       6.544   4.899  16.490  0.00  0.00    +0.000 A 
ATOM      2  C   UNL     1       6.710   5.227  17.833  0.00  0.00    +0.000 A 
ATOM      3  C   UNL     1       5.730   4.893  18.783  0.00  0.00    +0.000 A 
ATOM      4  C   UNL     1       4.519   4.282  18.416  0.00  0.00    +0.000 A 
ATOM      5  C   UNL     1       4.350   4.033  17.043  0.00  0.00    +0.000 A 
ATOM      6  F   UNL     1       3.193   3.533  16.575  0.00  0.00    +0.000 F 
ATOM      7  C   UNL     1       5.334   4.334  16.098  0.00  0.00    +0.000 A 
ENDROOT
BRANCH   4   8
ATOM      8  C   UNL     1       3.468   3.965  19.418  0.00  0.00    +0.000 A 
ATOM      9  C   UNL     1       2.312   4.752  19.561  0.00  0.00    +0.000 A 
ATOM     10  F   UNL     1       2.116   5.827  18.778  0.00  0.00    +0.000 F 
ATOM     11  C   UNL     1       1.310   4.458  20.492  0.00  0.00    +0.000 A 
ATOM     12  C   UNL     1       1.429   3.346  21.314  0.00  0.00    +0.000 A 
ATOM     13  C   UNL     1       2.557   2.544  21.207  0.00  0.00    +0.000 A 
ATOM     14  C   UNL     1       3.564   2.867  20.290  0.00  0.00    +0.000 A 
ATOM     15  F   UNL     1       4.658   2.086  20.295  0.00  0.00    +0.000 F 
ENDBRANCH   4   8
BRANCH   1  16
ATOM     16  N   UNL     1       7.459   5.351  15.534  0.00  0.00    +0.000 N 
ATOM     17  H   UNL     1       7.875   6.251  15.746  0.00  0.00    +0.000 HD
ATOM     18  H   UNL     1       8.152   4.660  15.264  0.00  0.00    +0.000 HD
ENDBRANCH   1  16
TORSDOF 2
ENDMDL
MODEL 5
REMARK VINA RESULT:      -7.2      1.221      1.255
REMARK  Name = 
REMARK  2 active torsions:
REMARK  status: ('A' for Active; 'I' for Inactive)
REMARK    1  A    between atoms: N_1  and  C_2
REMARK    2  A    between atoms: C_5  and  C_6
REMARK                            x       y       z     vdW  Elec       q    Type
REMARK                         _______ _______ _______ _____ _____    ______ ____
ROOT
ATOM      1  C   UNL     1       5.799   5.187  15.523  0.00  0.00    +0.000 A 
ATOM      2  C   UNL     1       5.582   3.831  15.752  0.00  0.00    +0.000 A 
ATOM      3  C   UNL     1       4.676   3.402  16.736  0.00  0.00    +0.000 A 
ATOM      4  C   UNL     1       4.005   4.311  17.573  0.00  0.00    +0.000 A 
ATOM      5  C   UNL     1       4.304   5.670  17.367  0.00  0.00    +0.000 A 
ATOM      6  F   UNL     1       3.785   6.614  18.170  0.00  0.00    +0.000 F 
ATOM      7  C   UNL     1       5.181   6.102  16.368  0.00  0.00    +0.000 A 
ENDROOT
BRANCH   4   8
ATOM      8  C   UNL     1       3.077   3.854  18.639  0.00  0.00    +0.000 A 
ATOM      9  C   UNL     1       1.684   4.010  18.534  0.00  0.00    +0.000 A 
ATOM     10  F   UNL     1       1.141   4.582  17.445  0.00  0.00    +0.000 F 
ATOM     11  C   UNL     1       0.798   3.574  19.525  0.00  0.00    +0.000 A 
ATOM     12  C   UNL     1       1.283   2.947  20.664  0.00  0.00    +0.000 A 
ATOM     13  C   UNL     1       2.653   2.774  20.809  0.00  0.00    +0.000 A 
ATOM     14  C   UNL     1       3.529   3.242  19.821  0.00  0.00    +0.000 A 
ATOM     15  F   UNL     1       4.843   3.104  20.065  0.00  0.00    +0.000 F 
ENDBRANCH   4   8
BRANCH   1  16
ATOM     16  N   UNL     1       6.798   5.602  14.636  0.00  0.00    +0.000 N 
ATOM     17  H   UNL     1       7.198   6.509  14.852  0.00  0.00    +0.000 HD
ATOM     18  H   UNL     1       7.509   4.900  14.454  0.00  0.00    +0.000 HD
ENDBRANCH   1  16
TORSDOF 2
ENDMDL
MODEL 6
REMARK VINA RESULT:      -7.2      1.118      2.255
REMARK  Name = 
REMARK  2 active torsions:
REMARK  status: ('A' for Active; 'I' for Inactive)
REMARK    1  A    between atoms: N_1  and  C_2
REMARK    2  A    between atoms: C_5  and  C_6
REMARK                            x       y       z     vdW  Elec       q    Type
REMARK                         _______ _______ _______ _____ _____    ______ ____
ROOT
ATOM      1  C   UNL     1       6.048   5.205  15.703  0.00  0.00    +0.000 A 
ATOM      2  C   UNL     1       5.739   3.856  15.849  0.00  0.00    +0.000 A 
ATOM      3  C   UNL     1       4.774   3.434  16.779  0.00  0.00    +0.000 A 
ATOM      4  C   UNL     1       4.132   4.338  17.644  0.00  0.00    +0.000 A 
ATOM      5  C   UNL     1       4.522   5.683  17.523  0.00  0.00    +0.000 A 
ATOM      6  F   UNL     1       4.035   6.615  18.360  0.00  0.00    +0.000 F 
ATOM      7  C   UNL     1       5.459   6.112  16.578  0.00  0.00    +0.000 A 
ENDROOT
BRANCH   4   8
ATOM      8  C   UNL     1       3.140   3.884  18.653  0.00  0.00    +0.000 A 
ATOM      9  C   UNL     1       3.523   3.218  19.829  0.00  0.00    +0.000 A 
ATOM     10  F   UNL     1       4.820   2.973  20.084  0.00  0.00    +0.000 F 
ATOM     11  C   UNL     1       2.601   2.796  20.792  0.00  0.00    +0.000 A 
ATOM     12  C   UNL     1       1.246   3.041  20.613  0.00  0.00    +0.000 A 
ATOM     13  C   UNL     1       0.825   3.694  19.462  0.00  0.00    +0.000 A 
ATOM     14  C   UNL     1       1.758   4.085  18.494  0.00  0.00    +0.000 A 
ATOM     15  F   UNL     1       1.268   4.646  17.376  0.00  0.00    +0.000 F 
ENDBRANCH   4   8
BRANCH   1  16
ATOM     16  N   UNL     1       7.101   5.603  14.873  0.00  0.00    +0.000 N 
ATOM     17  H   UNL     1       6.833   5.772  13.909  0.00  0.00    +0.000 HD
ATOM     18  H   UNL     1       7.668   6.355  15.253  0.00  0.00    +0.000 HD
ENDBRANCH   1  16
TORSDOF 2
ENDMDL
MODEL 7
REMARK VINA RESULT:      -7.1      1.689      1.965
REMARK  Name = 
REMARK  2 active torsions:
REMARK  status: ('A' for Active; 'I' for Inactive)
REMARK    1  A    between atoms: N_1  and  C_2
REMARK    2  A    between atoms: C_5  and  C_6
REMARK                            x       y       z     vdW  Elec       q    Type
REMARK                         _______ _______ _______ _____ _____    ______ ____
ROOT
ATOM      1  C   UNL     1       6.280   5.166  15.260  0.00  0.00    +0.000 A 
ATOM      2  C   UNL     1       6.080   3.902  15.810  0.00  0.00    +0.000 A 
ATOM      3  C   UNL     1       5.079   3.684  16.770  0.00  0.00    +0.000 A 
ATOM      4  C   UNL     1       4.285   4.733  17.266  0.00  0.00    +0.000 A 
ATOM      5  C   UNL     1       4.563   6.010  16.746  0.00  0.00    +0.000 A 
ATOM      6  F   UNL     1       3.923   7.095  17.216  0.00  0.00    +0.000 F 
ATOM      7  C   UNL     1       5.537   6.226  15.768  0.00  0.00    +0.000 A 
ENDROOT
BRANCH   4   8
ATOM      8  C   UNL     1       3.253   4.507  18.310  0.00  0.00    +0.000 A 
ATOM      9  C   UNL     1       2.060   3.814  18.042  0.00  0.00    +0.000 A 
ATOM     10  F   UNL     1       1.816   3.321  16.816  0.00  0.00    +0.000 F 
ATOM     11  C   UNL     1       1.085   3.583  19.019  0.00  0.00    +0.000 A 
ATOM     12  C   UNL     1       1.280   4.036  20.317  0.00  0.00    +0.000 A 
ATOM     13  C   UNL     1       2.444   4.727  20.623  0.00  0.00    +0.000 A 
ATOM     14  C   UNL     1       3.398   4.974  19.628  0.00  0.00    +0.000 A 
ATOM     15  F   UNL     1       4.463   5.712  19.982  0.00  0.00    +0.000 F 
ENDBRANCH   4   8
BRANCH   1  16
ATOM     16  N   UNL     1       7.362   5.402  14.406  0.00  0.00    +0.000 N 
ATOM     17  H   UNL     1       8.166   5.826  14.857  0.00  0.00    +0.000 HD
ATOM     18  H   UNL     1       7.619   4.604  13.832  0.00  0.00    +0.000 HD
ENDBRANCH   1  16
TORSDOF 2
ENDMDL
MODEL 8
REMARK VINA RESULT:      -7.1      1.675      2.052
REMARK  Name = 
REMARK  2 active torsions:
REMARK  status: ('A' for Active; 'I' for Inactive)
REMARK    1  A    between atoms: N_1  and  C_2
REMARK    2  A    between atoms: C_5  and  C_6
REMARK                            x       y       z     vdW  Elec       q    Type
REMARK                         _______ _______ _______ _____ _____    ______ ____
ROOT
ATOM      1  C   UNL     1       6.237   5.222  15.462  0.00  0.00    +0.000 A 
ATOM      2  C   UNL     1       6.098   3.948  16.007  0.00  0.00    +0.000 A 
ATOM      3  C   UNL     1       5.074   3.665  16.926  0.00  0.00    +0.000 A 
ATOM      4  C   UNL     1       4.194   4.660  17.386  0.00  0.00    +0.000 A 
ATOM      5  C   UNL     1       4.408   5.952  16.874  0.00  0.00    +0.000 A 
ATOM      6  F   UNL     1       3.680   6.993  17.314  0.00  0.00    +0.000 F 
ATOM      7  C   UNL     1       5.406   6.232  15.936  0.00  0.00    +0.000 A 
ENDROOT
BRANCH   4   8
ATOM      8  C   UNL     1       3.136   4.366  18.387  0.00  0.00    +0.000 A 
ATOM      9  C   UNL     1       3.132   4.956  19.663  0.00  0.00    +0.000 A 
ATOM     10  F   UNL     1       4.095   5.823  20.018  0.00  0.00    +0.000 F 
ATOM     11  C   UNL     1       2.136   4.697  20.610  0.00  0.00    +0.000 A 
ATOM     12  C   UNL     1       1.091   3.835  20.304  0.00  0.00    +0.000 A 
ATOM     13  C   UNL     1       1.060   3.229  19.056  0.00  0.00    +0.000 A 
ATOM     14  C   UNL     1       2.079   3.477  18.128  0.00  0.00    +0.000 A 
ATOM     15  F   UNL     1       2.019   2.799  16.970  0.00  0.00    +0.000 F 
ENDBRANCH   4   8
BRANCH   1  16
ATOM     16  N   UNL     1       7.336   5.529  14.653  0.00  0.00    +0.000 N 
ATOM     17  H   UNL     1       7.733   6.448  14.817  0.00  0.00    +0.000 HD
ATOM     18  H   UNL     1       8.045   4.802  14.623  0.00  0.00    +0.000 HD
ENDBRANCH   1  16
TORSDOF 2
ENDMDL
MODEL 9
REMARK VINA RESULT:      -7.1      1.145      2.098
REMARK  Name = 
REMARK  2 active torsions:
REMARK  status: ('A' for Active; 'I' for Inactive)
REMARK    1  A    between atoms: N_1  and  C_2
REMARK    2  A    between atoms: C_5  and  C_6
REMARK                            x       y       z     vdW  Elec       q    Type
REMARK                         _______ _______ _______ _____ _____    ______ ____
ROOT
ATOM      1  C   UNL     1       6.577   5.146  15.797  0.00  0.00    +0.000 A 
ATOM      2  C   UNL     1       5.397   4.658  15.241  0.00  0.00    +0.000 A 
ATOM      3  C   UNL     1       4.324   4.265  16.058  0.00  0.00    +0.000 A 
ATOM      4  C   UNL     1       4.414   4.281  17.461  0.00  0.00    +0.000 A 
ATOM      5  C   UNL     1       5.645   4.707  17.990  0.00  0.00    +0.000 A 
ATOM      6  F   UNL     1       5.867   4.677  19.315  0.00  0.00    +0.000 F 
ATOM      7  C   UNL     1       6.705   5.129  17.182  0.00  0.00    +0.000 A 
ENDROOT
BRANCH   4   8
ATOM      8  C   UNL     1       3.291   3.829  18.321  0.00  0.00    +0.000 A 
ATOM      9  C   UNL     1       2.954   2.471  18.457  0.00  0.00    +0.000 A 
ATOM     10  F   UNL     1       3.654   1.526  17.806  0.00  0.00    +0.000 F 
ATOM     11  C   UNL     1       1.907   2.031  19.273  0.00  0.00    +0.000 A 
ATOM     12  C   UNL     1       1.158   2.947  19.999  0.00  0.00    +0.000 A 
ATOM     13  C   UNL     1       1.457   4.298  19.892  0.00  0.00    +0.000 A 
ATOM     14  C   UNL     1       2.490   4.726  19.049  0.00  0.00    +0.000 A 
ATOM     15  F   UNL     1       2.671   6.053  18.941  0.00  0.00    +0.000 F 
ENDBRANCH   4   8
BRANCH   1  16
ATOM     16  N   UNL     1       7.685   5.409  14.985  0.00  0.00    +0.000 N 
ATOM     17  H   UNL     1       7.964   4.632  14.395  0.00  0.00    +0.000 HD
ATOM     18  H   UNL     1       7.624   6.281  14.470  0.00  0.00    +0.000 HD
ENDBRANCH   1  16
TORSDOF 2
ENDMDL
