MODEL 1
REMARK VINA RESULT:      -7.4      0.000      0.000
REMARK  Name = 
REMARK  12 active torsions:
REMARK  status: ('A' for Active; 'I' for Inactive)
REMARK    1  A    between atoms: C_1  and  C_2
REMARK    2  A    between atoms: C_2  and  C_3
REMARK    3  A    between atoms: C_2  and  C_4
REMARK    4  A    between atoms: C_4  and  C_5
REMARK    5  A    between atoms: C_5  and  N_6
REMARK    6  A    between atoms: C_5  and  C_7
REMARK    7  A    between atoms: N_9  and  C_10
REMARK    8  A    between atoms: C_10  and  C_11
REMARK    9  A    between atoms: C_14  and  C_15
REMARK   10  A    between atoms: C_19  and  C_20
REMARK   11  A    between atoms: C_20  and  O_22
REMARK   12  A    between atoms: C_23  and  N_24
REMARK                            x       y       z     vdW  Elec       q    Type
REMARK                         _______ _______ _______ _____ _____    ______ ____
ROOT
ATOM      1  C   UNL     1       5.870   5.044  16.067  0.00  0.00    +0.000 A 
ATOM      2  C   UNL     1       5.407   6.267  15.633  0.00  0.00    +0.000 A 
ATOM      3  C   UNL     1       4.434   6.685  16.572  0.00  0.00    +0.000 A 
ATOM      4  C   UNL     1       4.348   5.694  17.532  0.00  0.00    +0.000 A 
ATOM      5  O   UNL     1       5.242   4.698  17.236  0.00  0.00    +0.000 OA
ENDROOT
BRANCH   4   6
ATOM      6  C   UNL     1       3.508   5.535  18.726  0.00  0.00    +0.000 A 
ATOM      7  C   UNL     1       2.787   6.648  19.174  0.00  0.00    +0.000 A 
ATOM      8  N   UNL     1       1.923   6.651  20.215  0.00  0.00    +0.000 NA
ATOM      9  C   UNL     1       1.748   5.476  20.855  0.00  0.00    +0.000 A 
ATOM     10  C   UNL     1       2.415   4.307  20.513  0.00  0.00    +0.000 A 
ATOM     11  C   UNL     1       3.350   4.331  19.453  0.00  0.00    +0.000 A 
BRANCH  11  12
ATOM     12  N   UNL     1       3.974   3.122  19.024  0.00  0.00    +0.000 N 
ATOM     13  H   UNL     1       3.380   2.599  18.373  0.00  0.00    +0.000 HD
ATOM     14  H   UNL     1       4.178   2.521  19.831  0.00  0.00    +0.000 HD
ENDBRANCH  11  12
BRANCH  10  15
ATOM     15  C   UNL     1       2.053   3.103  21.295  0.00  0.00    +0.000 C 
ATOM     16  O   UNL     1       2.860   2.487  21.969  0.00  0.00    +0.000 OA
BRANCH  15  17
ATOM     17  O   UNL     1       0.741   2.789  21.235  0.00  0.00    +0.000 OA
ATOM     18  H   UNL     1       0.526   1.952  21.704  0.00  0.00    +0.000 HD
ENDBRANCH  15  17
ENDBRANCH  10  15
ENDBRANCH   4   6
BRANCH   1  19
ATOM     19  C   UNL     1       6.793   4.055  15.461  0.00  0.00    +0.000 C 
BRANCH  19  22
ATOM     20  C   UNL     1       6.631   3.964  13.042  0.00  0.00    +0.000 C 
ATOM     21  O   UNL     1       7.488   4.840  12.933  0.00  0.00    +0.000 OA
ATOM     22  N   UNL     1       6.233   3.468  14.265  0.00  0.00    +0.000 N 
ATOM     23  H   UNL     1       5.377   2.935  14.337  0.00  0.00    +0.000 HD
BRANCH  20  24
ATOM     24  C   UNL     1       5.931   3.351  11.805  0.00  0.00    +0.000 C 
BRANCH  24  25
ATOM     25  N   UNL     1       6.077   1.878  11.865  0.00  0.00    +0.000 NA
ATOM     26  H   UNL     1       5.271   1.514  12.387  0.00  0.00    +0.000 HD
ATOM     27  H   UNL     1       6.870   1.651  12.466  0.00  0.00    +0.000 HD
ENDBRANCH  24  25
BRANCH  24  28
ATOM     28  C   UNL     1       4.431   3.686  11.789  0.00  0.00    +0.000 C 
BRANCH  28  30
ATOM     29  C   UNL     1       2.494   2.249  10.941  0.00  0.00    +0.000 C 
ATOM     30  C   UNL     1       3.643   3.185  10.562  0.00  0.00    +0.000 C 
ATOM     31  C   UNL     1       3.090   4.383   9.783  0.00  0.00    +0.000 C 
ENDBRANCH  28  30
ENDBRANCH  24  28
ENDBRANCH  20  24
ENDBRANCH  19  22
ENDBRANCH   1  19
TORSDOF 10
ENDMDL
MODEL 2
REMARK VINA RESULT:      -7.2      2.441      3.488
REMARK  Name = 
REMARK  12 active torsions:
REMARK  status: ('A' for Active; 'I' for Inactive)
REMARK    1  A    between atoms: C_1  and  C_2
REMARK    2  A    between atoms: C_2  and  C_3
REMARK    3  A    between atoms: C_2  and  C_4
REMARK    4  A    between atoms: C_4  and  C_5
REMARK    5  A    between atoms: C_5  and  N_6
REMARK    6  A    between atoms: C_5  and  C_7
REMARK    7  A    between atoms: N_9  and  C_10
REMARK    8  A    between atoms: C_10  and  C_11
REMARK    9  A    between atoms: C_14  and  C_15
REMARK   10  A    between atoms: C_19  and  C_20
REMARK   11  A    between atoms: C_20  and  O_22
REMARK   12  A    between atoms: C_23  and  N_24
REMARK                            x       y       z     vdW  Elec       q    Type
REMARK                         _______ _______ _______ _____ _____    ______ ____
ROOT
ATOM      1  C   UNL     1       3.798   7.188  17.444  0.00  0.00    +0.000 A 
ATOM      2  C   UNL     1       2.802   7.872  18.107  0.00  0.00    +0.000 A 
ATOM      3  C   UNL     1       2.395   7.048  19.182  0.00  0.00    +0.000 A 
ATOM      4  C   UNL     1       3.161   5.898  19.122  0.00  0.00    +0.000 A 
ATOM      5  O   UNL     1       4.036   5.992  18.071  0.00  0.00    +0.000 OA
ENDROOT
BRANCH   4   6
ATOM      6  C   UNL     1       3.184   4.674  19.931  0.00  0.00    +0.000 A 
ATOM      7  C   UNL     1       2.106   4.434  20.792  0.00  0.00    +0.000 A 
ATOM      8  N   UNL     1       1.944   3.328  21.554  0.00  0.00    +0.000 NA
ATOM      9  C   UNL     1       2.905   2.387  21.457  0.00  0.00    +0.000 A 
ATOM     10  C   UNL     1       4.028   2.513  20.649  0.00  0.00    +0.000 A 
ATOM     11  C   UNL     1       4.206   3.696  19.895  0.00  0.00    +0.000 A 
BRANCH  11  12
ATOM     12  N   UNL     1       5.302   3.805  18.988  0.00  0.00    +0.000 N 
ATOM     13  H   UNL     1       6.186   3.972  19.479  0.00  0.00    +0.000 HD
ATOM     14  H   UNL     1       5.144   4.579  18.332  0.00  0.00    +0.000 HD
ENDBRANCH  11  12
BRANCH  10  15
ATOM     15  C   UNL     1       4.947   1.352  20.632  0.00  0.00    +0.000 C 
ATOM     16  O   UNL     1       5.638   1.042  21.587  0.00  0.00    +0.000 OA
BRANCH  15  17
ATOM     17  O   UNL     1       4.904   0.642  19.484  0.00  0.00    +0.000 OA
ATOM     18  H   UNL     1       5.670   0.821  18.893  0.00  0.00    +0.000 HD
ENDBRANCH  15  17
ENDBRANCH  10  15
ENDBRANCH   4   6
BRANCH   1  19
ATOM     19  C   UNL     1       4.531   7.465  16.186  0.00  0.00    +0.000 C 
BRANCH  19  22
ATOM     20  C   UNL     1       6.522   6.093  15.982  0.00  0.00    +0.000 C 
ATOM     21  O   UNL     1       7.148   6.862  16.709  0.00  0.00    +0.000 OA
ATOM     22  N   UNL     1       5.189   6.281  15.682  0.00  0.00    +0.000 N 
ATOM     23  H   UNL     1       4.772   5.781  14.909  0.00  0.00    +0.000 HD
BRANCH  20  24
ATOM     24  C   UNL     1       7.188   4.851  15.344  0.00  0.00    +0.000 C 
BRANCH  24  25
ATOM     25  N   UNL     1       7.702   3.982  16.429  0.00  0.00    +0.000 NA
ATOM     26  H   UNL     1       8.496   3.457  16.046  0.00  0.00    +0.000 HD
ATOM     27  H   UNL     1       7.010   3.256  16.623  0.00  0.00    +0.000 HD
ENDBRANCH  24  25
BRANCH  24  28
ATOM     28  C   UNL     1       6.179   4.039  14.515  0.00  0.00    +0.000 C 
BRANCH  28  30
ATOM     29  C   UNL     1       5.426   3.425  12.151  0.00  0.00    +0.000 C 
ATOM     30  C   UNL     1       6.613   3.694  13.077  0.00  0.00    +0.000 C 
ATOM     31  C   UNL     1       7.456   4.839  12.506  0.00  0.00    +0.000 C 
ENDBRANCH  28  30
ENDBRANCH  24  28
ENDBRANCH  20  24
ENDBRANCH  19  22
ENDBRANCH   1  19
TORSDOF 10
ENDMDL
MODEL 3
REMARK VINA RESULT:      -7.1      4.941      8.106
REMARK  Name = 
REMARK  12 active torsions:
REMARK  status: ('A' for Active; 'I' for Inactive)
REMARK    1  A    between atoms: C_1  and  C_2
REMARK    2  A    between atoms: C_2  and  C_3
REMARK    3  A    between atoms: C_2  and  C_4
REMARK    4  A    between atoms: C_4  and  C_5
REMARK    5  A    between atoms: C_5  and  N_6
REMARK    6  A    between atoms: C_5  and  C_7
REMARK    7  A    between atoms: N_9  and  C_10
REMARK    8  A    between atoms: C_10  and  C_11
REMARK    9  A    between atoms: C_14  and  C_15
REMARK   10  A    between atoms: C_19  and  C_20
REMARK   11  A    between atoms: C_20  and  O_22
REMARK   12  A    between atoms: C_23  and  N_24
REMARK                            x       y       z     vdW  Elec       q    Type
REMARK                         _______ _______ _______ _____ _____    ______ ____
ROOT
ATOM      1  C   UNL     1       1.697   8.613  19.179  0.00  0.00    +0.000 A 
ATOM      2  C   UNL     1       2.247   8.967  17.966  0.00  0.00    +0.000 A 
ATOM      3  C   UNL     1       3.044   7.874  17.553  0.00  0.00    +0.000 A 
ATOM      4  C   UNL     1       2.945   6.907  18.536  0.00  0.00    +0.000 A 
ATOM      5  O   UNL     1       2.102   7.349  19.522  0.00  0.00    +0.000 OA
ENDROOT
BRANCH   4   6
ATOM      6  C   UNL     1       3.557   5.582  18.695  0.00  0.00    +0.000 A 
ATOM      7  C   UNL     1       4.892   5.520  19.109  0.00  0.00    +0.000 A 
ATOM      8  N   UNL     1       5.580   4.383  19.364  0.00  0.00    +0.000 NA
ATOM      9  C   UNL     1       4.906   3.226  19.209  0.00  0.00    +0.000 A 
ATOM     10  C   UNL     1       3.583   3.155  18.791  0.00  0.00    +0.000 A 
ATOM     11  C   UNL     1       2.892   4.350  18.483  0.00  0.00    +0.000 A 
BRANCH  11  12
ATOM     12  N   UNL     1       1.507   4.306  18.145  0.00  0.00    +0.000 N 
ATOM     13  H   UNL     1       1.277   4.970  17.399  0.00  0.00    +0.000 HD
ATOM     14  H   UNL     1       0.933   4.529  18.966  0.00  0.00    +0.000 HD
ENDBRANCH  11  12
BRANCH  10  15
ATOM     15  C   UNL     1       2.994   1.798  18.731  0.00  0.00    +0.000 C 
ATOM     16  O   UNL     1       1.820   1.577  18.970  0.00  0.00    +0.000 OA
BRANCH  15  17
ATOM     17  O   UNL     1       3.864   0.845  18.331  0.00  0.00    +0.000 OA
ATOM     18  H   UNL     1       4.362   0.444  19.079  0.00  0.00    +0.000 HD
ENDBRANCH  15  17
ENDBRANCH  10  15
ENDBRANCH   4   6
BRANCH   1  19
ATOM     19  C   UNL     1       0.880   9.367  20.160  0.00  0.00    +0.000 C 
BRANCH  19  22
ATOM     20  C   UNL     1      -0.578  11.234  19.633  0.00  0.00    +0.000 C 
ATOM     21  O   UNL     1       0.222  12.023  20.132  0.00  0.00    +0.000 OA
ATOM     22  N   UNL     1      -0.332   9.878  19.561  0.00  0.00    +0.000 N 
ATOM     23  H   UNL     1      -1.091   9.239  19.369  0.00  0.00    +0.000 HD
BRANCH  20  24
ATOM     24  C   UNL     1      -1.931  11.705  19.048  0.00  0.00    +0.000 C 
BRANCH  24  25
ATOM     25  N   UNL     1      -2.202  13.078  19.536  0.00  0.00    +0.000 NA
ATOM     26  H   UNL     1      -2.278  13.026  20.558  0.00  0.00    +0.000 HD
ATOM     27  H   UNL     1      -3.141  13.350  19.242  0.00  0.00    +0.000 HD
ENDBRANCH  24  25
BRANCH  24  28
ATOM     28  C   UNL     1      -1.894  11.740  17.511  0.00  0.00    +0.000 C 
BRANCH  28  30
ATOM     29  C   UNL     1      -3.383   9.665  17.625  0.00  0.00    +0.000 C 
ATOM     30  C   UNL     1      -2.372  10.460  16.798  0.00  0.00    +0.000 C 
ATOM     31  C   UNL     1      -2.995  10.828  15.446  0.00  0.00    +0.000 C 
ENDBRANCH  28  30
ENDBRANCH  24  28
ENDBRANCH  20  24
ENDBRANCH  19  22
ENDBRANCH   1  19
TORSDOF 10
ENDMDL
MODEL 4
REMARK VINA RESULT:      -7.1      4.972      7.670
REMARK  Name = 
REMARK  12 active torsions:
REMARK  status: ('A' for Active; 'I' for Inactive)
REMARK    1  A    between atoms: C_1  and  C_2
REMARK    2  A    between atoms: C_2  and  C_3
REMARK    3  A    between atoms: C_2  and  C_4
REMARK    4  A    between atoms: C_4  and  C_5
REMARK    5  A    between atoms: C_5  and  N_6
REMARK    6  A    between atoms: C_5  and  C_7
REMARK    7  A    between atoms: N_9  and  C_10
REMARK    8  A    between atoms: C_10  and  C_11
REMARK    9  A    between atoms: C_14  and  C_15
REMARK   10  A    between atoms: C_19  and  C_20
REMARK   11  A    between atoms: C_20  and  O_22
REMARK   12  A    between atoms: C_23  and  N_24
REMARK                            x       y       z     vdW  Elec       q    Type
REMARK                         _______ _______ _______ _____ _____    ______ ____
ROOT
ATOM      1  C   UNL     1       2.035   8.616  18.815  0.00  0.00    +0.000 A 
ATOM      2  C   UNL     1       2.791   8.286  17.710  0.00  0.00    +0.000 A 
ATOM      3  C   UNL     1       3.153   6.928  17.863  0.00  0.00    +0.000 A 
ATOM      4  C   UNL     1       2.605   6.495  19.056  0.00  0.00    +0.000 A 
ATOM      5  O   UNL     1       1.901   7.522  19.630  0.00  0.00    +0.000 OA
ENDROOT
BRANCH   4   6
ATOM      6  C   UNL     1       2.656   5.211  19.767  0.00  0.00    +0.000 A 
ATOM      7  C   UNL     1       1.566   4.863  20.572  0.00  0.00    +0.000 A 
ATOM      8  N   UNL     1       1.429   3.694  21.240  0.00  0.00    +0.000 NA
ATOM      9  C   UNL     1       2.429   2.800  21.097  0.00  0.00    +0.000 A 
ATOM     10  C   UNL     1       3.568   3.034  20.337  0.00  0.00    +0.000 A 
ATOM     11  C   UNL     1       3.718   4.279  19.684  0.00  0.00    +0.000 A 
BRANCH  11  12
ATOM     12  N   UNL     1       4.832   4.503  18.821  0.00  0.00    +0.000 N 
ATOM     13  H   UNL     1       4.606   5.166  18.075  0.00  0.00    +0.000 HD
ATOM     14  H   UNL     1       5.132   3.620  18.392  0.00  0.00    +0.000 HD
ENDBRANCH  11  12
BRANCH  10  15
ATOM     15  C   UNL     1       4.533   1.915  20.255  0.00  0.00    +0.000 C 
ATOM     16  O   UNL     1       5.210   1.556  21.203  0.00  0.00    +0.000 OA
BRANCH  15  17
ATOM     17  O   UNL     1       4.549   1.296  19.055  0.00  0.00    +0.000 OA
ATOM     18  H   UNL     1       5.412   0.866  18.857  0.00  0.00    +0.000 HD
ENDBRANCH  15  17
ENDBRANCH  10  15
ENDBRANCH   4   6
BRANCH   1  19
ATOM     19  C   UNL     1       1.473   9.903  19.290  0.00  0.00    +0.000 C 
BRANCH  19  22
ATOM     20  C   UNL     1      -0.813  10.629  18.918  0.00  0.00    +0.000 C 
ATOM     21  O   UNL     1      -1.068  10.496  20.114  0.00  0.00    +0.000 OA
ATOM     22  N   UNL     1       0.444  10.393  18.401  0.00  0.00    +0.000 N 
ATOM     23  H   UNL     1       0.564  10.279  17.404  0.00  0.00    +0.000 HD
BRANCH  20  24
ATOM     24  C   UNL     1      -1.889  11.070  17.899  0.00  0.00    +0.000 C 
BRANCH  24  25
ATOM     25  N   UNL     1      -1.403  12.281  17.196  0.00  0.00    +0.000 NA
ATOM     26  H   UNL     1      -0.950  11.967  16.330  0.00  0.00    +0.000 HD
ATOM     27  H   UNL     1      -0.634  12.684  17.732  0.00  0.00    +0.000 HD
ENDBRANCH  24  25
BRANCH  24  28
ATOM     28  C   UNL     1      -2.149   9.977  16.850  0.00  0.00    +0.000 C 
BRANCH  28  30
ATOM     29  C   UNL     1      -4.501  10.975  16.825  0.00  0.00    +0.000 C 
ATOM     30  C   UNL     1      -3.507  10.048  16.125  0.00  0.00    +0.000 C 
ATOM     31  C   UNL     1      -3.296  10.523  14.683  0.00  0.00    +0.000 C 
ENDBRANCH  28  30
ENDBRANCH  24  28
ENDBRANCH  20  24
ENDBRANCH  19  22
ENDBRANCH   1  19
TORSDOF 10
ENDMDL
MODEL 5
REMARK VINA RESULT:      -7.1      2.743      4.222
REMARK  Name = 
REMARK  12 active torsions:
REMARK  status: ('A' for Active; 'I' for Inactive)
REMARK    1  A    between atoms: C_1  and  C_2
REMARK    2  A    between atoms: C_2  and  C_3
REMARK    3  A    between atoms: C_2  and  C_4
REMARK    4  A    between atoms: C_4  and  C_5
REMARK    5  A    between atoms: C_5  and  N_6
REMARK    6  A    between atoms: C_5  and  C_7
REMARK    7  A    between atoms: N_9  and  C_10
REMARK    8  A    between atoms: C_10  and  C_11
REMARK    9  A    between atoms: C_14  and  C_15
REMARK   10  A    between atoms: C_19  and  C_20
REMARK   11  A    between atoms: C_20  and  O_22
REMARK   12  A    between atoms: C_23  and  N_24
REMARK                            x       y       z     vdW  Elec       q    Type
REMARK                         _______ _______ _______ _____ _____    ______ ____
ROOT
ATOM      1  C   UNL     1       5.113   4.284  18.464  0.00  0.00    +0.000 A 
ATOM      2  C   UNL     1       4.339   3.335  19.097  0.00  0.00    +0.000 A 
ATOM      3  C   UNL     1       3.213   4.016  19.616  0.00  0.00    +0.000 A 
ATOM      4  C   UNL     1       3.355   5.348  19.277  0.00  0.00    +0.000 A 
ATOM      5  O   UNL     1       4.508   5.511  18.552  0.00  0.00    +0.000 OA
ENDROOT
BRANCH   4   6
ATOM      6  C   UNL     1       2.541   6.538  19.554  0.00  0.00    +0.000 A 
ATOM      7  C   UNL     1       1.854   6.595  20.772  0.00  0.00    +0.000 A 
ATOM      8  N   UNL     1       1.116   7.643  21.205  0.00  0.00    +0.000 NA
ATOM      9  C   UNL     1       1.057   8.715  20.388  0.00  0.00    +0.000 A 
ATOM     10  C   UNL     1       1.685   8.775  19.150  0.00  0.00    +0.000 A 
ATOM     11  C   UNL     1       2.413   7.653  18.691  0.00  0.00    +0.000 A 
BRANCH  11  12
ATOM     12  N   UNL     1       3.143   7.728  17.468  0.00  0.00    +0.000 N 
ATOM     13  H   UNL     1       3.636   8.621  17.375  0.00  0.00    +0.000 HD
ATOM     14  H   UNL     1       2.509   7.623  16.668  0.00  0.00    +0.000 HD
ENDBRANCH  11  12
BRANCH  10  15
ATOM     15  C   UNL     1       1.552  10.054  18.418  0.00  0.00    +0.000 C 
ATOM     16  O   UNL     1       2.167  10.296  17.394  0.00  0.00    +0.000 OA
BRANCH  15  17
ATOM     17  O   UNL     1       0.647  10.899  18.958  0.00  0.00    +0.000 OA
ATOM     18  H   UNL     1       0.604  10.838  19.939  0.00  0.00    +0.000 HD
ENDBRANCH  15  17
ENDBRANCH  10  15
ENDBRANCH   4   6
BRANCH   1  19
ATOM     19  C   UNL     1       6.455   4.220  17.838  0.00  0.00    +0.000 C 
BRANCH  19  22
ATOM     20  C   UNL     1       6.893   5.202  15.663  0.00  0.00    +0.000 C 
ATOM     21  O   UNL     1       7.486   6.144  16.187  0.00  0.00    +0.000 OA
ATOM     22  N   UNL     1       6.367   4.160  16.396  0.00  0.00    +0.000 N 
ATOM     23  H   UNL     1       5.692   3.538  15.973  0.00  0.00    +0.000 HD
BRANCH  20  24
ATOM     24  C   UNL     1       6.691   5.118  14.131  0.00  0.00    +0.000 C 
BRANCH  24  25
ATOM     25  N   UNL     1       7.967   5.476  13.467  0.00  0.00    +0.000 NA
ATOM     26  H   UNL     1       8.376   4.606  13.108  0.00  0.00    +0.000 HD
ATOM     27  H   UNL     1       8.634   5.775  14.180  0.00  0.00    +0.000 HD
ENDBRANCH  24  25
BRANCH  24  28
ATOM     28  C   UNL     1       6.304   3.696  13.695  0.00  0.00    +0.000 C 
BRANCH  28  30
ATOM     29  C   UNL     1       6.838   2.227  11.672  0.00  0.00    +0.000 C 
ATOM     30  C   UNL     1       6.126   3.482  12.179  0.00  0.00    +0.000 C 
ATOM     31  C   UNL     1       4.632   3.390  11.846  0.00  0.00    +0.000 C 
ENDBRANCH  28  30
ENDBRANCH  24  28
ENDBRANCH  20  24
ENDBRANCH  19  22
ENDBRANCH   1  19
TORSDOF 10
ENDMDL
MODEL 6
REMARK VINA RESULT:      -7.0      2.820      3.833
REMARK  Name = 
REMARK  12 active torsions:
REMARK  status: ('A' for Active; 'I' for Inactive)
REMARK    1  A    between atoms: C_1  and  C_2
REMARK    2  A    between atoms: C_2  and  C_3
REMARK    3  A    between atoms: C_2  and  C_4
REMARK    4  A    between atoms: C_4  and  C_5
REMARK    5  A    between atoms: C_5  and  N_6
REMARK    6  A    between atoms: C_5  and  C_7
REMARK    7  A    between atoms: N_9  and  C_10
REMARK    8  A    between atoms: C_10  and  C_11
REMARK    9  A    between atoms: C_14  and  C_15
REMARK   10  A    between atoms: C_19  and  C_20
REMARK   11  A    between atoms: C_20  and  O_22
REMARK   12  A    between atoms: C_23  and  N_24
REMARK                            x       y       z     vdW  Elec       q    Type
REMARK                         _______ _______ _______ _____ _____    ______ ____
ROOT
ATOM      1  C   UNL     1       4.050   4.489  17.130  0.00  0.00    +0.000 A 
ATOM      2  C   UNL     1       2.906   3.794  17.462  0.00  0.00    +0.000 A 
ATOM      3  C   UNL     1       2.011   4.736  18.020  0.00  0.00    +0.000 A 
ATOM      4  C   UNL     1       2.653   5.961  18.006  0.00  0.00    +0.000 A 
ATOM      5  O   UNL     1       3.894   5.815  17.441  0.00  0.00    +0.000 OA
ENDROOT
BRANCH   4   6
ATOM      6  C   UNL     1       2.260   7.296  18.473  0.00  0.00    +0.000 A 
ATOM      7  C   UNL     1       2.209   8.332  17.533  0.00  0.00    +0.000 A 
ATOM      8  N   UNL     1       1.806   9.599  17.787  0.00  0.00    +0.000 NA
ATOM      9  C   UNL     1       1.416   9.863  19.051  0.00  0.00    +0.000 A 
ATOM     10  C   UNL     1       1.433   8.924  20.074  0.00  0.00    +0.000 A 
ATOM     11  C   UNL     1       1.902   7.618  19.804  0.00  0.00    +0.000 A 
BRANCH  11  12
ATOM     12  N   UNL     1       1.837   6.613  20.815  0.00  0.00    +0.000 N 
ATOM     13  H   UNL     1       1.718   5.678  20.414  0.00  0.00    +0.000 HD
ATOM     14  H   UNL     1       1.051   6.797  21.449  0.00  0.00    +0.000 HD
ENDBRANCH  11  12
BRANCH  10  15
ATOM     15  C   UNL     1       0.918   9.384  21.383  0.00  0.00    +0.000 C 
ATOM     16  O   UNL     1       1.407   9.037  22.444  0.00  0.00    +0.000 OA
BRANCH  15  17
ATOM     17  O   UNL     1      -0.102  10.264  21.288  0.00  0.00    +0.000 OA
ATOM     18  H   UNL     1      -0.535  10.255  20.404  0.00  0.00    +0.000 HD
ENDBRANCH  15  17
ENDBRANCH  10  15
ENDBRANCH   4   6
BRANCH   1  19
ATOM     19  C   UNL     1       5.373   4.049  16.628  0.00  0.00    +0.000 C 
BRANCH  19  22
ATOM     20  C   UNL     1       6.828   4.556  14.753  0.00  0.00    +0.000 C 
ATOM     21  O   UNL     1       7.823   4.381  15.455  0.00  0.00    +0.000 OA
ATOM     22  N   UNL     1       5.547   4.380  15.231  0.00  0.00    +0.000 N 
ATOM     23  H   UNL     1       4.762   4.755  14.715  0.00  0.00    +0.000 HD
BRANCH  20  24
ATOM     24  C   UNL     1       6.942   4.992  13.273  0.00  0.00    +0.000 C 
BRANCH  24  25
ATOM     25  N   UNL     1       8.184   5.782  13.108  0.00  0.00    +0.000 NA
ATOM     26  H   UNL     1       8.812   5.238  12.505  0.00  0.00    +0.000 HD
ATOM     27  H   UNL     1       8.678   5.805  14.002  0.00  0.00    +0.000 HD
ENDBRANCH  24  25
BRANCH  24  28
ATOM     28  C   UNL     1       7.018   3.775  12.336  0.00  0.00    +0.000 C 
BRANCH  28  30
ATOM     29  C   UNL     1       4.555   3.620  11.671  0.00  0.00    +0.000 C 
ATOM     30  C   UNL     1       5.756   2.892  12.275  0.00  0.00    +0.000 C 
ATOM     31  C   UNL     1       6.052   1.629  11.459  0.00  0.00    +0.000 C 
ENDBRANCH  28  30
ENDBRANCH  24  28
ENDBRANCH  20  24
ENDBRANCH  19  22
ENDBRANCH   1  19
TORSDOF 10
ENDMDL
MODEL 7
REMARK VINA RESULT:      -7.0      3.298      5.586
REMARK  Name = 
REMARK  12 active torsions:
REMARK  status: ('A' for Active; 'I' for Inactive)
REMARK    1  A    between atoms: C_1  and  C_2
REMARK    2  A    between atoms: C_2  and  C_3
REMARK    3  A    between atoms: C_2  and  C_4
REMARK    4  A    between atoms: C_4  and  C_5
REMARK    5  A    between atoms: C_5  and  N_6
REMARK    6  A    between atoms: C_5  and  C_7
REMARK    7  A    between atoms: N_9  and  C_10
REMARK    8  A    between atoms: C_10  and  C_11
REMARK    9  A    between atoms: C_14  and  C_15
REMARK   10  A    between atoms: C_19  and  C_20
REMARK   11  A    between atoms: C_20  and  O_22
REMARK   12  A    between atoms: C_23  and  N_24
REMARK                            x       y       z     vdW  Elec       q    Type
REMARK                         _______ _______ _______ _____ _____    ______ ____
ROOT
ATOM      1  C   UNL     1       3.246   4.039  20.089  0.00  0.00    +0.000 A 
ATOM      2  C   UNL     1       2.107   3.925  20.857  0.00  0.00    +0.000 A 
ATOM      3  C   UNL     1       1.427   5.160  20.753  0.00  0.00    +0.000 A 
ATOM      4  C   UNL     1       2.185   5.971  19.929  0.00  0.00    +0.000 A 
ATOM      5  O   UNL     1       3.289   5.278  19.503  0.00  0.00    +0.000 OA
ENDROOT
BRANCH   4   6
ATOM      6  C   UNL     1       2.023   7.357  19.474  0.00  0.00    +0.000 A 
ATOM      7  C   UNL     1       2.322   7.650  18.138  0.00  0.00    +0.000 A 
ATOM      8  N   UNL     1       2.165   8.857  17.548  0.00  0.00    +0.000 NA
ATOM      9  C   UNL     1       1.670   9.844  18.322  0.00  0.00    +0.000 A 
ATOM     10  C   UNL     1       1.347   9.683  19.664  0.00  0.00    +0.000 A 
ATOM     11  C   UNL     1       1.562   8.427  20.278  0.00  0.00    +0.000 A 
BRANCH  11  12
ATOM     12  N   UNL     1       1.149   8.213  21.627  0.00  0.00    +0.000 N 
ATOM     13  H   UNL     1       1.874   7.742  22.176  0.00  0.00    +0.000 HD
ATOM     14  H   UNL     1       0.299   7.638  21.651  0.00  0.00    +0.000 HD
ENDBRANCH  11  12
BRANCH  10  15
ATOM     15  C   UNL     1       0.766  10.866  20.338  0.00  0.00    +0.000 C 
ATOM     16  O   UNL     1       0.929  11.097  21.523  0.00  0.00    +0.000 OA
BRANCH  15  17
ATOM     17  O   UNL     1       0.092  11.689  19.506  0.00  0.00    +0.000 OA
ATOM     18  H   UNL     1      -0.404  12.393  19.982  0.00  0.00    +0.000 HD
ENDBRANCH  15  17
ENDBRANCH  10  15
ENDBRANCH   4   6
BRANCH   1  19
ATOM     19  C   UNL     1       4.410   3.143  19.891  0.00  0.00    +0.000 C 
BRANCH  19  22
ATOM     20  C   UNL     1       6.104   4.306  18.600  0.00  0.00    +0.000 C 
ATOM     21  O   UNL     1       6.525   4.858  19.615  0.00  0.00    +0.000 OA
ATOM     22  N   UNL     1       5.067   3.397  18.629  0.00  0.00    +0.000 N 
ATOM     23  H   UNL     1       4.594   3.147  17.771  0.00  0.00    +0.000 HD
BRANCH  20  24
ATOM     24  C   UNL     1       6.708   4.596  17.205  0.00  0.00    +0.000 C 
BRANCH  24  25
ATOM     25  N   UNL     1       8.154   4.273  17.243  0.00  0.00    +0.000 NA
ATOM     26  H   UNL     1       8.664   5.152  17.098  0.00  0.00    +0.000 HD
ATOM     27  H   UNL     1       8.388   3.725  16.414  0.00  0.00    +0.000 HD
ENDBRANCH  24  25
BRANCH  24  28
ATOM     28  C   UNL     1       6.050   3.729  16.119  0.00  0.00    +0.000 C 
BRANCH  28  30
ATOM     29  C   UNL     1       5.493   6.010  15.110  0.00  0.00    +0.000 C 
ATOM     30  C   UNL     1       5.324   4.495  14.996  0.00  0.00    +0.000 C 
ATOM     31  C   UNL     1       5.846   4.025  13.633  0.00  0.00    +0.000 C 
ENDBRANCH  28  30
ENDBRANCH  24  28
ENDBRANCH  20  24
ENDBRANCH  19  22
ENDBRANCH   1  19
TORSDOF 10
ENDMDL
MODEL 8
REMARK VINA RESULT:      -7.0      1.999      3.034
REMARK  Name = 
REMARK  12 active torsions:
REMARK  status: ('A' for Active; 'I' for Inactive)
REMARK    1  A    between atoms: C_1  and  C_2
REMARK    2  A    between atoms: C_2  and  C_3
REMARK    3  A    between atoms: C_2  and  C_4
REMARK    4  A    between atoms: C_4  and  C_5
REMARK    5  A    between atoms: C_5  and  N_6
REMARK    6  A    between atoms: C_5  and  C_7
REMARK    7  A    between atoms: N_9  and  C_10
REMARK    8  A    between atoms: C_10  and  C_11
REMARK    9  A    between atoms: C_14  and  C_15
REMARK   10  A    between atoms: C_19  and  C_20
REMARK   11  A    between atoms: C_20  and  O_22
REMARK   12  A    between atoms: C_23  and  N_24
REMARK                            x       y       z     vdW  Elec       q    Type
REMARK                         _______ _______ _______ _____ _____    ______ ____
ROOT
ATOM      1  C   UNL     1       4.163   7.013  17.204  0.00  0.00    +0.000 A 
ATOM      2  C   UNL     1       3.139   7.748  17.761  0.00  0.00    +0.000 A 
ATOM      3  C   UNL     1       2.642   6.989  18.845  0.00  0.00    +0.000 A 
ATOM      4  C   UNL     1       3.385   5.824  18.897  0.00  0.00    +0.000 A 
ATOM      5  O   UNL     1       4.331   5.847  17.905  0.00  0.00    +0.000 OA
ENDROOT
BRANCH   4   6
ATOM      6  C   UNL     1       3.326   4.643  19.767  0.00  0.00    +0.000 A 
ATOM      7  C   UNL     1       2.220   4.506  20.615  0.00  0.00    +0.000 A 
ATOM      8  N   UNL     1       1.984   3.450  21.428  0.00  0.00    +0.000 NA
ATOM      9  C   UNL     1       2.894   2.455  21.399  0.00  0.00    +0.000 A 
ATOM     10  C   UNL     1       4.038   2.480  20.611  0.00  0.00    +0.000 A 
ATOM     11  C   UNL     1       4.294   3.611  19.802  0.00  0.00    +0.000 A 
BRANCH  11  12
ATOM     12  N   UNL     1       5.411   3.616  18.915  0.00  0.00    +0.000 N 
ATOM     13  H   UNL     1       5.154   3.283  17.980  0.00  0.00    +0.000 HD
ATOM     14  H   UNL     1       6.158   3.014  19.280  0.00  0.00    +0.000 HD
ENDBRANCH  11  12
BRANCH  10  15
ATOM     15  C   UNL     1       4.892   1.273  20.671  0.00  0.00    +0.000 C 
ATOM     16  O   UNL     1       5.003   0.494  19.741  0.00  0.00    +0.000 OA
BRANCH  15  17
ATOM     17  O   UNL     1       5.579   1.150  21.828  0.00  0.00    +0.000 OA
ATOM     18  H   UNL     1       6.527   0.926  21.689  0.00  0.00    +0.000 HD
ENDBRANCH  15  17
ENDBRANCH  10  15
ENDBRANCH   4   6
BRANCH   1  19
ATOM     19  C   UNL     1       4.986   7.211  15.987  0.00  0.00    +0.000 C 
BRANCH  19  22
ATOM     20  C   UNL     1       6.591   5.512  15.335  0.00  0.00    +0.000 C 
ATOM     21  O   UNL     1       7.493   6.116  15.915  0.00  0.00    +0.000 OA
ATOM     22  N   UNL     1       5.285   5.954  15.338  0.00  0.00    +0.000 N 
ATOM     23  H   UNL     1       4.626   5.579  14.670  0.00  0.00    +0.000 HD
BRANCH  20  24
ATOM     24  C   UNL     1       6.859   4.205  14.552  0.00  0.00    +0.000 C 
BRANCH  24  25
ATOM     25  N   UNL     1       6.069   3.115  15.172  0.00  0.00    +0.000 NA
ATOM     26  H   UNL     1       6.581   2.807  16.007  0.00  0.00    +0.000 HD
ATOM     27  H   UNL     1       6.101   2.298  14.561  0.00  0.00    +0.000 HD
ENDBRANCH  24  25
BRANCH  24  28
ATOM     28  C   UNL     1       6.427   4.335  13.082  0.00  0.00    +0.000 C 
BRANCH  28  30
ATOM     29  C   UNL     1       4.572   3.325  11.643  0.00  0.00    +0.000 C 
ATOM     30  C   UNL     1       5.853   3.059  12.434  0.00  0.00    +0.000 C 
ATOM     31  C   UNL     1       6.904   2.436  11.509  0.00  0.00    +0.000 C 
ENDBRANCH  28  30
ENDBRANCH  24  28
ENDBRANCH  20  24
ENDBRANCH  19  22
ENDBRANCH   1  19
TORSDOF 10
ENDMDL
MODEL 9
REMARK VINA RESULT:      -7.0      3.456      5.785
REMARK  Name = 
REMARK  12 active torsions:
REMARK  status: ('A' for Active; 'I' for Inactive)
REMARK    1  A    between atoms: C_1  and  C_2
REMARK    2  A    between atoms: C_2  and  C_3
REMARK    3  A    between atoms: C_2  and  C_4
REMARK    4  A    between atoms: C_4  and  C_5
REMARK    5  A    between atoms: C_5  and  N_6
REMARK    6  A    between atoms: C_5  and  C_7
REMARK    7  A    between atoms: N_9  and  C_10
REMARK    8  A    between atoms: C_10  and  C_11
REMARK    9  A    between atoms: C_14  and  C_15
REMARK   10  A    between atoms: C_19  and  C_20
REMARK   11  A    between atoms: C_20  and  O_22
REMARK   12  A    between atoms: C_23  and  N_24
REMARK                            x       y       z     vdW  Elec       q    Type
REMARK                         _______ _______ _______ _____ _____    ______ ____
ROOT
ATOM      1  C   UNL     1       3.049   4.286  18.368  0.00  0.00    +0.000 A 
ATOM      2  C   UNL     1       2.952   4.123  19.734  0.00  0.00    +0.000 A 
ATOM      3  C   UNL     1       2.563   5.376  20.261  0.00  0.00    +0.000 A 
ATOM      4  C   UNL     1       2.444   6.245  19.192  0.00  0.00    +0.000 A 
ATOM      5  O   UNL     1       2.720   5.573  18.030  0.00  0.00    +0.000 OA
ENDROOT
BRANCH   4   6
ATOM      6  C   UNL     1       2.106   7.671  19.101  0.00  0.00    +0.000 A 
ATOM      7  C   UNL     1       2.242   8.300  17.858  0.00  0.00    +0.000 A 
ATOM      8  N   UNL     1       1.912   9.586  17.593  0.00  0.00    +0.000 NA
ATOM      9  C   UNL     1       1.406  10.300  18.618  0.00  0.00    +0.000 A 
ATOM     10  C   UNL     1       1.235   9.793  19.900  0.00  0.00    +0.000 A 
ATOM     11  C   UNL     1       1.628   8.462  20.173  0.00  0.00    +0.000 A 
BRANCH  11  12
ATOM     12  N   UNL     1       1.374   7.892  21.456  0.00  0.00    +0.000 N 
ATOM     13  H   UNL     1       1.944   7.057  21.620  0.00  0.00    +0.000 HD
ATOM     14  H   UNL     1       0.384   7.631  21.539  0.00  0.00    +0.000 HD
ENDBRANCH  11  12
BRANCH  10  15
ATOM     15  C   UNL     1       0.615  10.710  20.882  0.00  0.00    +0.000 C 
ATOM     16  O   UNL     1       1.147  11.742  21.250  0.00  0.00    +0.000 OA
BRANCH  15  17
ATOM     17  O   UNL     1      -0.616  10.324  21.285  0.00  0.00    +0.000 OA
ATOM     18  H   UNL     1      -1.045  10.976  21.884  0.00  0.00    +0.000 HD
ENDBRANCH  15  17
ENDBRANCH  10  15
ENDBRANCH   4   6
BRANCH   1  19
ATOM     19  C   UNL     1       3.523   3.388  17.288  0.00  0.00    +0.000 C 
BRANCH  19  22
ATOM     20  C   UNL     1       5.492   4.295  16.198  0.00  0.00    +0.000 C 
ATOM     21  O   UNL     1       4.794   5.047  15.521  0.00  0.00    +0.000 OA
ATOM     22  N   UNL     1       4.960   3.444  17.145  0.00  0.00    +0.000 N 
ATOM     23  H   UNL     1       5.519   2.683  17.507  0.00  0.00    +0.000 HD
BRANCH  20  24
ATOM     24  C   UNL     1       7.030   4.245  16.036  0.00  0.00    +0.000 C 
BRANCH  24  25
ATOM     25  N   UNL     1       7.417   5.162  14.938  0.00  0.00    +0.000 NA
ATOM     26  H   UNL     1       8.256   5.668  15.248  0.00  0.00    +0.000 HD
ATOM     27  H   UNL     1       6.713   5.897  14.862  0.00  0.00    +0.000 HD
ENDBRANCH  24  25
BRANCH  24  28
ATOM     28  C   UNL     1       7.743   4.702  17.319  0.00  0.00    +0.000 C 
BRANCH  28  30
ATOM     29  C   UNL     1       7.000   5.547  19.613  0.00  0.00    +0.000 C 
ATOM     30  C   UNL     1       7.048   5.827  18.111  0.00  0.00    +0.000 C 
ATOM     31  C   UNL     1       7.774   7.154  17.862  0.00  0.00    +0.000 C 
ENDBRANCH  28  30
ENDBRANCH  24  28
ENDBRANCH  20  24
ENDBRANCH  19  22
ENDBRANCH   1  19
TORSDOF 10
ENDMDL
