MODEL 1
REMARK VINA RESULT:      -7.5      0.000      0.000
REMARK  Name = 
REMARK  5 active torsions:
REMARK  status: ('A' for Active; 'I' for Inactive)
REMARK    1  A    between atoms: C_1  and  O_2
REMARK    2  A    between atoms: O_2  and  C_3
REMARK    3  A    between atoms: C_6  and  N_7
REMARK    4  A    between atoms: C_11  and  C_13
REMARK    5  A    between atoms: C_22  and  C_23
REMARK                            x       y       z     vdW  Elec       q    Type
REMARK                         _______ _______ _______ _____ _____    ______ ____
ROOT
ATOM      1  N   UNL     1       1.273   9.053  19.869  0.00  0.00    +0.000 N 
ATOM      2  C   UNL     1       1.534   8.224  21.064  0.00  0.00    +0.000 C 
ATOM      3  C   UNL     1       1.490   6.711  20.740  0.00  0.00    +0.000 C 
ATOM      4  N   UNL     1       2.210   6.378  19.494  0.00  0.00    +0.000 N 
ATOM      5  C   UNL     1       3.158   5.369  19.493  0.00  0.00    +0.000 C 
ATOM      6  O   UNL     1       3.340   4.734  20.547  0.00  0.00    +0.000 OA
ATOM      7  C   UNL     1       1.740   7.170  18.370  0.00  0.00    +0.000 C 
ATOM      8  C   UNL     1       2.006   8.658  18.650  0.00  0.00    +0.000 C 
ENDROOT
BRANCH   5   9
ATOM      9  C   UNL     1       3.920   4.936  18.316  0.00  0.00    +0.000 A 
ATOM     10  N   UNL     1       5.084   5.657  18.079  0.00  0.00    +0.000 N 
ATOM     11  C   UNL     1       5.737   5.254  16.952  0.00  0.00    +0.000 A 
ATOM     12  C   UNL     1       6.981   5.640  16.435  0.00  0.00    +0.000 A 
ATOM     13  C   UNL     1       7.339   5.135  15.183  0.00  0.00    +0.000 A 
ATOM     14  C   UNL     1       6.459   4.327  14.476  0.00  0.00    +0.000 A 
ATOM     15  F   UNL     1       6.793   3.914  13.245  0.00  0.00    +0.000 F 
ATOM     16  C   UNL     1       5.243   3.919  15.023  0.00  0.00    +0.000 A 
ATOM     17  C   UNL     1       4.896   4.351  16.322  0.00  0.00    +0.000 A 
ATOM     18  C   UNL     1       3.830   4.030  17.246  0.00  0.00    +0.000 A 
ATOM     19  C   UNL     1       2.880   2.914  16.960  0.00  0.00    +0.000 C 
ATOM     20  H   UNL     1       5.379   6.414  18.683  0.00  0.00    +0.000 HD
ENDBRANCH   5   9
BRANCH   1  24
ATOM     21  C   UNL     1      -1.685  12.070  19.708  0.00  0.00    +0.000 A 
ATOM     22  C   UNL     1      -1.060  11.751  20.907  0.00  0.00    +0.000 A 
ATOM     23  C   UNL     1      -0.084  10.748  20.952  0.00  0.00    +0.000 A 
ATOM     24  C   UNL     1       0.292  10.023  19.810  0.00  0.00    +0.000 A 
ATOM     25  C   UNL     1      -0.377  10.341  18.622  0.00  0.00    +0.000 A 
ATOM     26  C   UNL     1      -1.351  11.350  18.565  0.00  0.00    +0.000 A 
BRANCH  21  28
ATOM     27  C   UNL     1      -3.950  12.618  20.086  0.00  0.00    +0.000 C 
ATOM     28  O   UNL     1      -2.631  13.055  19.774  0.00  0.00    +0.000 OA
ENDBRANCH  21  28
ENDBRANCH   1  24
TORSDOF 3
ENDMDL
MODEL 2
REMARK VINA RESULT:      -7.2      2.581      4.672
REMARK  Name = 
REMARK  5 active torsions:
REMARK  status: ('A' for Active; 'I' for Inactive)
REMARK    1  A    between atoms: C_1  and  O_2
REMARK    2  A    between atoms: O_2  and  C_3
REMARK    3  A    between atoms: C_6  and  N_7
REMARK    4  A    between atoms: C_11  and  C_13
REMARK    5  A    between atoms: C_22  and  C_23
REMARK                            x       y       z     vdW  Elec       q    Type
REMARK                         _______ _______ _______ _____ _____    ______ ____
ROOT
ATOM      1  N   UNL     1      -1.806  12.200  20.593  0.00  0.00    +0.000 N 
ATOM      2  C   UNL     1      -0.995  12.236  21.827  0.00  0.00    +0.000 C 
ATOM      3  C   UNL     1      -0.606  10.817  22.307  0.00  0.00    +0.000 C 
ATOM      4  N   UNL     1      -0.147   9.951  21.201  0.00  0.00    +0.000 N 
ATOM      5  C   UNL     1       1.053   9.271  21.309  0.00  0.00    +0.000 C 
ATOM      6  O   UNL     1       1.692   9.374  22.371  0.00  0.00    +0.000 OA
ATOM      7  C   UNL     1      -1.119   9.894  20.121  0.00  0.00    +0.000 C 
ATOM      8  C   UNL     1      -1.307  11.302  19.532  0.00  0.00    +0.000 C 
ENDROOT
BRANCH   5   9
ATOM      9  C   UNL     1       1.600   8.369  20.289  0.00  0.00    +0.000 A 
ATOM     10  N   UNL     1       1.886   7.085  20.741  0.00  0.00    +0.000 N 
ATOM     11  C   UNL     1       2.435   6.294  19.777  0.00  0.00    +0.000 A 
ATOM     12  C   UNL     1       2.755   4.930  19.793  0.00  0.00    +0.000 A 
ATOM     13  C   UNL     1       3.424   4.415  18.681  0.00  0.00    +0.000 A 
ATOM     14  C   UNL     1       3.794   5.251  17.637  0.00  0.00    +0.000 A 
ATOM     15  F   UNL     1       4.500   4.750  16.614  0.00  0.00    +0.000 F 
ATOM     16  C   UNL     1       3.432   6.598  17.617  0.00  0.00    +0.000 A 
ATOM     17  C   UNL     1       2.683   7.122  18.693  0.00  0.00    +0.000 A 
ATOM     18  C   UNL     1       2.021   8.384  18.949  0.00  0.00    +0.000 A 
ATOM     19  C   UNL     1       1.903   9.416  17.877  0.00  0.00    +0.000 C 
ATOM     20  H   UNL     1       1.717   6.804  21.699  0.00  0.00    +0.000 HD
ENDBRANCH   5   9
BRANCH   1  24
ATOM     21  C   UNL     1      -5.549  14.125  20.187  0.00  0.00    +0.000 A 
ATOM     22  C   UNL     1      -4.582  14.627  21.050  0.00  0.00    +0.000 A 
ATOM     23  C   UNL     1      -3.346  13.980  21.180  0.00  0.00    +0.000 A 
ATOM     24  C   UNL     1      -3.038  12.810  20.467  0.00  0.00    +0.000 A 
ATOM     25  C   UNL     1      -4.043  12.308  19.631  0.00  0.00    +0.000 A 
ATOM     26  C   UNL     1      -5.280  12.953  19.488  0.00  0.00    +0.000 A 
BRANCH  21  28
ATOM     27  C   UNL     1      -7.877  14.108  20.573  0.00  0.00    +0.000 C 
ATOM     28  O   UNL     1      -6.723  14.822  20.142  0.00  0.00    +0.000 OA
ENDBRANCH  21  28
ENDBRANCH   1  24
TORSDOF 3
ENDMDL
MODEL 3
REMARK VINA RESULT:      -7.2      4.501     10.455
REMARK  Name = 
REMARK  5 active torsions:
REMARK  status: ('A' for Active; 'I' for Inactive)
REMARK    1  A    between atoms: C_1  and  O_2
REMARK    2  A    between atoms: O_2  and  C_3
REMARK    3  A    between atoms: C_6  and  N_7
REMARK    4  A    between atoms: C_11  and  C_13
REMARK    5  A    between atoms: C_22  and  C_23
REMARK                            x       y       z     vdW  Elec       q    Type
REMARK                         _______ _______ _______ _____ _____    ______ ____
ROOT
ATOM      1  N   UNL     1       1.891   8.202  19.547  0.00  0.00    +0.000 N 
ATOM      2  C   UNL     1       1.809   9.087  18.366  0.00  0.00    +0.000 C 
ATOM      3  C   UNL     1       0.463   9.848  18.303  0.00  0.00    +0.000 C 
ATOM      4  N   UNL     1       0.065  10.402  19.613  0.00  0.00    +0.000 N 
ATOM      5  C   UNL     1      -0.287  11.737  19.719  0.00  0.00    +0.000 C 
ATOM      6  O   UNL     1      -0.306  12.423  18.682  0.00  0.00    +0.000 OA
ATOM      7  C   UNL     1       0.045   9.382  20.648  0.00  0.00    +0.000 C 
ATOM      8  C   UNL     1       1.461   8.808  20.823  0.00  0.00    +0.000 C 
ENDROOT
BRANCH   5   9
ATOM      9  C   UNL     1      -0.719  12.394  20.959  0.00  0.00    +0.000 A 
ATOM     10  N   UNL     1      -1.914  11.914  21.485  0.00  0.00    +0.000 N 
ATOM     11  C   UNL     1      -2.303  12.581  22.608  0.00  0.00    +0.000 A 
ATOM     12  C   UNL     1      -3.366  12.337  23.488  0.00  0.00    +0.000 A 
ATOM     13  C   UNL     1      -3.588  13.273  24.500  0.00  0.00    +0.000 A 
ATOM     14  C   UNL     1      -2.807  14.418  24.579  0.00  0.00    +0.000 A 
ATOM     15  F   UNL     1      -3.084  15.338  25.514  0.00  0.00    +0.000 F 
ATOM     16  C   UNL     1      -1.727  14.625  23.722  0.00  0.00    +0.000 A 
ATOM     17  C   UNL     1      -1.432  13.651  22.743  0.00  0.00    +0.000 A 
ATOM     18  C   UNL     1      -0.347  13.450  21.806  0.00  0.00    +0.000 A 
ATOM     19  C   UNL     1       0.874  14.307  21.856  0.00  0.00    +0.000 C 
ATOM     20  H   UNL     1      -2.431  11.164  21.044  0.00  0.00    +0.000 HD
ENDBRANCH   5   9
BRANCH   1  24
ATOM     21  C   UNL     1       2.826   4.085  19.322  0.00  0.00    +0.000 A 
ATOM     22  C   UNL     1       3.111   4.937  18.261  0.00  0.00    +0.000 A 
ATOM     23  C   UNL     1       2.794   6.299  18.343  0.00  0.00    +0.000 A 
ATOM     24  C   UNL     1       2.175   6.853  19.475  0.00  0.00    +0.000 A 
ATOM     25  C   UNL     1       1.869   5.966  20.515  0.00  0.00    +0.000 A 
ATOM     26  C   UNL     1       2.190   4.602  20.445  0.00  0.00    +0.000 A 
BRANCH  21  28
ATOM     27  C   UNL     1       2.627   2.161  17.969  0.00  0.00    +0.000 C 
ATOM     28  O   UNL     1       3.164   2.774  19.137  0.00  0.00    +0.000 OA
ENDBRANCH  21  28
ENDBRANCH   1  24
TORSDOF 3
ENDMDL
MODEL 4
REMARK VINA RESULT:      -7.2      4.607     10.267
REMARK  Name = 
REMARK  5 active torsions:
REMARK  status: ('A' for Active; 'I' for Inactive)
REMARK    1  A    between atoms: C_1  and  O_2
REMARK    2  A    between atoms: O_2  and  C_3
REMARK    3  A    between atoms: C_6  and  N_7
REMARK    4  A    between atoms: C_11  and  C_13
REMARK    5  A    between atoms: C_22  and  C_23
REMARK                            x       y       z     vdW  Elec       q    Type
REMARK                         _______ _______ _______ _____ _____    ______ ____
ROOT
ATOM      1  N   UNL     1       1.938   7.827  19.522  0.00  0.00    +0.000 N 
ATOM      2  C   UNL     1       2.128   8.746  18.380  0.00  0.00    +0.000 C 
ATOM      3  C   UNL     1       0.913   9.684  18.183  0.00  0.00    +0.000 C 
ATOM      4  N   UNL     1       0.424  10.252  19.455  0.00  0.00    +0.000 N 
ATOM      5  C   UNL     1       0.238  11.618  19.575  0.00  0.00    +0.000 C 
ATOM      6  O   UNL     1       0.445  12.328  18.576  0.00  0.00    +0.000 OA
ATOM      7  C   UNL     1       0.135   9.217  20.434  0.00  0.00    +0.000 C 
ATOM      8  C   UNL     1       1.428   8.451  20.759  0.00  0.00    +0.000 C 
ENDROOT
BRANCH   5   9
ATOM      9  C   UNL     1      -0.262  12.294  20.778  0.00  0.00    +0.000 A 
ATOM     10  N   UNL     1      -1.472  11.805  21.260  0.00  0.00    +0.000 N 
ATOM     11  C   UNL     1      -1.924  12.489  22.349  0.00  0.00    +0.000 A 
ATOM     12  C   UNL     1      -3.022  12.245  23.184  0.00  0.00    +0.000 A 
ATOM     13  C   UNL     1      -3.307  13.198  24.163  0.00  0.00    +0.000 A 
ATOM     14  C   UNL     1      -2.550  14.358  24.252  0.00  0.00    +0.000 A 
ATOM     15  F   UNL     1      -2.886  15.293  25.152  0.00  0.00    +0.000 F 
ATOM     16  C   UNL     1      -1.435  14.566  23.441  0.00  0.00    +0.000 A 
ATOM     17  C   UNL     1      -1.079  13.577  22.499  0.00  0.00    +0.000 A 
ATOM     18  C   UNL     1       0.052  13.376  21.618  0.00  0.00    +0.000 A 
ATOM     19  C   UNL     1       1.255  14.256  21.705  0.00  0.00    +0.000 C 
ATOM     20  H   UNL     1      -1.955  11.036  20.813  0.00  0.00    +0.000 HD
ENDBRANCH   5   9
BRANCH   1  24
ATOM     21  C   UNL     1       2.218   3.617  19.255  0.00  0.00    +0.000 A 
ATOM     22  C   UNL     1       1.985   4.238  20.477  0.00  0.00    +0.000 A 
ATOM     23  C   UNL     1       1.898   5.633  20.556  0.00  0.00    +0.000 A 
ATOM     24  C   UNL     1       2.050   6.455  19.428  0.00  0.00    +0.000 A 
ATOM     25  C   UNL     1       2.318   5.805  18.216  0.00  0.00    +0.000 A 
ATOM     26  C   UNL     1       2.399   4.407  18.125  0.00  0.00    +0.000 A 
BRANCH  21  28
ATOM     27  C   UNL     1       3.495   1.696  18.756  0.00  0.00    +0.000 C 
ATOM     28  O   UNL     1       2.298   2.253  19.288  0.00  0.00    +0.000 OA
ENDBRANCH  21  28
ENDBRANCH   1  24
TORSDOF 3
ENDMDL
MODEL 5
REMARK VINA RESULT:      -7.2      2.686      4.894
REMARK  Name = 
REMARK  5 active torsions:
REMARK  status: ('A' for Active; 'I' for Inactive)
REMARK    1  A    between atoms: C_1  and  O_2
REMARK    2  A    between atoms: O_2  and  C_3
REMARK    3  A    between atoms: C_6  and  N_7
REMARK    4  A    between atoms: C_11  and  C_13
REMARK    5  A    between atoms: C_22  and  C_23
REMARK                            x       y       z     vdW  Elec       q    Type
REMARK                         _______ _______ _______ _____ _____    ______ ____
ROOT
ATOM      1  N   UNL     1      -1.541  12.607  20.900  0.00  0.00    +0.000 N 
ATOM      2  C   UNL     1      -0.794  12.479  22.169  0.00  0.00    +0.000 C 
ATOM      3  C   UNL     1      -0.569  11.000  22.564  0.00  0.00    +0.000 C 
ATOM      4  N   UNL     1      -0.140  10.169  21.420  0.00  0.00    +0.000 N 
ATOM      5  C   UNL     1       0.983   9.367  21.533  0.00  0.00    +0.000 C 
ATOM      6  O   UNL     1       1.573   9.335  22.627  0.00  0.00    +0.000 OA
ATOM      7  C   UNL     1      -1.056  10.280  20.298  0.00  0.00    +0.000 C 
ATOM      8  C   UNL     1      -1.078  11.735  19.802  0.00  0.00    +0.000 C 
ENDROOT
BRANCH   5   9
ATOM      9  C   UNL     1       1.492   8.484  20.477  0.00  0.00    +0.000 A 
ATOM     10  N   UNL     1       1.760   7.182  20.886  0.00  0.00    +0.000 N 
ATOM     11  C   UNL     1       2.274   6.409  19.888  0.00  0.00    +0.000 A 
ATOM     12  C   UNL     1       2.566   5.039  19.859  0.00  0.00    +0.000 A 
ATOM     13  C   UNL     1       3.204   4.543  18.719  0.00  0.00    +0.000 A 
ATOM     14  C   UNL     1       3.571   5.403  17.693  0.00  0.00    +0.000 A 
ATOM     15  F   UNL     1       4.247   4.918  16.642  0.00  0.00    +0.000 F 
ATOM     16  C   UNL     1       3.236   6.756  17.720  0.00  0.00    +0.000 A 
ATOM     17  C   UNL     1       2.518   7.264  18.824  0.00  0.00    +0.000 A 
ATOM     18  C   UNL     1       1.887   8.530  19.130  0.00  0.00    +0.000 A 
ATOM     19  C   UNL     1       1.770   9.595  18.091  0.00  0.00    +0.000 C 
ATOM     20  H   UNL     1       1.603   6.876  21.838  0.00  0.00    +0.000 HD
ENDBRANCH   5   9
BRANCH   1  24
ATOM     21  C   UNL     1      -5.121  14.824  20.531  0.00  0.00    +0.000 A 
ATOM     22  C   UNL     1      -5.094  13.466  20.238  0.00  0.00    +0.000 A 
ATOM     23  C   UNL     1      -3.902  12.740  20.360  0.00  0.00    +0.000 A 
ATOM     24  C   UNL     1      -2.700  13.343  20.765  0.00  0.00    +0.000 A 
ATOM     25  C   UNL     1      -2.749  14.719  21.020  0.00  0.00    +0.000 A 
ATOM     26  C   UNL     1      -3.940  15.453  20.909  0.00  0.00    +0.000 A 
BRANCH  21  28
ATOM     27  C   UNL     1      -7.334  14.665  19.725  0.00  0.00    +0.000 C 
ATOM     28  O   UNL     1      -6.330  15.442  20.368  0.00  0.00    +0.000 OA
ENDBRANCH  21  28
ENDBRANCH   1  24
TORSDOF 3
ENDMDL
MODEL 6
REMARK VINA RESULT:      -7.0      3.580      5.190
REMARK  Name = 
REMARK  5 active torsions:
REMARK  status: ('A' for Active; 'I' for Inactive)
REMARK    1  A    between atoms: C_1  and  O_2
REMARK    2  A    between atoms: O_2  and  C_3
REMARK    3  A    between atoms: C_6  and  N_7
REMARK    4  A    between atoms: C_11  and  C_13
REMARK    5  A    between atoms: C_22  and  C_23
REMARK                            x       y       z     vdW  Elec       q    Type
REMARK                         _______ _______ _______ _____ _____    ______ ____
ROOT
ATOM      1  N   UNL     1       1.443  13.297  19.835  0.00  0.00    +0.000 N 
ATOM      2  C   UNL     1       1.086  12.941  21.224  0.00  0.00    +0.000 C 
ATOM      3  C   UNL     1       0.266  11.631  21.294  0.00  0.00    +0.000 C 
ATOM      4  N   UNL     1       0.819  10.570  20.428  0.00  0.00    +0.000 N 
ATOM      5  C   UNL     1       1.065   9.312  20.949  0.00  0.00    +0.000 C 
ATOM      6  O   UNL     1       0.761   9.099  22.136  0.00  0.00    +0.000 OA
ATOM      7  C   UNL     1       0.975  11.020  19.055  0.00  0.00    +0.000 C 
ATOM      8  C   UNL     1       1.972  12.190  19.013  0.00  0.00    +0.000 C 
ENDROOT
BRANCH   5   9
ATOM      9  C   UNL     1       1.591   8.175  20.184  0.00  0.00    +0.000 A 
ATOM     10  N   UNL     1       1.636   6.974  20.883  0.00  0.00    +0.000 N 
ATOM     11  C   UNL     1       2.174   5.957  20.153  0.00  0.00    +0.000 A 
ATOM     12  C   UNL     1       2.291   4.591  20.446  0.00  0.00    +0.000 A 
ATOM     13  C   UNL     1       3.003   3.800  19.542  0.00  0.00    +0.000 A 
ATOM     14  C   UNL     1       3.607   4.376  18.433  0.00  0.00    +0.000 A 
ATOM     15  F   UNL     1       4.347   3.611  17.618  0.00  0.00    +0.000 F 
ATOM     16  C   UNL     1       3.446   5.729  18.134  0.00  0.00    +0.000 A 
ATOM     17  C   UNL     1       2.661   6.531  18.990  0.00  0.00    +0.000 A 
ATOM     18  C   UNL     1       2.161   7.889  18.933  0.00  0.00    +0.000 A 
ATOM     19  C   UNL     1       2.316   8.709  17.695  0.00  0.00    +0.000 C 
ATOM     20  H   UNL     1       1.319   6.899  21.842  0.00  0.00    +0.000 HD
ENDBRANCH   5   9
BRANCH   1  24
ATOM     21  C   UNL     1       0.535  17.056  18.127  0.00  0.00    +0.000 A 
ATOM     22  C   UNL     1      -0.476  16.223  18.589  0.00  0.00    +0.000 A 
ATOM     23  C   UNL     1      -0.166  14.978  19.150  0.00  0.00    +0.000 A 
ATOM     24  C   UNL     1       1.156  14.518  19.259  0.00  0.00    +0.000 A 
ATOM     25  C   UNL     1       2.153  15.363  18.755  0.00  0.00    +0.000 A 
ATOM     26  C   UNL     1       1.853  16.615  18.199  0.00  0.00    +0.000 A 
BRANCH  21  28
ATOM     27  C   UNL     1       0.770  18.618  16.373  0.00  0.00    +0.000 C 
ATOM     28  O   UNL     1       0.127  18.244  17.587  0.00  0.00    +0.000 OA
ENDBRANCH  21  28
ENDBRANCH   1  24
TORSDOF 3
ENDMDL
MODEL 7
REMARK VINA RESULT:      -7.0      2.769      4.378
REMARK  Name = 
REMARK  5 active torsions:
REMARK  status: ('A' for Active; 'I' for Inactive)
REMARK    1  A    between atoms: C_1  and  O_2
REMARK    2  A    between atoms: O_2  and  C_3
REMARK    3  A    between atoms: C_6  and  N_7
REMARK    4  A    between atoms: C_11  and  C_13
REMARK    5  A    between atoms: C_22  and  C_23
REMARK                            x       y       z     vdW  Elec       q    Type
REMARK                         _______ _______ _______ _____ _____    ______ ____
ROOT
ATOM      1  N   UNL     1      -0.709  10.652  20.213  0.00  0.00    +0.000 N 
ATOM      2  C   UNL     1      -0.260  11.052  18.863  0.00  0.00    +0.000 C 
ATOM      3  C   UNL     1       1.220  10.678  18.609  0.00  0.00    +0.000 C 
ATOM      4  N   UNL     1       1.546   9.313  19.071  0.00  0.00    +0.000 N 
ATOM      5  C   UNL     1       2.178   8.427  18.216  0.00  0.00    +0.000 C 
ATOM      6  O   UNL     1       2.500   8.832  17.085  0.00  0.00    +0.000 OA
ATOM      7  C   UNL     1       1.185   9.114  20.465  0.00  0.00    +0.000 C 
ATOM      8  C   UNL     1      -0.335   9.284  20.625  0.00  0.00    +0.000 C 
ENDROOT
BRANCH   5   9
ATOM      9  C   UNL     1       2.570   7.057  18.568  0.00  0.00    +0.000 A 
ATOM     10  N   UNL     1       1.869   6.508  19.635  0.00  0.00    +0.000 N 
ATOM     11  C   UNL     1       2.294   5.254  19.960  0.00  0.00    +0.000 A 
ATOM     12  C   UNL     1       1.783   4.331  20.881  0.00  0.00    +0.000 A 
ATOM     13  C   UNL     1       2.510   3.156  21.082  0.00  0.00    +0.000 A 
ATOM     14  C   UNL     1       3.716   2.957  20.423  0.00  0.00    +0.000 A 
ATOM     15  F   UNL     1       4.433   1.856  20.686  0.00  0.00    +0.000 F 
ATOM     16  C   UNL     1       4.189   3.867  19.478  0.00  0.00    +0.000 A 
ATOM     17  C   UNL     1       3.429   5.023  19.198  0.00  0.00    +0.000 A 
ATOM     18  C   UNL     1       3.516   6.081  18.214  0.00  0.00    +0.000 A 
ATOM     19  C   UNL     1       4.499   6.003  17.093  0.00  0.00    +0.000 C 
ATOM     20  H   UNL     1       1.140   7.019  20.118  0.00  0.00    +0.000 HD
ENDBRANCH   5   9
BRANCH   1  24
ATOM     21  C   UNL     1      -2.405  13.330  23.010  0.00  0.00    +0.000 A 
ATOM     22  C   UNL     1      -1.653  12.242  23.435  0.00  0.00    +0.000 A 
ATOM     23  C   UNL     1      -1.098  11.357  22.501  0.00  0.00    +0.000 A 
ATOM     24  C   UNL     1      -1.283  11.521  21.118  0.00  0.00    +0.000 A 
ATOM     25  C   UNL     1      -2.073  12.606  20.720  0.00  0.00    +0.000 A 
ATOM     26  C   UNL     1      -2.626  13.502  21.647  0.00  0.00    +0.000 A 
BRANCH  21  28
ATOM     27  C   UNL     1      -4.239  14.595  23.789  0.00  0.00    +0.000 C 
ATOM     28  O   UNL     1      -2.912  14.125  24.000  0.00  0.00    +0.000 OA
ENDBRANCH  21  28
ENDBRANCH   1  24
TORSDOF 3
ENDMDL
MODEL 8
REMARK VINA RESULT:      -7.0      2.748      4.474
REMARK  Name = 
REMARK  5 active torsions:
REMARK  status: ('A' for Active; 'I' for Inactive)
REMARK    1  A    between atoms: C_1  and  O_2
REMARK    2  A    between atoms: O_2  and  C_3
REMARK    3  A    between atoms: C_6  and  N_7
REMARK    4  A    between atoms: C_11  and  C_13
REMARK    5  A    between atoms: C_22  and  C_23
REMARK                            x       y       z     vdW  Elec       q    Type
REMARK                         _______ _______ _______ _____ _____    ______ ____
ROOT
ATOM      1  N   UNL     1      -0.699  10.656  20.188  0.00  0.00    +0.000 N 
ATOM      2  C   UNL     1      -0.234  11.059  18.845  0.00  0.00    +0.000 C 
ATOM      3  C   UNL     1       1.247  10.678  18.606  0.00  0.00    +0.000 C 
ATOM      4  N   UNL     1       1.561   9.310  19.068  0.00  0.00    +0.000 N 
ATOM      5  C   UNL     1       2.198   8.424  18.216  0.00  0.00    +0.000 C 
ATOM      6  O   UNL     1       2.535   8.831  17.091  0.00  0.00    +0.000 OA
ATOM      7  C   UNL     1       1.183   9.109  20.456  0.00  0.00    +0.000 C 
ATOM      8  C   UNL     1      -0.337   9.285  20.600  0.00  0.00    +0.000 C 
ENDROOT
BRANCH   5   9
ATOM      9  C   UNL     1       2.580   7.051  18.568  0.00  0.00    +0.000 A 
ATOM     10  N   UNL     1       1.898   6.520  19.657  0.00  0.00    +0.000 N 
ATOM     11  C   UNL     1       2.315   5.262  19.979  0.00  0.00    +0.000 A 
ATOM     12  C   UNL     1       1.814   4.352  20.921  0.00  0.00    +0.000 A 
ATOM     13  C   UNL     1       2.530   3.168  21.111  0.00  0.00    +0.000 A 
ATOM     14  C   UNL     1       3.715   2.948  20.423  0.00  0.00    +0.000 A 
ATOM     15  F   UNL     1       4.423   1.838  20.675  0.00  0.00    +0.000 F 
ATOM     16  C   UNL     1       4.177   3.844  19.459  0.00  0.00    +0.000 A 
ATOM     17  C   UNL     1       3.425   5.009  19.190  0.00  0.00    +0.000 A 
ATOM     18  C   UNL     1       3.502   6.059  18.197  0.00  0.00    +0.000 A 
ATOM     19  C   UNL     1       4.454   5.959  17.051  0.00  0.00    +0.000 C 
ATOM     20  H   UNL     1       1.190   7.044  20.155  0.00  0.00    +0.000 HD
ENDBRANCH   5   9
BRANCH   1  24
ATOM     21  C   UNL     1      -2.536  13.301  22.928  0.00  0.00    +0.000 A 
ATOM     22  C   UNL     1      -2.688  13.479  21.558  0.00  0.00    +0.000 A 
ATOM     23  C   UNL     1      -2.072  12.600  20.658  0.00  0.00    +0.000 A 
ATOM     24  C   UNL     1      -1.279  11.525  21.090  0.00  0.00    +0.000 A 
ATOM     25  C   UNL     1      -1.116  11.389  22.475  0.00  0.00    +0.000 A 
ATOM     26  C   UNL     1      -1.735  12.260  23.384  0.00  0.00    +0.000 A 
BRANCH  21  28
ATOM     27  C   UNL     1      -2.339  14.881  24.670  0.00  0.00    +0.000 C 
ATOM     28  O   UNL     1      -3.167  14.220  23.720  0.00  0.00    +0.000 OA
ENDBRANCH  21  28
ENDBRANCH   1  24
TORSDOF 3
ENDMDL
MODEL 9
REMARK VINA RESULT:      -7.0      2.760      4.300
REMARK  Name = 
REMARK  5 active torsions:
REMARK  status: ('A' for Active; 'I' for Inactive)
REMARK    1  A    between atoms: C_1  and  O_2
REMARK    2  A    between atoms: O_2  and  C_3
REMARK    3  A    between atoms: C_6  and  N_7
REMARK    4  A    between atoms: C_11  and  C_13
REMARK    5  A    between atoms: C_22  and  C_23
REMARK                            x       y       z     vdW  Elec       q    Type
REMARK                         _______ _______ _______ _____ _____    ______ ____
ROOT
ATOM      1  N   UNL     1      -0.982  11.082  20.557  0.00  0.00    +0.000 N 
ATOM      2  C   UNL     1      -0.787  11.383  19.124  0.00  0.00    +0.000 C 
ATOM      3  C   UNL     1       0.677  11.153  18.677  0.00  0.00    +0.000 C 
ATOM      4  N   UNL     1       1.238   9.892  19.204  0.00  0.00    +0.000 N 
ATOM      5  C   UNL     1       1.849   8.996  18.344  0.00  0.00    +0.000 C 
ATOM      6  O   UNL     1       1.950   9.310  17.145  0.00  0.00    +0.000 OA
ATOM      7  C   UNL     1       1.109   9.805  20.649  0.00  0.00    +0.000 C 
ATOM      8  C   UNL     1      -0.381   9.818  21.028  0.00  0.00    +0.000 C 
ENDROOT
BRANCH   5   9
ATOM      9  C   UNL     1       2.459   7.725  18.752  0.00  0.00    +0.000 A 
ATOM     10  N   UNL     1       3.527   7.313  17.962  0.00  0.00    +0.000 N 
ATOM     11  C   UNL     1       4.035   6.108  18.346  0.00  0.00    +0.000 A 
ATOM     12  C   UNL     1       5.163   5.411  17.892  0.00  0.00    +0.000 A 
ATOM     13  C   UNL     1       5.369   4.126  18.399  0.00  0.00    +0.000 A 
ATOM     14  C   UNL     1       4.452   3.563  19.275  0.00  0.00    +0.000 A 
ATOM     15  F   UNL     1       4.631   2.302  19.691  0.00  0.00    +0.000 F 
ATOM     16  C   UNL     1       3.357   4.286  19.748  0.00  0.00    +0.000 A 
ATOM     17  C   UNL     1       3.174   5.616  19.314  0.00  0.00    +0.000 A 
ATOM     18  C   UNL     1       2.276   6.690  19.683  0.00  0.00    +0.000 A 
ATOM     19  C   UNL     1       1.371   6.557  20.863  0.00  0.00    +0.000 C 
ATOM     20  H   UNL     1       3.855   7.860  17.176  0.00  0.00    +0.000 HD
ENDBRANCH   5   9
BRANCH   1  24
ATOM     21  C   UNL     1      -2.697  13.768  23.337  0.00  0.00    +0.000 A 
ATOM     22  C   UNL     1      -3.428  13.309  22.248  0.00  0.00    +0.000 A 
ATOM     23  C   UNL     1      -2.851  12.423  21.330  0.00  0.00    +0.000 A 
ATOM     24  C   UNL     1      -1.526  11.974  21.460  0.00  0.00    +0.000 A 
ATOM     25  C   UNL     1      -0.802  12.478  22.547  0.00  0.00    +0.000 A 
ATOM     26  C   UNL     1      -1.374  13.360  23.476  0.00  0.00    +0.000 A 
BRANCH  21  28
ATOM     27  C   UNL     1      -2.567  15.170  25.231  0.00  0.00    +0.000 C 
ATOM     28  O   UNL     1      -3.348  14.638  24.165  0.00  0.00    +0.000 OA
ENDBRANCH  21  28
ENDBRANCH   1  24
TORSDOF 3
ENDMDL
