MODEL 1
REMARK VINA RESULT:      -7.2      0.000      0.000
REMARK  Name = 
REMARK  4 active torsions:
REMARK  status: ('A' for Active; 'I' for Inactive)
REMARK    1  A    between atoms: C_1  and  O_2
REMARK    2  A    between atoms: O_2  and  C_3
REMARK    3  A    between atoms: C_6  and  C_7
REMARK    4  A    between atoms: C_19  and  O_20
REMARK                            x       y       z     vdW  Elec       q    Type
REMARK                         _______ _______ _______ _____ _____    ______ ____
ROOT
ATOM      1  C   UNL     1       6.552   5.525  19.396  0.00  0.00    +0.000 C 
ATOM      2  C   UNL     1       7.418   5.522  18.353  0.00  0.00    +0.000 C 
ATOM      3  O   UNL     1       7.621   4.376  17.559  0.00  0.00    +0.000 OA
ATOM      4  C   UNL     1       7.035   4.645  16.340  0.00  0.00    +0.000 A 
ATOM      5  C   UNL     1       6.637   3.676  15.447  0.00  0.00    +0.000 A 
ATOM      6  C   UNL     1       5.676   4.042  14.502  0.00  0.00    +0.000 A 
ATOM      7  C   UNL     1       5.161   5.355  14.463  0.00  0.00    +0.000 A 
ATOM      8  C   UNL     1       5.649   6.347  15.319  0.00  0.00    +0.000 A 
ATOM      9  C   UNL     1       6.611   5.967  16.235  0.00  0.00    +0.000 A 
ATOM     10  C   UNL     1       7.046   6.664  17.439  0.00  0.00    +0.000 C 
ATOM     11  O   UNL     1       6.961   7.846  17.691  0.00  0.00    +0.000 OA
ENDROOT
BRANCH   1  15
ATOM     12  C   UNL     1       2.887   3.545  18.295  0.00  0.00    +0.000 A 
ATOM     13  C   UNL     1       2.984   4.940  18.317  0.00  0.00    +0.000 A 
ATOM     14  C   UNL     1       4.151   5.571  18.752  0.00  0.00    +0.000 A 
ATOM     15  C   UNL     1       5.259   4.812  19.168  0.00  0.00    +0.000 A 
ATOM     16  C   UNL     1       5.159   3.422  19.182  0.00  0.00    +0.000 A 
ATOM     17  C   UNL     1       3.986   2.791  18.731  0.00  0.00    +0.000 A 
BRANCH  12  19
ATOM     18  C   UNL     1       0.724   2.620  18.730  0.00  0.00    +0.000 C 
ATOM     19  O   UNL     1       1.687   3.108  17.808  0.00  0.00    +0.000 OA
ENDBRANCH  12  19
BRANCH  17  20
ATOM     20  O   UNL     1       3.967   1.423  18.694  0.00  0.00    +0.000 OA
ATOM     21  H   UNL     1       4.849   1.106  18.438  0.00  0.00    +0.000 HD
ENDBRANCH  17  20
ENDBRANCH   1  15
TORSDOF 3
ENDMDL
MODEL 2
REMARK VINA RESULT:      -6.9      1.737      5.250
REMARK  Name = 
REMARK  4 active torsions:
REMARK  status: ('A' for Active; 'I' for Inactive)
REMARK    1  A    between atoms: C_1  and  O_2
REMARK    2  A    between atoms: O_2  and  C_3
REMARK    3  A    between atoms: C_6  and  C_7
REMARK    4  A    between atoms: C_19  and  O_20
REMARK                            x       y       z     vdW  Elec       q    Type
REMARK                         _______ _______ _______ _____ _____    ______ ____
ROOT
ATOM      1  C   UNL     1       2.851   6.560  18.943  0.00  0.00    +0.000 C 
ATOM      2  C   UNL     1       1.930   5.584  19.138  0.00  0.00    +0.000 C 
ATOM      3  O   UNL     1       1.587   4.673  18.120  0.00  0.00    +0.000 OA
ATOM      4  C   UNL     1       2.123   3.459  18.494  0.00  0.00    +0.000 A 
ATOM      5  C   UNL     1       2.387   2.431  17.617  0.00  0.00    +0.000 A 
ATOM      6  C   UNL     1       3.320   1.475  18.025  0.00  0.00    +0.000 A 
ATOM      7  C   UNL     1       3.941   1.561  19.289  0.00  0.00    +0.000 A 
ATOM      8  C   UNL     1       3.587   2.561  20.199  0.00  0.00    +0.000 A 
ATOM      9  C   UNL     1       2.651   3.486  19.782  0.00  0.00    +0.000 A 
ATOM     10  C   UNL     1       2.345   4.792  20.354  0.00  0.00    +0.000 C 
ATOM     11  O   UNL     1       2.544   5.179  21.485  0.00  0.00    +0.000 OA
ENDROOT
BRANCH   1  15
ATOM     12  C   UNL     1       6.458   5.852  16.695  0.00  0.00    +0.000 A 
ATOM     13  C   UNL     1       5.303   6.351  16.083  0.00  0.00    +0.000 A 
ATOM     14  C   UNL     1       4.117   6.501  16.805  0.00  0.00    +0.000 A 
ATOM     15  C   UNL     1       4.064   6.161  18.168  0.00  0.00    +0.000 A 
ATOM     16  C   UNL     1       5.201   5.631  18.777  0.00  0.00    +0.000 A 
ATOM     17  C   UNL     1       6.396   5.494  18.049  0.00  0.00    +0.000 A 
BRANCH  12  19
ATOM     18  C   UNL     1       7.413   5.036  14.659  0.00  0.00    +0.000 C 
ATOM     19  O   UNL     1       7.528   5.808  15.845  0.00  0.00    +0.000 OA
ENDBRANCH  12  19
BRANCH  17  20
ATOM     20  O   UNL     1       7.503   5.040  18.715  0.00  0.00    +0.000 OA
ATOM     21  H   UNL     1       7.274   4.914  19.651  0.00  0.00    +0.000 HD
ENDBRANCH  17  20
ENDBRANCH   1  15
TORSDOF 3
ENDMDL
MODEL 3
REMARK VINA RESULT:      -6.8      2.239      5.490
REMARK  Name = 
REMARK  4 active torsions:
REMARK  status: ('A' for Active; 'I' for Inactive)
REMARK    1  A    between atoms: C_1  and  O_2
REMARK    2  A    between atoms: O_2  and  C_3
REMARK    3  A    between atoms: C_6  and  C_7
REMARK    4  A    between atoms: C_19  and  O_20
REMARK                            x       y       z     vdW  Elec       q    Type
REMARK                         _______ _______ _______ _____ _____    ______ ____
ROOT
ATOM      1  C   UNL     1       2.126   5.843  20.105  0.00  0.00    +0.000 C 
ATOM      2  C   UNL     1       1.439   4.676  20.051  0.00  0.00    +0.000 C 
ATOM      3  O   UNL     1       1.196   4.012  18.833  0.00  0.00    +0.000 OA
ATOM      4  C   UNL     1       1.993   2.887  18.843  0.00  0.00    +0.000 A 
ATOM      5  C   UNL     1       2.379   2.207  17.710  0.00  0.00    +0.000 A 
ATOM      6  C   UNL     1       3.516   1.402  17.811  0.00  0.00    +0.000 A 
ATOM      7  C   UNL     1       4.215   1.285  19.031  0.00  0.00    +0.000 A 
ATOM      8  C   UNL     1       3.751   1.911  20.191  0.00  0.00    +0.000 A 
ATOM      9  C   UNL     1       2.616   2.689  20.073  0.00  0.00    +0.000 A 
ATOM     10  C   UNL     1       2.107   3.701  20.990  0.00  0.00    +0.000 C 
ATOM     11  O   UNL     1       2.323   3.812  22.177  0.00  0.00    +0.000 OA
ENDROOT
BRANCH   1  15
ATOM     12  C   UNL     1       5.627   6.527  17.687  0.00  0.00    +0.000 A 
ATOM     13  C   UNL     1       4.379   7.048  17.328  0.00  0.00    +0.000 A 
ATOM     14  C   UNL     1       3.237   6.754  18.076  0.00  0.00    +0.000 A 
ATOM     15  C   UNL     1       3.322   5.933  19.213  0.00  0.00    +0.000 A 
ATOM     16  C   UNL     1       4.555   5.381  19.558  0.00  0.00    +0.000 A 
ATOM     17  C   UNL     1       5.704   5.691  18.810  0.00  0.00    +0.000 A 
BRANCH  12  19
ATOM     18  C   UNL     1       7.610   7.831  17.391  0.00  0.00    +0.000 C 
ATOM     19  O   UNL     1       6.632   6.949  16.862  0.00  0.00    +0.000 OA
ENDBRANCH  12  19
BRANCH  17  20
ATOM     20  O   UNL     1       6.902   5.184  19.236  0.00  0.00    +0.000 OA
ATOM     21  H   UNL     1       6.803   4.877  20.152  0.00  0.00    +0.000 HD
ENDBRANCH  17  20
ENDBRANCH   1  15
TORSDOF 3
ENDMDL
MODEL 4
REMARK VINA RESULT:      -6.7      1.760      5.495
REMARK  Name = 
REMARK  4 active torsions:
REMARK  status: ('A' for Active; 'I' for Inactive)
REMARK    1  A    between atoms: C_1  and  O_2
REMARK    2  A    between atoms: O_2  and  C_3
REMARK    3  A    between atoms: C_6  and  C_7
REMARK    4  A    between atoms: C_19  and  O_20
REMARK                            x       y       z     vdW  Elec       q    Type
REMARK                         _______ _______ _______ _____ _____    ______ ____
ROOT
ATOM      1  C   UNL     1       2.033   5.193  17.786  0.00  0.00    +0.000 C 
ATOM      2  C   UNL     1       1.510   3.976  18.077  0.00  0.00    +0.000 C 
ATOM      3  O   UNL     1       2.066   2.787  17.565  0.00  0.00    +0.000 OA
ATOM      4  C   UNL     1       2.669   2.155  18.631  0.00  0.00    +0.000 A 
ATOM      5  C   UNL     1       3.664   1.213  18.505  0.00  0.00    +0.000 A 
ATOM      6  C   UNL     1       4.482   1.002  19.618  0.00  0.00    +0.000 A 
ATOM      7  C   UNL     1       4.272   1.715  20.817  0.00  0.00    +0.000 A 
ATOM      8  C   UNL     1       3.197   2.598  20.952  0.00  0.00    +0.000 A 
ATOM      9  C   UNL     1       2.391   2.779  19.845  0.00  0.00    +0.000 A 
ATOM     10  C   UNL     1       1.438   3.849  19.578  0.00  0.00    +0.000 C 
ATOM     11  O   UNL     1       0.872   4.563  20.378  0.00  0.00    +0.000 OA
ENDROOT
BRANCH   1  15
ATOM     12  C   UNL     1       6.332   5.055  18.035  0.00  0.00    +0.000 A 
ATOM     13  C   UNL     1       5.555   5.534  19.095  0.00  0.00    +0.000 A 
ATOM     14  C   UNL     1       4.169   5.648  18.973  0.00  0.00    +0.000 A 
ATOM     15  C   UNL     1       3.524   5.274  17.782  0.00  0.00    +0.000 A 
ATOM     16  C   UNL     1       4.294   4.828  16.709  0.00  0.00    +0.000 A 
ATOM     17  C   UNL     1       5.688   4.702  16.840  0.00  0.00    +0.000 A 
BRANCH  12  19
ATOM     18  C   UNL     1       8.128   5.700  19.477  0.00  0.00    +0.000 C 
ATOM     19  O   UNL     1       7.661   4.980  18.347  0.00  0.00    +0.000 OA
ENDBRANCH  12  19
BRANCH  17  20
ATOM     20  O   UNL     1       6.388   4.187  15.782  0.00  0.00    +0.000 OA
ATOM     21  H   UNL     1       5.910   3.415  15.438  0.00  0.00    +0.000 HD
ENDBRANCH  17  20
ENDBRANCH   1  15
TORSDOF 3
ENDMDL
MODEL 5
REMARK VINA RESULT:      -6.7      2.893      4.595
REMARK  Name = 
REMARK  4 active torsions:
REMARK  status: ('A' for Active; 'I' for Inactive)
REMARK    1  A    between atoms: C_1  and  O_2
REMARK    2  A    between atoms: O_2  and  C_3
REMARK    3  A    between atoms: C_6  and  C_7
REMARK    4  A    between atoms: C_19  and  O_20
REMARK                            x       y       z     vdW  Elec       q    Type
REMARK                         _______ _______ _______ _____ _____    ______ ____
ROOT
ATOM      1  C   UNL     1       2.563   4.122  18.708  0.00  0.00    +0.000 C 
ATOM      2  C   UNL     1       3.619   3.664  17.991  0.00  0.00    +0.000 C 
ATOM      3  O   UNL     1       4.066   4.320  16.827  0.00  0.00    +0.000 OA
ATOM      4  C   UNL     1       5.269   4.908  17.156  0.00  0.00    +0.000 A 
ATOM      5  C   UNL     1       5.820   5.967  16.471  0.00  0.00    +0.000 A 
ATOM      6  C   UNL     1       6.763   6.740  17.152  0.00  0.00    +0.000 A 
ATOM      7  C   UNL     1       7.138   6.426  18.476  0.00  0.00    +0.000 A 
ATOM      8  C   UNL     1       6.634   5.291  19.118  0.00  0.00    +0.000 A 
ATOM      9  C   UNL     1       5.716   4.531  18.420  0.00  0.00    +0.000 A 
ATOM     10  C   UNL     1       4.791   3.526  18.930  0.00  0.00    +0.000 C 
ATOM     11  O   UNL     1       4.880   2.877  19.949  0.00  0.00    +0.000 OA
ENDROOT
BRANCH   1  15
ATOM     12  C   UNL     1       1.925   8.367  19.070  0.00  0.00    +0.000 A 
ATOM     13  C   UNL     1       2.137   7.765  17.826  0.00  0.00    +0.000 A 
ATOM     14  C   UNL     1       2.422   6.402  17.728  0.00  0.00    +0.000 A 
ATOM     15  C   UNL     1       2.491   5.604  18.883  0.00  0.00    +0.000 A 
ATOM     16  C   UNL     1       2.314   6.202  20.129  0.00  0.00    +0.000 A 
ATOM     17  C   UNL     1       2.015   7.573  20.222  0.00  0.00    +0.000 A 
BRANCH  12  19
ATOM     18  C   UNL     1       0.327  10.062  18.524  0.00  0.00    +0.000 C 
ATOM     19  O   UNL     1       1.625   9.697  18.968  0.00  0.00    +0.000 OA
ENDBRANCH  12  19
BRANCH  17  20
ATOM     20  O   UNL     1       1.776   8.094  21.464  0.00  0.00    +0.000 OA
ATOM     21  H   UNL     1       2.574   8.558  21.767  0.00  0.00    +0.000 HD
ENDBRANCH  17  20
ENDBRANCH   1  15
TORSDOF 3
ENDMDL
MODEL 6
REMARK VINA RESULT:      -6.6      1.109      1.758
REMARK  Name = 
REMARK  4 active torsions:
REMARK  status: ('A' for Active; 'I' for Inactive)
REMARK    1  A    between atoms: C_1  and  O_2
REMARK    2  A    between atoms: O_2  and  C_3
REMARK    3  A    between atoms: C_6  and  C_7
REMARK    4  A    between atoms: C_19  and  O_20
REMARK                            x       y       z     vdW  Elec       q    Type
REMARK                         _______ _______ _______ _____ _____    ______ ____
ROOT
ATOM      1  C   UNL     1       6.883   5.503  19.458  0.00  0.00    +0.000 C 
ATOM      2  C   UNL     1       7.659   5.431  18.349  0.00  0.00    +0.000 C 
ATOM      3  O   UNL     1       7.682   4.284  17.531  0.00  0.00    +0.000 OA
ATOM      4  C   UNL     1       7.034   4.632  16.365  0.00  0.00    +0.000 A 
ATOM      5  C   UNL     1       6.470   3.724  15.498  0.00  0.00    +0.000 A 
ATOM      6  C   UNL     1       5.481   4.201  14.636  0.00  0.00    +0.000 A 
ATOM      7  C   UNL     1       5.100   5.560  14.650  0.00  0.00    +0.000 A 
ATOM      8  C   UNL     1       5.753   6.483  15.474  0.00  0.00    +0.000 A 
ATOM      9  C   UNL     1       6.739   5.992  16.307  0.00  0.00    +0.000 A 
ATOM     10  C   UNL     1       7.336   6.620  17.479  0.00  0.00    +0.000 C 
ATOM     11  O   UNL     1       7.392   7.800  17.748  0.00  0.00    +0.000 OA
ENDROOT
BRANCH   1  15
ATOM     12  C   UNL     1       2.944   3.756  19.524  0.00  0.00    +0.000 A 
ATOM     13  C   UNL     1       4.095   2.961  19.537  0.00  0.00    +0.000 A 
ATOM     14  C   UNL     1       5.364   3.535  19.435  0.00  0.00    +0.000 A 
ATOM     15  C   UNL     1       5.510   4.929  19.327  0.00  0.00    +0.000 A 
ATOM     16  C   UNL     1       4.367   5.726  19.278  0.00  0.00    +0.000 A 
ATOM     17  C   UNL     1       3.092   5.144  19.395  0.00  0.00    +0.000 A 
BRANCH  12  19
ATOM     18  C   UNL     1       1.276   2.846  20.976  0.00  0.00    +0.000 C 
ATOM     19  O   UNL     1       1.798   3.026  19.669  0.00  0.00    +0.000 OA
ENDBRANCH  12  19
BRANCH  17  20
ATOM     20  O   UNL     1       2.007   5.979  19.417  0.00  0.00    +0.000 OA
ATOM     21  H   UNL     1       2.233   6.770  19.933  0.00  0.00    +0.000 HD
ENDBRANCH  17  20
ENDBRANCH   1  15
TORSDOF 3
ENDMDL
MODEL 7
REMARK VINA RESULT:      -6.6      1.804      5.267
REMARK  Name = 
REMARK  4 active torsions:
REMARK  status: ('A' for Active; 'I' for Inactive)
REMARK    1  A    between atoms: C_1  and  O_2
REMARK    2  A    between atoms: O_2  and  C_3
REMARK    3  A    between atoms: C_6  and  C_7
REMARK    4  A    between atoms: C_19  and  O_20
REMARK                            x       y       z     vdW  Elec       q    Type
REMARK                         _______ _______ _______ _____ _____    ______ ____
ROOT
ATOM      1  C   UNL     1       2.614   6.451  19.564  0.00  0.00    +0.000 C 
ATOM      2  C   UNL     1       1.764   5.396  19.503  0.00  0.00    +0.000 C 
ATOM      3  O   UNL     1       1.518   4.709  18.298  0.00  0.00    +0.000 OA
ATOM      4  C   UNL     1       2.134   3.482  18.423  0.00  0.00    +0.000 A 
ATOM      5  C   UNL     1       2.499   2.692  17.357  0.00  0.00    +0.000 A 
ATOM      6  C   UNL     1       3.490   1.736  17.587  0.00  0.00    +0.000 A 
ATOM      7  C   UNL     1       4.069   1.584  18.865  0.00  0.00    +0.000 A 
ATOM      8  C   UNL     1       3.616   2.334  19.954  0.00  0.00    +0.000 A 
ATOM      9  C   UNL     1       2.623   3.263  19.708  0.00  0.00    +0.000 A 
ATOM     10  C   UNL     1       2.204   4.388  20.535  0.00  0.00    +0.000 C 
ATOM     11  O   UNL     1       2.343   4.530  21.730  0.00  0.00    +0.000 OA
ENDROOT
BRANCH   1  15
ATOM     12  C   UNL     1       6.131   5.628  17.216  0.00  0.00    +0.000 A 
ATOM     13  C   UNL     1       6.029   5.212  18.547  0.00  0.00    +0.000 A 
ATOM     14  C   UNL     1       4.919   5.553  19.322  0.00  0.00    +0.000 A 
ATOM     15  C   UNL     1       3.874   6.316  18.773  0.00  0.00    +0.000 A 
ATOM     16  C   UNL     1       3.983   6.764  17.458  0.00  0.00    +0.000 A 
ATOM     17  C   UNL     1       5.097   6.407  16.677  0.00  0.00    +0.000 A 
BRANCH  12  19
ATOM     18  C   UNL     1       7.129   4.337  15.466  0.00  0.00    +0.000 C 
ATOM     19  O   UNL     1       7.267   5.172  16.607  0.00  0.00    +0.000 OA
ENDBRANCH  12  19
BRANCH  17  20
ATOM     20  O   UNL     1       5.119   6.809  15.369  0.00  0.00    +0.000 OA
ATOM     21  H   UNL     1       6.036   7.004  15.118  0.00  0.00    +0.000 HD
ENDBRANCH  17  20
ENDBRANCH   1  15
TORSDOF 3
ENDMDL
MODEL 8
REMARK VINA RESULT:      -6.5      1.785      3.297
REMARK  Name = 
REMARK  4 active torsions:
REMARK  status: ('A' for Active; 'I' for Inactive)
REMARK    1  A    between atoms: C_1  and  O_2
REMARK    2  A    between atoms: O_2  and  C_3
REMARK    3  A    between atoms: C_6  and  C_7
REMARK    4  A    between atoms: C_19  and  O_20
REMARK                            x       y       z     vdW  Elec       q    Type
REMARK                         _______ _______ _______ _____ _____    ______ ____
ROOT
ATOM      1  C   UNL     1       3.961   4.349  15.993  0.00  0.00    +0.000 C 
ATOM      2  C   UNL     1       4.987   5.141  15.593  0.00  0.00    +0.000 C 
ATOM      3  O   UNL     1       5.256   6.377  16.212  0.00  0.00    +0.000 OA
ATOM      4  C   UNL     1       6.418   6.200  16.933  0.00  0.00    +0.000 A 
ATOM      5  C   UNL     1       6.795   6.993  17.993  0.00  0.00    +0.000 A 
ATOM      6  C   UNL     1       7.713   6.451  18.895  0.00  0.00    +0.000 A 
ATOM      7  C   UNL     1       8.239   5.155  18.703  0.00  0.00    +0.000 A 
ATOM      8  C   UNL     1       7.914   4.406  17.568  0.00  0.00    +0.000 A 
ATOM      9  C   UNL     1       7.016   4.968  16.682  0.00  0.00    +0.000 A 
ATOM     10  C   UNL     1       6.249   4.315  15.627  0.00  0.00    +0.000 C 
ATOM     11  O   UNL     1       6.497   3.276  15.056  0.00  0.00    +0.000 OA
ENDROOT
BRANCH   1  15
ATOM     12  C   UNL     1       2.998   3.818  20.159  0.00  0.00    +0.000 A 
ATOM     13  C   UNL     1       2.316   4.746  19.365  0.00  0.00    +0.000 A 
ATOM     14  C   UNL     1       2.689   4.966  18.038  0.00  0.00    +0.000 A 
ATOM     15  C   UNL     1       3.756   4.249  17.469  0.00  0.00    +0.000 A 
ATOM     16  C   UNL     1       4.463   3.347  18.263  0.00  0.00    +0.000 A 
ATOM     17  C   UNL     1       4.075   3.119  19.595  0.00  0.00    +0.000 A 
BRANCH  12  19
ATOM     18  C   UNL     1       1.422   2.780  21.629  0.00  0.00    +0.000 C 
ATOM     19  O   UNL     1       2.472   3.712  21.416  0.00  0.00    +0.000 OA
ENDBRANCH  12  19
BRANCH  17  20
ATOM     20  O   UNL     1       4.755   2.169  20.307  0.00  0.00    +0.000 OA
ATOM     21  H   UNL     1       4.447   2.189  21.228  0.00  0.00    +0.000 HD
ENDBRANCH  17  20
ENDBRANCH   1  15
TORSDOF 3
ENDMDL
MODEL 9
REMARK VINA RESULT:      -6.4      1.958      5.470
REMARK  Name = 
REMARK  4 active torsions:
REMARK  status: ('A' for Active; 'I' for Inactive)
REMARK    1  A    between atoms: C_1  and  O_2
REMARK    2  A    between atoms: O_2  and  C_3
REMARK    3  A    between atoms: C_6  and  C_7
REMARK    4  A    between atoms: C_19  and  O_20
REMARK                            x       y       z     vdW  Elec       q    Type
REMARK                         _______ _______ _______ _____ _____    ______ ____
ROOT
ATOM      1  C   UNL     1       2.105   5.986  18.193  0.00  0.00    +0.000 C 
ATOM      2  C   UNL     1       1.479   4.784  18.237  0.00  0.00    +0.000 C 
ATOM      3  O   UNL     1       1.831   3.731  17.369  0.00  0.00    +0.000 OA
ATOM      4  C   UNL     1       2.471   2.790  18.147  0.00  0.00    +0.000 A 
ATOM      5  C   UNL     1       3.328   1.835  17.650  0.00  0.00    +0.000 A 
ATOM      6  C   UNL     1       4.234   1.268  18.550  0.00  0.00    +0.000 A 
ATOM      7  C   UNL     1       4.245   1.652  19.907  0.00  0.00    +0.000 A 
ATOM      8  C   UNL     1       3.303   2.555  20.408  0.00  0.00    +0.000 A 
ATOM      9  C   UNL     1       2.405   3.091  19.505  0.00  0.00    +0.000 A 
ATOM     10  C   UNL     1       1.561   4.270  19.652  0.00  0.00    +0.000 C 
ATOM     11  O   UNL     1       1.176   4.791  20.676  0.00  0.00    +0.000 OA
ENDROOT
BRANCH   1  15
ATOM     12  C   UNL     1       6.377   6.298  17.718  0.00  0.00    +0.000 A 
ATOM     13  C   UNL     1       5.499   6.695  16.704  0.00  0.00    +0.000 A 
ATOM     14  C   UNL     1       4.121   6.515  16.837  0.00  0.00    +0.000 A 
ATOM     15  C   UNL     1       3.586   5.939  18.002  0.00  0.00    +0.000 A 
ATOM     16  C   UNL     1       4.456   5.509  19.004  0.00  0.00    +0.000 A 
ATOM     17  C   UNL     1       5.842   5.704  18.870  0.00  0.00    +0.000 A 
BRANCH  12  19
ATOM     18  C   UNL     1       8.150   7.903  17.665  0.00  0.00    +0.000 C 
ATOM     19  O   UNL     1       7.681   6.584  17.428  0.00  0.00    +0.000 OA
ENDBRANCH  12  19
BRANCH  17  20
ATOM     20  O   UNL     1       6.645   5.334  19.915  0.00  0.00    +0.000 OA
ATOM     21  H   UNL     1       6.663   6.054  20.566  0.00  0.00    +0.000 HD
ENDBRANCH  17  20
ENDBRANCH   1  15
TORSDOF 3
ENDMDL
