MODEL 1
REMARK VINA RESULT:      -6.8      0.000      0.000
REMARK  Name = 
REMARK  5 active torsions:
REMARK  status: ('A' for Active; 'I' for Inactive)
REMARK    1  A    between atoms: N_2  and  C_4
REMARK    2  A    between atoms: C_7  and  N_8
REMARK    3  A    between atoms: N_8  and  C_9
REMARK    4  A    between atoms: C_9  and  C_10
REMARK    5  A    between atoms: C_13  and  O_14
REMARK                            x       y       z     vdW  Elec       q    Type
REMARK                         _______ _______ _______ _____ _____    ______ ____
ROOT
ATOM      1  N   UNL     1       4.587   4.199  16.190  0.00  0.00    +0.000 N 
ATOM      2  H   UNL     1       4.311   5.083  15.771  0.00  0.00    +0.000 HD
ENDROOT
BRANCH   1   6
ATOM      3  C   UNL     1       2.702   3.183  19.817  0.00  0.00    +0.000 A 
ATOM      4  C   UNL     1       3.046   2.191  18.895  0.00  0.00    +0.000 A 
ATOM      5  C   UNL     1       3.653   2.558  17.688  0.00  0.00    +0.000 A 
ATOM      6  C   UNL     1       3.899   3.902  17.365  0.00  0.00    +0.000 A 
ATOM      7  C   UNL     1       3.568   4.873  18.321  0.00  0.00    +0.000 A 
ATOM      8  C   UNL     1       2.965   4.526  19.536  0.00  0.00    +0.000 A 
BRANCH   3  10
ATOM      9  O   UNL     1       0.848   2.826  21.164  0.00  0.00    +0.000 OA
ATOM     10  N   UNL     1       2.085   2.814  21.096  0.00  0.00    +0.000 N 
ATOM     11  O   UNL     1       2.837   2.511  22.034  0.00  0.00    +0.000 OA
ENDBRANCH   3  10
ENDBRANCH   1   6
BRANCH   1  12
ATOM     12  C   UNL     1       6.030   4.001  16.101  0.00  0.00    +0.000 C 
BRANCH  12  13
ATOM     13  C   UNL     1       6.727   5.037  16.954  0.00  0.00    +0.000 A 
ATOM     14  C   UNL     1       7.409   4.674  18.125  0.00  0.00    +0.000 A 
ATOM     15  C   UNL     1       8.076   5.642  18.884  0.00  0.00    +0.000 A 
ATOM     16  C   UNL     1       8.061   6.971  18.470  0.00  0.00    +0.000 A 
ATOM     17  C   UNL     1       7.392   7.348  17.314  0.00  0.00    +0.000 A 
ATOM     18  C   UNL     1       6.727   6.384  16.558  0.00  0.00    +0.000 A 
BRANCH  16  19
ATOM     19  O   UNL     1       8.700   7.944  19.179  0.00  0.00    +0.000 OA
ATOM     20  H   UNL     1       8.112   8.713  19.251  0.00  0.00    +0.000 HD
ENDBRANCH  16  19
ENDBRANCH  12  13
ENDBRANCH   1  12
TORSDOF 5
ENDMDL
MODEL 2
REMARK VINA RESULT:      -6.8      2.858      6.545
REMARK  Name = 
REMARK  5 active torsions:
REMARK  status: ('A' for Active; 'I' for Inactive)
REMARK    1  A    between atoms: N_2  and  C_4
REMARK    2  A    between atoms: C_7  and  N_8
REMARK    3  A    between atoms: N_8  and  C_9
REMARK    4  A    between atoms: C_9  and  C_10
REMARK    5  A    between atoms: C_13  and  O_14
REMARK                            x       y       z     vdW  Elec       q    Type
REMARK                         _______ _______ _______ _____ _____    ______ ____
ROOT
ATOM      1  N   UNL     1       4.182   6.286  19.530  0.00  0.00    +0.000 N 
ATOM      2  H   UNL     1       4.615   7.006  20.101  0.00  0.00    +0.000 HD
ENDROOT
BRANCH   1   6
ATOM      3  C   UNL     1       6.187   5.230  15.980  0.00  0.00    +0.000 A 
ATOM      4  C   UNL     1       6.400   4.507  17.156  0.00  0.00    +0.000 A 
ATOM      5  C   UNL     1       5.737   4.891  18.328  0.00  0.00    +0.000 A 
ATOM      6  C   UNL     1       4.883   6.006  18.359  0.00  0.00    +0.000 A 
ATOM      7  C   UNL     1       4.668   6.696  17.158  0.00  0.00    +0.000 A 
ATOM      8  C   UNL     1       5.317   6.324  15.975  0.00  0.00    +0.000 A 
BRANCH   3  10
ATOM      9  O   UNL     1       6.435   3.817  14.158  0.00  0.00    +0.000 OA
ATOM     10  N   UNL     1       6.858   4.827  14.739  0.00  0.00    +0.000 N 
ATOM     11  O   UNL     1       7.808   5.518  14.345  0.00  0.00    +0.000 OA
ENDBRANCH   3  10
ENDBRANCH   1   6
BRANCH   1  12
ATOM     12  C   UNL     1       2.730   6.431  19.513  0.00  0.00    +0.000 C 
BRANCH  12  13
ATOM     13  C   UNL     1       2.097   5.071  19.320  0.00  0.00    +0.000 A 
ATOM     14  C   UNL     1       1.642   4.320  20.414  0.00  0.00    +0.000 A 
ATOM     15  C   UNL     1       1.029   3.079  20.214  0.00  0.00    +0.000 A 
ATOM     16  C   UNL     1       0.871   2.590  18.921  0.00  0.00    +0.000 A 
ATOM     17  C   UNL     1       1.316   3.319  17.826  0.00  0.00    +0.000 A 
ATOM     18  C   UNL     1       1.927   4.556  18.025  0.00  0.00    +0.000 A 
BRANCH  16  19
ATOM     19  O   UNL     1       0.278   1.386  18.682  0.00  0.00    +0.000 OA
ATOM     20  H   UNL     1      -0.589   1.543  18.273  0.00  0.00    +0.000 HD
ENDBRANCH  16  19
ENDBRANCH  12  13
ENDBRANCH   1  12
TORSDOF 5
ENDMDL
MODEL 3
REMARK VINA RESULT:      -6.7      3.029      6.866
REMARK  Name = 
REMARK  5 active torsions:
REMARK  status: ('A' for Active; 'I' for Inactive)
REMARK    1  A    between atoms: N_2  and  C_4
REMARK    2  A    between atoms: C_7  and  N_8
REMARK    3  A    between atoms: N_8  and  C_9
REMARK    4  A    between atoms: C_9  and  C_10
REMARK    5  A    between atoms: C_13  and  O_14
REMARK                            x       y       z     vdW  Elec       q    Type
REMARK                         _______ _______ _______ _____ _____    ______ ____
ROOT
ATOM      1  N   UNL     1       5.903   4.473  18.775  0.00  0.00    +0.000 N 
ATOM      2  H   UNL     1       6.734   4.601  19.347  0.00  0.00    +0.000 HD
ENDROOT
BRANCH   1   6
ATOM      3  C   UNL     1       6.862   4.718  14.682  0.00  0.00    +0.000 A 
ATOM      4  C   UNL     1       7.499   5.545  15.609  0.00  0.00    +0.000 A 
ATOM      5  C   UNL     1       7.148   5.458  16.962  0.00  0.00    +0.000 A 
ATOM      6  C   UNL     1       6.147   4.580  17.407  0.00  0.00    +0.000 A 
ATOM      7  C   UNL     1       5.544   3.743  16.458  0.00  0.00    +0.000 A 
ATOM      8  C   UNL     1       5.885   3.811  15.102  0.00  0.00    +0.000 A 
BRANCH   3  10
ATOM      9  O   UNL     1       6.752   3.932  12.502  0.00  0.00    +0.000 OA
ATOM     10  N   UNL     1       7.235   4.782  13.264  0.00  0.00    +0.000 N 
ATOM     11  O   UNL     1       8.012   5.681  12.911  0.00  0.00    +0.000 OA
ENDBRANCH   3  10
ENDBRANCH   1   6
BRANCH   1  12
ATOM     12  C   UNL     1       4.744   5.121  19.378  0.00  0.00    +0.000 C 
BRANCH  12  13
ATOM     13  C   UNL     1       3.514   4.283  19.116  0.00  0.00    +0.000 A 
ATOM     14  C   UNL     1       2.466   4.760  18.313  0.00  0.00    +0.000 A 
ATOM     15  C   UNL     1       1.350   3.958  18.055  0.00  0.00    +0.000 A 
ATOM     16  C   UNL     1       1.283   2.678  18.597  0.00  0.00    +0.000 A 
ATOM     17  C   UNL     1       2.309   2.189  19.394  0.00  0.00    +0.000 A 
ATOM     18  C   UNL     1       3.421   2.988  19.652  0.00  0.00    +0.000 A 
BRANCH  16  19
ATOM     19  O   UNL     1       0.214   1.863  18.368  0.00  0.00    +0.000 OA
ATOM     20  H   UNL     1       0.199   1.172  19.050  0.00  0.00    +0.000 HD
ENDBRANCH  16  19
ENDBRANCH  12  13
ENDBRANCH   1  12
TORSDOF 5
ENDMDL
MODEL 4
REMARK VINA RESULT:      -6.7      2.850      6.679
REMARK  Name = 
REMARK  5 active torsions:
REMARK  status: ('A' for Active; 'I' for Inactive)
REMARK    1  A    between atoms: N_2  and  C_4
REMARK    2  A    between atoms: C_7  and  N_8
REMARK    3  A    between atoms: N_8  and  C_9
REMARK    4  A    between atoms: C_9  and  C_10
REMARK    5  A    between atoms: C_13  and  O_14
REMARK                            x       y       z     vdW  Elec       q    Type
REMARK                         _______ _______ _______ _____ _____    ______ ____
ROOT
ATOM      1  N   UNL     1       4.159   6.324  19.498  0.00  0.00    +0.000 N 
ATOM      2  H   UNL     1       4.630   7.113  19.932  0.00  0.00    +0.000 HD
ENDROOT
BRANCH   1   6
ATOM      3  C   UNL     1       6.150   5.191  15.965  0.00  0.00    +0.000 A 
ATOM      4  C   UNL     1       5.324   6.317  15.982  0.00  0.00    +0.000 A 
ATOM      5  C   UNL     1       4.656   6.660  17.164  0.00  0.00    +0.000 A 
ATOM      6  C   UNL     1       4.774   5.883  18.328  0.00  0.00    +0.000 A 
ATOM      7  C   UNL     1       5.631   4.775  18.288  0.00  0.00    +0.000 A 
ATOM      8  C   UNL     1       6.311   4.418  17.117  0.00  0.00    +0.000 A 
BRANCH   3  10
ATOM      9  O   UNL     1       7.857   5.516  14.428  0.00  0.00    +0.000 OA
ATOM     10  N   UNL     1       6.873   4.830  14.739  0.00  0.00    +0.000 N 
ATOM     11  O   UNL     1       6.457   3.862  14.087  0.00  0.00    +0.000 OA
ENDBRANCH   3  10
ENDBRANCH   1   6
BRANCH   1  12
ATOM     12  C   UNL     1       2.709   6.475  19.567  0.00  0.00    +0.000 C 
BRANCH  12  13
ATOM     13  C   UNL     1       2.058   5.132  19.322  0.00  0.00    +0.000 A 
ATOM     14  C   UNL     1       1.868   4.644  18.020  0.00  0.00    +0.000 A 
ATOM     15  C   UNL     1       1.293   3.385  17.814  0.00  0.00    +0.000 A 
ATOM     16  C   UNL     1       0.911   2.615  18.909  0.00  0.00    +0.000 A 
ATOM     17  C   UNL     1       1.092   3.083  20.203  0.00  0.00    +0.000 A 
ATOM     18  C   UNL     1       1.664   4.337  20.409  0.00  0.00    +0.000 A 
BRANCH  16  19
ATOM     19  O   UNL     1       0.350   1.383  18.752  0.00  0.00    +0.000 OA
ATOM     20  H   UNL     1      -0.608   1.459  18.887  0.00  0.00    +0.000 HD
ENDBRANCH  16  19
ENDBRANCH  12  13
ENDBRANCH   1  12
TORSDOF 5
ENDMDL
MODEL 5
REMARK VINA RESULT:      -6.6      2.953      6.721
REMARK  Name = 
REMARK  5 active torsions:
REMARK  status: ('A' for Active; 'I' for Inactive)
REMARK    1  A    between atoms: N_2  and  C_4
REMARK    2  A    between atoms: C_7  and  N_8
REMARK    3  A    between atoms: N_8  and  C_9
REMARK    4  A    between atoms: C_9  and  C_10
REMARK    5  A    between atoms: C_13  and  O_14
REMARK                            x       y       z     vdW  Elec       q    Type
REMARK                         _______ _______ _______ _____ _____    ______ ____
ROOT
ATOM      1  N   UNL     1       5.798   4.625  19.092  0.00  0.00    +0.000 N 
ATOM      2  H   UNL     1       6.554   4.803  19.748  0.00  0.00    +0.000 HD
ENDROOT
BRANCH   1   6
ATOM      3  C   UNL     1       6.804   4.710  15.003  0.00  0.00    +0.000 A 
ATOM      4  C   UNL     1       5.910   3.754  15.493  0.00  0.00    +0.000 A 
ATOM      5  C   UNL     1       5.609   3.734  16.861  0.00  0.00    +0.000 A 
ATOM      6  C   UNL     1       6.205   4.634  17.759  0.00  0.00    +0.000 A 
ATOM      7  C   UNL     1       7.076   5.598  17.234  0.00  0.00    +0.000 A 
ATOM      8  C   UNL     1       7.387   5.638  15.869  0.00  0.00    +0.000 A 
BRANCH   3  10
ATOM      9  O   UNL     1       7.905   5.627  13.179  0.00  0.00    +0.000 OA
ATOM     10  N   UNL     1       7.113   4.757  13.569  0.00  0.00    +0.000 N 
ATOM     11  O   UNL     1       6.564   3.926  12.832  0.00  0.00    +0.000 OA
ENDBRANCH   3  10
ENDBRANCH   1   6
BRANCH   1  12
ATOM     12  C   UNL     1       4.574   5.304  19.502  0.00  0.00    +0.000 C 
BRANCH  12  13
ATOM     13  C   UNL     1       3.389   4.413  19.204  0.00  0.00    +0.000 A 
ATOM     14  C   UNL     1       2.414   4.790  18.269  0.00  0.00    +0.000 A 
ATOM     15  C   UNL     1       1.341   3.939  17.983  0.00  0.00    +0.000 A 
ATOM     16  C   UNL     1       1.246   2.711  18.631  0.00  0.00    +0.000 A 
ATOM     17  C   UNL     1       2.201   2.322  19.560  0.00  0.00    +0.000 A 
ATOM     18  C   UNL     1       3.270   3.170  19.845  0.00  0.00    +0.000 A 
BRANCH  16  19
ATOM     19  O   UNL     1       0.219   1.851  18.380  0.00  0.00    +0.000 OA
ATOM     20  H   UNL     1       0.588   1.007  18.074  0.00  0.00    +0.000 HD
ENDBRANCH  16  19
ENDBRANCH  12  13
ENDBRANCH   1  12
TORSDOF 5
ENDMDL
MODEL 6
REMARK VINA RESULT:      -6.6      1.822      6.311
REMARK  Name = 
REMARK  5 active torsions:
REMARK  status: ('A' for Active; 'I' for Inactive)
REMARK    1  A    between atoms: N_2  and  C_4
REMARK    2  A    between atoms: C_7  and  N_8
REMARK    3  A    between atoms: N_8  and  C_9
REMARK    4  A    between atoms: C_9  and  C_10
REMARK    5  A    between atoms: C_13  and  O_14
REMARK                            x       y       z     vdW  Elec       q    Type
REMARK                         _______ _______ _______ _____ _____    ______ ____
ROOT
ATOM      1  N   UNL     1       4.546   3.299  17.021  0.00  0.00    +0.000 N 
ATOM      2  H   UNL     1       4.852   2.480  17.538  0.00  0.00    +0.000 HD
ENDROOT
BRANCH   1   6
ATOM      3  C   UNL     1       6.964   6.691  17.637  0.00  0.00    +0.000 A 
ATOM      4  C   UNL     1       5.644   6.832  17.202  0.00  0.00    +0.000 A 
ATOM      5  C   UNL     1       4.867   5.687  16.984  0.00  0.00    +0.000 A 
ATOM      6  C   UNL     1       5.392   4.397  17.165  0.00  0.00    +0.000 A 
ATOM      7  C   UNL     1       6.710   4.288  17.628  0.00  0.00    +0.000 A 
ATOM      8  C   UNL     1       7.501   5.420  17.856  0.00  0.00    +0.000 A 
BRANCH   3  10
ATOM      9  O   UNL     1       7.613   8.866  17.156  0.00  0.00    +0.000 OA
ATOM     10  N   UNL     1       7.784   7.882  17.890  0.00  0.00    +0.000 N 
ATOM     11  O   UNL     1       8.599   7.835  18.822  0.00  0.00    +0.000 OA
ENDBRANCH   3  10
ENDBRANCH   1   6
BRANCH   1  12
ATOM     12  C   UNL     1       3.098   3.459  17.099  0.00  0.00    +0.000 C 
BRANCH  12  13
ATOM     13  C   UNL     1       2.643   3.185  18.514  0.00  0.00    +0.000 A 
ATOM     14  C   UNL     1       3.547   2.758  19.498  0.00  0.00    +0.000 A 
ATOM     15  C   UNL     1       3.114   2.540  20.810  0.00  0.00    +0.000 A 
ATOM     16  C   UNL     1       1.778   2.750  21.138  0.00  0.00    +0.000 A 
ATOM     17  C   UNL     1       0.869   3.172  20.177  0.00  0.00    +0.000 A 
ATOM     18  C   UNL     1       1.300   3.389  18.869  0.00  0.00    +0.000 A 
BRANCH  16  19
ATOM     19  O   UNL     1       1.316   2.552  22.404  0.00  0.00    +0.000 OA
ATOM     20  H   UNL     1       1.932   1.965  22.871  0.00  0.00    +0.000 HD
ENDBRANCH  16  19
ENDBRANCH  12  13
ENDBRANCH   1  12
TORSDOF 5
ENDMDL
MODEL 7
REMARK VINA RESULT:      -6.6      2.964      7.029
REMARK  Name = 
REMARK  5 active torsions:
REMARK  status: ('A' for Active; 'I' for Inactive)
REMARK    1  A    between atoms: N_2  and  C_4
REMARK    2  A    between atoms: C_7  and  N_8
REMARK    3  A    between atoms: N_8  and  C_9
REMARK    4  A    between atoms: C_9  and  C_10
REMARK    5  A    between atoms: C_13  and  O_14
REMARK                            x       y       z     vdW  Elec       q    Type
REMARK                         _______ _______ _______ _____ _____    ______ ____
ROOT
ATOM      1  N   UNL     1       4.912   3.851  17.694  0.00  0.00    +0.000 N 
ATOM      2  H   UNL     1       5.460   3.608  18.516  0.00  0.00    +0.000 HD
ENDROOT
BRANCH   1   6
ATOM      3  C   UNL     1       7.089   4.814  14.220  0.00  0.00    +0.000 A 
ATOM      4  C   UNL     1       5.842   4.192  14.125  0.00  0.00    +0.000 A 
ATOM      5  C   UNL     1       5.148   3.863  15.296  0.00  0.00    +0.000 A 
ATOM      6  C   UNL     1       5.687   4.117  16.567  0.00  0.00    +0.000 A 
ATOM      7  C   UNL     1       6.927   4.767  16.632  0.00  0.00    +0.000 A 
ATOM      8  C   UNL     1       7.635   5.109  15.472  0.00  0.00    +0.000 A 
BRANCH   3  10
ATOM      9  O   UNL     1       7.441   4.688  11.931  0.00  0.00    +0.000 OA
ATOM     10  N   UNL     1       7.819   5.185  13.002  0.00  0.00    +0.000 N 
ATOM     11  O   UNL     1       8.770   5.971  13.115  0.00  0.00    +0.000 OA
ENDBRANCH   3  10
ENDBRANCH   1   6
BRANCH   1  12
ATOM     12  C   UNL     1       3.789   4.713  18.047  0.00  0.00    +0.000 C 
BRANCH  12  13
ATOM     13  C   UNL     1       3.065   4.124  19.236  0.00  0.00    +0.000 A 
ATOM     14  C   UNL     1       1.767   4.536  19.574  0.00  0.00    +0.000 A 
ATOM     15  C   UNL     1       1.100   3.957  20.658  0.00  0.00    +0.000 A 
ATOM     16  C   UNL     1       1.731   2.964  21.403  0.00  0.00    +0.000 A 
ATOM     17  C   UNL     1       3.015   2.544  21.084  0.00  0.00    +0.000 A 
ATOM     18  C   UNL     1       3.680   3.122  20.003  0.00  0.00    +0.000 A 
BRANCH  16  19
ATOM     19  O   UNL     1       1.116   2.372  22.466  0.00  0.00    +0.000 OA
ATOM     20  H   UNL     1       1.269   2.916  23.255  0.00  0.00    +0.000 HD
ENDBRANCH  16  19
ENDBRANCH  12  13
ENDBRANCH   1  12
TORSDOF 5
ENDMDL
MODEL 8
REMARK VINA RESULT:      -6.6      2.954      6.766
REMARK  Name = 
REMARK  5 active torsions:
REMARK  status: ('A' for Active; 'I' for Inactive)
REMARK    1  A    between atoms: N_2  and  C_4
REMARK    2  A    between atoms: C_7  and  N_8
REMARK    3  A    between atoms: N_8  and  C_9
REMARK    4  A    between atoms: C_9  and  C_10
REMARK    5  A    between atoms: C_13  and  O_14
REMARK                            x       y       z     vdW  Elec       q    Type
REMARK                         _______ _______ _______ _____ _____    ______ ____
ROOT
ATOM      1  N   UNL     1       5.155   5.542  18.890  0.00  0.00    +0.000 N 
ATOM      2  H   UNL     1       4.376   6.194  18.899  0.00  0.00    +0.000 HD
ENDROOT
BRANCH   1   6
ATOM      3  C   UNL     1       6.704   5.036  15.006  0.00  0.00    +0.000 A 
ATOM      4  C   UNL     1       5.467   5.656  15.201  0.00  0.00    +0.000 A 
ATOM      5  C   UNL     1       4.965   5.793  16.501  0.00  0.00    +0.000 A 
ATOM      6  C   UNL     1       5.660   5.296  17.615  0.00  0.00    +0.000 A 
ATOM      7  C   UNL     1       6.911   4.703  17.392  0.00  0.00    +0.000 A 
ATOM      8  C   UNL     1       7.432   4.561  16.100  0.00  0.00    +0.000 A 
BRANCH   3  10
ATOM      9  O   UNL     1       6.727   4.075  12.895  0.00  0.00    +0.000 OA
ATOM     10  N   UNL     1       7.253   4.904  13.652  0.00  0.00    +0.000 N 
ATOM     11  O   UNL     1       8.211   5.628  13.344  0.00  0.00    +0.000 OA
ENDBRANCH   3  10
ENDBRANCH   1   6
BRANCH   1  12
ATOM     12  C   UNL     1       4.936   4.447  19.828  0.00  0.00    +0.000 C 
BRANCH  12  13
ATOM     13  C   UNL     1       3.656   3.730  19.464  0.00  0.00    +0.000 A 
ATOM     14  C   UNL     1       2.408   4.208  19.892  0.00  0.00    +0.000 A 
ATOM     15  C   UNL     1       1.232   3.550  19.519  0.00  0.00    +0.000 A 
ATOM     16  C   UNL     1       1.304   2.414  18.716  0.00  0.00    +0.000 A 
ATOM     17  C   UNL     1       2.529   1.927  18.284  0.00  0.00    +0.000 A 
ATOM     18  C   UNL     1       3.702   2.582  18.656  0.00  0.00    +0.000 A 
BRANCH  16  19
ATOM     19  O   UNL     1       0.182   1.745  18.328  0.00  0.00    +0.000 OA
ATOM     20  H   UNL     1      -0.564   2.050  18.869  0.00  0.00    +0.000 HD
ENDBRANCH  16  19
ENDBRANCH  12  13
ENDBRANCH   1  12
TORSDOF 5
ENDMDL
MODEL 9
REMARK VINA RESULT:      -6.6      2.890      6.736
REMARK  Name = 
REMARK  5 active torsions:
REMARK  status: ('A' for Active; 'I' for Inactive)
REMARK    1  A    between atoms: N_2  and  C_4
REMARK    2  A    between atoms: C_7  and  N_8
REMARK    3  A    between atoms: N_8  and  C_9
REMARK    4  A    between atoms: C_9  and  C_10
REMARK    5  A    between atoms: C_13  and  O_14
REMARK                            x       y       z     vdW  Elec       q    Type
REMARK                         _______ _______ _______ _____ _____    ______ ____
ROOT
ATOM      1  N   UNL     1       3.396   6.031  18.117  0.00  0.00    +0.000 N 
ATOM      2  H   UNL     1       3.346   7.015  18.364  0.00  0.00    +0.000 HD
ENDROOT
BRANCH   1   6
ATOM      3  C   UNL     1       6.044   5.088  14.981  0.00  0.00    +0.000 A 
ATOM      4  C   UNL     1       5.454   4.074  15.739  0.00  0.00    +0.000 A 
ATOM      5  C   UNL     1       4.593   4.414  16.790  0.00  0.00    +0.000 A 
ATOM      6  C   UNL     1       4.330   5.753  17.121  0.00  0.00    +0.000 A 
ATOM      7  C   UNL     1       4.915   6.749  16.326  0.00  0.00    +0.000 A 
ATOM      8  C   UNL     1       5.774   6.428  15.268  0.00  0.00    +0.000 A 
BRANCH   3  10
ATOM      9  O   UNL     1       7.961   5.420  13.717  0.00  0.00    +0.000 OA
ATOM     10  N   UNL     1       6.931   4.746  13.863  0.00  0.00    +0.000 N 
ATOM     11  O   UNL     1       6.599   3.804  13.129  0.00  0.00    +0.000 OA
ENDBRANCH   3  10
ENDBRANCH   1   6
BRANCH   1  12
ATOM     12  C   UNL     1       2.068   5.428  18.082  0.00  0.00    +0.000 C 
BRANCH  12  13
ATOM     13  C   UNL     1       1.903   4.521  19.280  0.00  0.00    +0.000 A 
ATOM     14  C   UNL     1       2.458   4.852  20.525  0.00  0.00    +0.000 A 
ATOM     15  C   UNL     1       2.266   4.016  21.630  0.00  0.00    +0.000 A 
ATOM     16  C   UNL     1       1.519   2.850  21.489  0.00  0.00    +0.000 A 
ATOM     17  C   UNL     1       0.962   2.506  20.265  0.00  0.00    +0.000 A 
ATOM     18  C   UNL     1       1.153   3.339  19.164  0.00  0.00    +0.000 A 
BRANCH  16  19
ATOM     19  O   UNL     1       1.307   2.010  22.541  0.00  0.00    +0.000 OA
ATOM     20  H   UNL     1       0.757   2.467  23.198  0.00  0.00    +0.000 HD
ENDBRANCH  16  19
ENDBRANCH  12  13
ENDBRANCH   1  12
TORSDOF 5
ENDMDL
