MODEL 1
REMARK VINA RESULT:      -8.3      0.000      0.000
REMARK  Name = 
REMARK  10 active torsions:
REMARK  status: ('A' for Active; 'I' for Inactive)
REMARK    1  A    between atoms: C_1  and  C_2
REMARK    2  A    between atoms: C_5  and  S_6
REMARK    3  A    between atoms: S_6  and  N_9
REMARK    4  A    between atoms: N_9  and  C_10
REMARK    5  A    between atoms: N_9  and  C_18
REMARK    6  A    between atoms: C_10  and  C_11
REMARK    7  A    between atoms: C_11  and  C_12
REMARK    8  A    between atoms: C_18  and  C_19
REMARK    9  A    between atoms: N_21  and  C_22
REMARK   10  A    between atoms: C_27  and  C_28
REMARK                            x       y       z     vdW  Elec       q    Type
REMARK                         _______ _______ _______ _____ _____    ______ ____
ROOT
ATOM      1  N   UNL     1       4.794   4.985  17.554  0.00  0.00    +0.000 NA
ENDROOT
BRANCH   1   2
ATOM      2  S   UNL     1       6.172   5.693  16.779  0.00  0.00    +0.000 S 
ATOM      3  O   UNL     1       7.346   5.145  17.428  0.00  0.00    +0.000 OA
ATOM      4  O   UNL     1       5.993   7.130  16.737  0.00  0.00    +0.000 OA
BRANCH   2   9
ATOM      5  C   UNL     1       6.499   2.778  11.499  0.00  0.00    +0.000 C 
ATOM      6  C   UNL     1       6.361   3.689  12.688  0.00  0.00    +0.000 A 
ATOM      7  C   UNL     1       7.423   4.503  13.113  0.00  0.00    +0.000 A 
ATOM      8  C   UNL     1       7.338   5.226  14.314  0.00  0.00    +0.000 A 
ATOM      9  C   UNL     1       6.177   5.141  15.086  0.00  0.00    +0.000 A 
ATOM     10  C   UNL     1       5.086   4.389  14.633  0.00  0.00    +0.000 A 
ATOM     11  C   UNL     1       5.183   3.664  13.441  0.00  0.00    +0.000 A 
ENDBRANCH   2   9
ENDBRANCH   1   2
BRANCH   1  12
ATOM     12  C   UNL     1       4.866   3.485  17.619  0.00  0.00    +0.000 C 
BRANCH  12  13
ATOM     13  C   UNL     1       3.527   2.728  17.628  0.00  0.00    +0.000 C 
BRANCH  13  14
ATOM     14  C   UNL     1       2.736   2.660  18.910  0.00  0.00    +0.000 A 
ATOM     15  C   UNL     1       3.384   2.524  20.145  0.00  0.00    +0.000 A 
ATOM     16  C   UNL     1       2.673   2.670  21.338  0.00  0.00    +0.000 A 
ATOM     17  C   UNL     1       1.308   2.948  21.313  0.00  0.00    +0.000 A 
ATOM     18  C   UNL     1       0.644   3.047  20.093  0.00  0.00    +0.000 A 
ATOM     19  C   UNL     1       1.353   2.900  18.899  0.00  0.00    +0.000 A 
ENDBRANCH  13  14
ENDBRANCH  12  13
ENDBRANCH   1  12
BRANCH   1  20
ATOM     20  C   UNL     1       4.500   5.629  18.870  0.00  0.00    +0.000 C 
BRANCH  20  21
ATOM     21  C   UNL     1       3.136   6.305  18.895  0.00  0.00    +0.000 C 
ATOM     22  O   UNL     1       2.248   5.975  18.112  0.00  0.00    +0.000 OA
ATOM     23  N   UNL     1       3.051   7.323  19.838  0.00  0.00    +0.000 N 
ATOM     24  H   UNL     1       3.908   7.875  19.851  0.00  0.00    +0.000 HD
BRANCH  23  25
ATOM     25  C   UNL     1       1.872   8.085  19.989  0.00  0.00    +0.000 A 
ATOM     26  C   UNL     1       1.079   7.794  21.109  0.00  0.00    +0.000 A 
ATOM     27  C   UNL     1      -0.055   8.552  21.383  0.00  0.00    +0.000 A 
ATOM     28  C   UNL     1      -0.418   9.585  20.529  0.00  0.00    +0.000 A 
ATOM     29  C   UNL     1       0.335   9.841  19.383  0.00  0.00    +0.000 A 
ATOM     30  C   UNL     1       1.470   9.080  19.077  0.00  0.00    +0.000 A 
ATOM     31  C   UNL     1       2.179   9.319  17.772  0.00  0.00    +0.000 C 
ENDBRANCH  23  25
ENDBRANCH  20  21
ENDBRANCH   1  20
TORSDOF 8
ENDMDL
MODEL 2
REMARK VINA RESULT:      -8.1      3.643      5.932
REMARK  Name = 
REMARK  10 active torsions:
REMARK  status: ('A' for Active; 'I' for Inactive)
REMARK    1  A    between atoms: C_1  and  C_2
REMARK    2  A    between atoms: C_5  and  S_6
REMARK    3  A    between atoms: S_6  and  N_9
REMARK    4  A    between atoms: N_9  and  C_10
REMARK    5  A    between atoms: N_9  and  C_18
REMARK    6  A    between atoms: C_10  and  C_11
REMARK    7  A    between atoms: C_11  and  C_12
REMARK    8  A    between atoms: C_18  and  C_19
REMARK    9  A    between atoms: N_21  and  C_22
REMARK   10  A    between atoms: C_27  and  C_28
REMARK                            x       y       z     vdW  Elec       q    Type
REMARK                         _______ _______ _______ _____ _____    ______ ____
ROOT
ATOM      1  N   UNL     1       6.816   6.417  18.136  0.00  0.00    +0.000 NA
ENDROOT
BRANCH   1   2
ATOM      2  S   UNL     1       7.203   4.810  17.622  0.00  0.00    +0.000 S 
ATOM      3  O   UNL     1       6.379   3.909  18.402  0.00  0.00    +0.000 OA
ATOM      4  O   UNL     1       8.644   4.649  17.643  0.00  0.00    +0.000 OA
BRANCH   2   9
ATOM      5  C   UNL     1       6.100   3.261  11.889  0.00  0.00    +0.000 C 
ATOM      6  C   UNL     1       6.259   3.840  13.267  0.00  0.00    +0.000 A 
ATOM      7  C   UNL     1       7.298   4.733  13.571  0.00  0.00    +0.000 A 
ATOM      8  C   UNL     1       7.532   5.142  14.894  0.00  0.00    +0.000 A 
ATOM      9  C   UNL     1       6.711   4.659  15.917  0.00  0.00    +0.000 A 
ATOM     10  C   UNL     1       5.628   3.825  15.613  0.00  0.00    +0.000 A 
ATOM     11  C   UNL     1       5.409   3.416  14.294  0.00  0.00    +0.000 A 
ENDBRANCH   2   9
ENDBRANCH   1   2
BRANCH   1  12
ATOM     12  C   UNL     1       8.026   7.301  18.258  0.00  0.00    +0.000 C 
BRANCH  12  13
ATOM     13  C   UNL     1       7.874   8.753  17.775  0.00  0.00    +0.000 C 
BRANCH  13  14
ATOM     14  C   UNL     1       8.727   9.824  18.406  0.00  0.00    +0.000 A 
ATOM     15  C   UNL     1       8.869   9.900  19.797  0.00  0.00    +0.000 A 
ATOM     16  C   UNL     1       9.817  10.753  20.367  0.00  0.00    +0.000 A 
ATOM     17  C   UNL     1      10.629  11.542  19.557  0.00  0.00    +0.000 A 
ATOM     18  C   UNL     1      10.472  11.506  18.173  0.00  0.00    +0.000 A 
ATOM     19  C   UNL     1       9.524  10.655  17.601  0.00  0.00    +0.000 A 
ENDBRANCH  13  14
ENDBRANCH  12  13
ENDBRANCH   1  12
BRANCH   1  20
ATOM     20  C   UNL     1       5.716   7.016  17.319  0.00  0.00    +0.000 C 
BRANCH  20  21
ATOM     21  C   UNL     1       4.335   6.654  17.849  0.00  0.00    +0.000 C 
ATOM     22  O   UNL     1       3.389   7.432  17.743  0.00  0.00    +0.000 OA
ATOM     23  N   UNL     1       4.303   5.416  18.479  0.00  0.00    +0.000 N 
ATOM     24  H   UNL     1       5.134   5.280  19.052  0.00  0.00    +0.000 HD
BRANCH  23  25
ATOM     25  C   UNL     1       3.114   4.921  19.061  0.00  0.00    +0.000 A 
ATOM     26  C   UNL     1       2.788   5.416  20.332  0.00  0.00    +0.000 A 
ATOM     27  C   UNL     1       1.594   5.050  20.943  0.00  0.00    +0.000 A 
ATOM     28  C   UNL     1       0.732   4.168  20.303  0.00  0.00    +0.000 A 
ATOM     29  C   UNL     1       1.080   3.629  19.064  0.00  0.00    +0.000 A 
ATOM     30  C   UNL     1       2.284   3.969  18.437  0.00  0.00    +0.000 A 
ATOM     31  C   UNL     1       2.666   3.272  17.161  0.00  0.00    +0.000 C 
ENDBRANCH  23  25
ENDBRANCH  20  21
ENDBRANCH   1  20
TORSDOF 8
ENDMDL
MODEL 3
REMARK VINA RESULT:      -8.1      3.483      5.789
REMARK  Name = 
REMARK  10 active torsions:
REMARK  status: ('A' for Active; 'I' for Inactive)
REMARK    1  A    between atoms: C_1  and  C_2
REMARK    2  A    between atoms: C_5  and  S_6
REMARK    3  A    between atoms: S_6  and  N_9
REMARK    4  A    between atoms: N_9  and  C_10
REMARK    5  A    between atoms: N_9  and  C_18
REMARK    6  A    between atoms: C_10  and  C_11
REMARK    7  A    between atoms: C_11  and  C_12
REMARK    8  A    between atoms: C_18  and  C_19
REMARK    9  A    between atoms: N_21  and  C_22
REMARK   10  A    between atoms: C_27  and  C_28
REMARK                            x       y       z     vdW  Elec       q    Type
REMARK                         _______ _______ _______ _____ _____    ______ ____
ROOT
ATOM      1  N   UNL     1       6.730   6.277  18.266  0.00  0.00    +0.000 NA
ENDROOT
BRANCH   1   2
ATOM      2  S   UNL     1       7.118   4.690  17.693  0.00  0.00    +0.000 S 
ATOM      3  O   UNL     1       6.317   3.758  18.461  0.00  0.00    +0.000 OA
ATOM      4  O   UNL     1       8.560   4.540  17.681  0.00  0.00    +0.000 OA
BRANCH   2   9
ATOM      5  C   UNL     1       5.844   3.283  11.959  0.00  0.00    +0.000 C 
ATOM      6  C   UNL     1       6.056   3.834  13.342  0.00  0.00    +0.000 A 
ATOM      7  C   UNL     1       7.147   4.664  13.640  0.00  0.00    +0.000 A 
ATOM      8  C   UNL     1       7.424   5.041  14.965  0.00  0.00    +0.000 A 
ATOM      9  C   UNL     1       6.593   4.591  15.994  0.00  0.00    +0.000 A 
ATOM     10  C   UNL     1       5.460   3.822  15.697  0.00  0.00    +0.000 A 
ATOM     11  C   UNL     1       5.199   3.444  14.377  0.00  0.00    +0.000 A 
ENDBRANCH   2   9
ENDBRANCH   1   2
BRANCH   1  12
ATOM     12  C   UNL     1       7.944   7.137  18.477  0.00  0.00    +0.000 C 
BRANCH  12  13
ATOM     13  C   UNL     1       8.062   8.396  17.600  0.00  0.00    +0.000 C 
BRANCH  13  14
ATOM     14  C   UNL     1       8.476   9.695  18.242  0.00  0.00    +0.000 A 
ATOM     15  C   UNL     1       9.204   9.702  19.440  0.00  0.00    +0.000 A 
ATOM     16  C   UNL     1       9.763  10.889  19.921  0.00  0.00    +0.000 A 
ATOM     17  C   UNL     1       9.599  12.079  19.217  0.00  0.00    +0.000 A 
ATOM     18  C   UNL     1       8.845  12.094  18.047  0.00  0.00    +0.000 A 
ATOM     19  C   UNL     1       8.284  10.910  17.564  0.00  0.00    +0.000 A 
ENDBRANCH  13  14
ENDBRANCH  12  13
ENDBRANCH   1  12
BRANCH   1  20
ATOM     20  C   UNL     1       5.670   6.928  17.436  0.00  0.00    +0.000 C 
BRANCH  20  21
ATOM     21  C   UNL     1       4.279   6.392  17.743  0.00  0.00    +0.000 C 
ATOM     22  O   UNL     1       3.296   6.776  17.114  0.00  0.00    +0.000 OA
ATOM     23  N   UNL     1       4.265   5.496  18.807  0.00  0.00    +0.000 N 
ATOM     24  H   UNL     1       4.879   5.814  19.555  0.00  0.00    +0.000 HD
BRANCH  23  25
ATOM     25  C   UNL     1       3.059   4.915  19.258  0.00  0.00    +0.000 A 
ATOM     26  C   UNL     1       2.796   3.607  18.824  0.00  0.00    +0.000 A 
ATOM     27  C   UNL     1       1.676   2.925  19.287  0.00  0.00    +0.000 A 
ATOM     28  C   UNL     1       0.799   3.553  20.163  0.00  0.00    +0.000 A 
ATOM     29  C   UNL     1       1.026   4.873  20.552  0.00  0.00    +0.000 A 
ATOM     30  C   UNL     1       2.138   5.585  20.085  0.00  0.00    +0.000 A 
ATOM     31  C   UNL     1       2.275   7.040  20.440  0.00  0.00    +0.000 C 
ENDBRANCH  23  25
ENDBRANCH  20  21
ENDBRANCH   1  20
TORSDOF 8
ENDMDL
MODEL 4
REMARK VINA RESULT:      -8.1      2.242      3.334
REMARK  Name = 
REMARK  10 active torsions:
REMARK  status: ('A' for Active; 'I' for Inactive)
REMARK    1  A    between atoms: C_1  and  C_2
REMARK    2  A    between atoms: C_5  and  S_6
REMARK    3  A    between atoms: S_6  and  N_9
REMARK    4  A    between atoms: N_9  and  C_10
REMARK    5  A    between atoms: N_9  and  C_18
REMARK    6  A    between atoms: C_10  and  C_11
REMARK    7  A    between atoms: C_11  and  C_12
REMARK    8  A    between atoms: C_18  and  C_19
REMARK    9  A    between atoms: N_21  and  C_22
REMARK   10  A    between atoms: C_27  and  C_28
REMARK                            x       y       z     vdW  Elec       q    Type
REMARK                         _______ _______ _______ _____ _____    ______ ____
ROOT
ATOM      1  N   UNL     1       4.555   4.985  17.470  0.00  0.00    +0.000 NA
ENDROOT
BRANCH   1   2
ATOM      2  S   UNL     1       6.272   4.974  17.251  0.00  0.00    +0.000 S 
ATOM      3  O   UNL     1       6.513   4.900  15.823  0.00  0.00    +0.000 OA
ATOM      4  O   UNL     1       6.845   3.965  18.119  0.00  0.00    +0.000 OA
BRANCH   2   9
ATOM      5  C   UNL     1       9.118  10.201  18.279  0.00  0.00    +0.000 C 
ATOM      6  C   UNL     1       8.288   8.950  18.213  0.00  0.00    +0.000 A 
ATOM      7  C   UNL     1       8.639   7.799  18.937  0.00  0.00    +0.000 A 
ATOM      8  C   UNL     1       7.951   6.590  18.744  0.00  0.00    +0.000 A 
ATOM      9  C   UNL     1       6.897   6.539  17.828  0.00  0.00    +0.000 A 
ATOM     10  C   UNL     1       6.494   7.700  17.156  0.00  0.00    +0.000 A 
ATOM     11  C   UNL     1       7.191   8.896  17.347  0.00  0.00    +0.000 A 
ENDBRANCH   2   9
ENDBRANCH   1   2
BRANCH   1  12
ATOM     12  C   UNL     1       3.893   3.728  16.979  0.00  0.00    +0.000 C 
BRANCH  12  13
ATOM     13  C   UNL     1       3.906   2.521  17.932  0.00  0.00    +0.000 C 
BRANCH  13  14
ATOM     14  C   UNL     1       2.951   2.504  19.099  0.00  0.00    +0.000 A 
ATOM     15  C   UNL     1       3.429   2.507  20.416  0.00  0.00    +0.000 A 
ATOM     16  C   UNL     1       2.552   2.701  21.486  0.00  0.00    +0.000 A 
ATOM     17  C   UNL     1       1.192   2.887  21.255  0.00  0.00    +0.000 A 
ATOM     18  C   UNL     1       0.697   2.846  19.954  0.00  0.00    +0.000 A 
ATOM     19  C   UNL     1       1.572   2.652  18.882  0.00  0.00    +0.000 A 
ENDBRANCH  13  14
ENDBRANCH  12  13
ENDBRANCH   1  12
BRANCH   1  20
ATOM     20  C   UNL     1       4.172   5.358  18.867  0.00  0.00    +0.000 C 
BRANCH  20  21
ATOM     21  C   UNL     1       2.871   6.148  18.922  0.00  0.00    +0.000 C 
ATOM     22  O   UNL     1       1.937   5.890  18.166  0.00  0.00    +0.000 OA
ATOM     23  N   UNL     1       2.900   7.176  19.857  0.00  0.00    +0.000 N 
ATOM     24  H   UNL     1       3.801   7.653  19.842  0.00  0.00    +0.000 HD
BRANCH  23  25
ATOM     25  C   UNL     1       1.794   8.037  20.033  0.00  0.00    +0.000 A 
ATOM     26  C   UNL     1       1.002   7.813  21.169  0.00  0.00    +0.000 A 
ATOM     27  C   UNL     1      -0.055   8.666  21.467  0.00  0.00    +0.000 A 
ATOM     28  C   UNL     1      -0.346   9.729  20.621  0.00  0.00    +0.000 A 
ATOM     29  C   UNL     1       0.403   9.920  19.459  0.00  0.00    +0.000 A 
ATOM     30  C   UNL     1       1.461   9.065  19.129  0.00  0.00    +0.000 A 
ATOM     31  C   UNL     1       2.161   9.244  17.810  0.00  0.00    +0.000 C 
ENDBRANCH  23  25
ENDBRANCH  20  21
ENDBRANCH   1  20
TORSDOF 8
ENDMDL
MODEL 5
REMARK VINA RESULT:      -8.0      0.802      1.265
REMARK  Name = 
REMARK  10 active torsions:
REMARK  status: ('A' for Active; 'I' for Inactive)
REMARK    1  A    between atoms: C_1  and  C_2
REMARK    2  A    between atoms: C_5  and  S_6
REMARK    3  A    between atoms: S_6  and  N_9
REMARK    4  A    between atoms: N_9  and  C_10
REMARK    5  A    between atoms: N_9  and  C_18
REMARK    6  A    between atoms: C_10  and  C_11
REMARK    7  A    between atoms: C_11  and  C_12
REMARK    8  A    between atoms: C_18  and  C_19
REMARK    9  A    between atoms: N_21  and  C_22
REMARK   10  A    between atoms: C_27  and  C_28
REMARK                            x       y       z     vdW  Elec       q    Type
REMARK                         _______ _______ _______ _____ _____    ______ ____
ROOT
ATOM      1  N   UNL     1       4.582   4.921  18.405  0.00  0.00    +0.000 NA
ENDROOT
BRANCH   1   2
ATOM      2  S   UNL     1       5.466   5.977  17.355  0.00  0.00    +0.000 S 
ATOM      3  O   UNL     1       6.675   6.354  18.061  0.00  0.00    +0.000 OA
ATOM      4  O   UNL     1       4.573   7.013  16.878  0.00  0.00    +0.000 OA
BRANCH   2   9
ATOM      5  C   UNL     1       6.830   3.765  11.903  0.00  0.00    +0.000 C 
ATOM      6  C   UNL     1       6.547   4.106  13.340  0.00  0.00    +0.000 A 
ATOM      7  C   UNL     1       5.308   3.815  13.931  0.00  0.00    +0.000 A 
ATOM      8  C   UNL     1       4.999   4.280  15.219  0.00  0.00    +0.000 A 
ATOM      9  C   UNL     1       5.943   5.032  15.923  0.00  0.00    +0.000 A 
ATOM     10  C   UNL     1       7.209   5.265  15.369  0.00  0.00    +0.000 A 
ATOM     11  C   UNL     1       7.503   4.807  14.082  0.00  0.00    +0.000 A 
ENDBRANCH   2   9
ENDBRANCH   1   2
BRANCH   1  12
ATOM     12  C   UNL     1       5.283   3.614  18.648  0.00  0.00    +0.000 C 
BRANCH  12  13
ATOM     13  C   UNL     1       4.411   2.347  18.630  0.00  0.00    +0.000 C 
BRANCH  13  14
ATOM     14  C   UNL     1       3.013   2.417  19.191  0.00  0.00    +0.000 A 
ATOM     15  C   UNL     1       2.799   2.676  20.551  0.00  0.00    +0.000 A 
ATOM     16  C   UNL     1       1.513   2.946  21.027  0.00  0.00    +0.000 A 
ATOM     17  C   UNL     1       0.429   2.956  20.153  0.00  0.00    +0.000 A 
ATOM     18  C   UNL     1       0.621   2.662  18.806  0.00  0.00    +0.000 A 
ATOM     19  C   UNL     1       1.905   2.391  18.328  0.00  0.00    +0.000 A 
ENDBRANCH  13  14
ENDBRANCH  12  13
ENDBRANCH   1  12
BRANCH   1  20
ATOM     20  C   UNL     1       4.150   5.612  19.659  0.00  0.00    +0.000 C 
BRANCH  20  21
ATOM     21  C   UNL     1       2.819   6.333  19.497  0.00  0.00    +0.000 C 
ATOM     22  O   UNL     1       1.935   5.882  18.772  0.00  0.00    +0.000 OA
ATOM     23  N   UNL     1       2.761   7.530  20.202  0.00  0.00    +0.000 N 
ATOM     24  H   UNL     1       3.642   8.036  20.127  0.00  0.00    +0.000 HD
BRANCH  23  25
ATOM     25  C   UNL     1       1.616   8.355  20.151  0.00  0.00    +0.000 A 
ATOM     26  C   UNL     1       0.730   8.262  21.235  0.00  0.00    +0.000 A 
ATOM     27  C   UNL     1      -0.378   9.098  21.310  0.00  0.00    +0.000 A 
ATOM     28  C   UNL     1      -0.625  10.012  20.293  0.00  0.00    +0.000 A 
ATOM     29  C   UNL     1       0.221  10.067  19.185  0.00  0.00    +0.000 A 
ATOM     30  C   UNL     1       1.333   9.224  19.079  0.00  0.00    +0.000 A 
ATOM     31  C   UNL     1       2.145   9.241  17.813  0.00  0.00    +0.000 C 
ENDBRANCH  23  25
ENDBRANCH  20  21
ENDBRANCH   1  20
TORSDOF 8
ENDMDL
MODEL 6
REMARK VINA RESULT:      -8.0      0.975      1.642
REMARK  Name = 
REMARK  10 active torsions:
REMARK  status: ('A' for Active; 'I' for Inactive)
REMARK    1  A    between atoms: C_1  and  C_2
REMARK    2  A    between atoms: C_5  and  S_6
REMARK    3  A    between atoms: S_6  and  N_9
REMARK    4  A    between atoms: N_9  and  C_10
REMARK    5  A    between atoms: N_9  and  C_18
REMARK    6  A    between atoms: C_10  and  C_11
REMARK    7  A    between atoms: C_11  and  C_12
REMARK    8  A    between atoms: C_18  and  C_19
REMARK    9  A    between atoms: N_21  and  C_22
REMARK   10  A    between atoms: C_27  and  C_28
REMARK                            x       y       z     vdW  Elec       q    Type
REMARK                         _______ _______ _______ _____ _____    ______ ____
ROOT
ATOM      1  N   UNL     1       5.098   5.834  17.731  0.00  0.00    +0.000 NA
ENDROOT
BRANCH   1   2
ATOM      2  S   UNL     1       6.689   5.856  17.049  0.00  0.00    +0.000 S 
ATOM      3  O   UNL     1       7.568   5.226  18.015  0.00  0.00    +0.000 OA
ATOM      4  O   UNL     1       6.982   7.201  16.597  0.00  0.00    +0.000 OA
BRANCH   2   9
ATOM      5  C   UNL     1       5.834   3.203  11.691  0.00  0.00    +0.000 C 
ATOM      6  C   UNL     1       6.187   3.686  13.070  0.00  0.00    +0.000 A 
ATOM      7  C   UNL     1       5.507   3.220  14.206  0.00  0.00    +0.000 A 
ATOM      8  C   UNL     1       5.736   3.795  15.467  0.00  0.00    +0.000 A 
ATOM      9  C   UNL     1       6.661   4.835  15.590  0.00  0.00    +0.000 A 
ATOM     10  C   UNL     1       7.396   5.256  14.475  0.00  0.00    +0.000 A 
ATOM     11  C   UNL     1       7.154   4.685  13.222  0.00  0.00    +0.000 A 
ENDBRANCH   2   9
ENDBRANCH   1   2
BRANCH   1  12
ATOM     12  C   UNL     1       5.099   5.599  19.216  0.00  0.00    +0.000 C 
BRANCH  12  13
ATOM     13  C   UNL     1       4.689   4.196  19.695  0.00  0.00    +0.000 C 
BRANCH  13  14
ATOM     14  C   UNL     1       3.255   3.761  19.528  0.00  0.00    +0.000 A 
ATOM     15  C   UNL     1       2.876   2.932  18.464  0.00  0.00    +0.000 A 
ATOM     16  C   UNL     1       1.601   2.363  18.428  0.00  0.00    +0.000 A 
ATOM     17  C   UNL     1       0.689   2.619  19.448  0.00  0.00    +0.000 A 
ATOM     18  C   UNL     1       1.037   3.473  20.492  0.00  0.00    +0.000 A 
ATOM     19  C   UNL     1       2.312   4.043  20.530  0.00  0.00    +0.000 A 
ENDBRANCH  13  14
ENDBRANCH  12  13
ENDBRANCH   1  12
BRANCH   1  20
ATOM     20  C   UNL     1       4.294   7.024  17.314  0.00  0.00    +0.000 C 
BRANCH  20  21
ATOM     21  C   UNL     1       2.974   7.128  18.065  0.00  0.00    +0.000 C 
ATOM     22  O   UNL     1       2.072   6.313  17.883  0.00  0.00    +0.000 OA
ATOM     23  N   UNL     1       2.911   8.237  18.901  0.00  0.00    +0.000 N 
ATOM     24  H   UNL     1       3.321   9.053  18.449  0.00  0.00    +0.000 HD
BRANCH  23  25
ATOM     25  C   UNL     1       1.752   8.518  19.658  0.00  0.00    +0.000 A 
ATOM     26  C   UNL     1       1.555   7.740  20.809  0.00  0.00    +0.000 A 
ATOM     27  C   UNL     1       0.488   8.004  21.661  0.00  0.00    +0.000 A 
ATOM     28  C   UNL     1      -0.403   9.026  21.356  0.00  0.00    +0.000 A 
ATOM     29  C   UNL     1      -0.244   9.763  20.182  0.00  0.00    +0.000 A 
ATOM     30  C   UNL     1       0.813   9.504  19.301  0.00  0.00    +0.000 A 
ATOM     31  C   UNL     1       0.873  10.247  17.995  0.00  0.00    +0.000 C 
ENDBRANCH  23  25
ENDBRANCH  20  21
ENDBRANCH   1  20
TORSDOF 8
ENDMDL
MODEL 7
REMARK VINA RESULT:      -7.9      4.227      6.484
REMARK  Name = 
REMARK  10 active torsions:
REMARK  status: ('A' for Active; 'I' for Inactive)
REMARK    1  A    between atoms: C_1  and  C_2
REMARK    2  A    between atoms: C_5  and  S_6
REMARK    3  A    between atoms: S_6  and  N_9
REMARK    4  A    between atoms: N_9  and  C_10
REMARK    5  A    between atoms: N_9  and  C_18
REMARK    6  A    between atoms: C_10  and  C_11
REMARK    7  A    between atoms: C_11  and  C_12
REMARK    8  A    between atoms: C_18  and  C_19
REMARK    9  A    between atoms: N_21  and  C_22
REMARK   10  A    between atoms: C_27  and  C_28
REMARK                            x       y       z     vdW  Elec       q    Type
REMARK                         _______ _______ _______ _____ _____    ______ ____
ROOT
ATOM      1  N   UNL     1       6.596   6.644  17.505  0.00  0.00    +0.000 NA
ENDROOT
BRANCH   1   2
ATOM      2  S   UNL     1       6.714   5.018  16.921  0.00  0.00    +0.000 S 
ATOM      3  O   UNL     1       7.907   4.446  17.511  0.00  0.00    +0.000 OA
ATOM      4  O   UNL     1       6.574   5.032  15.478  0.00  0.00    +0.000 OA
BRANCH   2   9
ATOM      5  C   UNL     1       1.434   3.034  19.081  0.00  0.00    +0.000 C 
ATOM      6  C   UNL     1       2.815   3.307  18.554  0.00  0.00    +0.000 A 
ATOM      7  C   UNL     1       3.903   3.507  19.419  0.00  0.00    +0.000 A 
ATOM      8  C   UNL     1       5.150   3.919  18.922  0.00  0.00    +0.000 A 
ATOM      9  C   UNL     1       5.310   4.120  17.549  0.00  0.00    +0.000 A 
ATOM     10  C   UNL     1       4.251   3.852  16.672  0.00  0.00    +0.000 A 
ATOM     11  C   UNL     1       3.010   3.453  17.176  0.00  0.00    +0.000 A 
ENDBRANCH   2   9
ENDBRANCH   1   2
BRANCH   1  12
ATOM     12  C   UNL     1       5.338   6.895  18.288  0.00  0.00    +0.000 C 
BRANCH  12  13
ATOM     13  C   UNL     1       4.085   7.278  17.480  0.00  0.00    +0.000 C 
BRANCH  13  14
ATOM     14  C   UNL     1       2.878   7.804  18.215  0.00  0.00    +0.000 A 
ATOM     15  C   UNL     1       2.518   7.285  19.465  0.00  0.00    +0.000 A 
ATOM     16  C   UNL     1       1.532   7.910  20.234  0.00  0.00    +0.000 A 
ATOM     17  C   UNL     1       0.892   9.053  19.761  0.00  0.00    +0.000 A 
ATOM     18  C   UNL     1       1.212   9.555  18.502  0.00  0.00    +0.000 A 
ATOM     19  C   UNL     1       2.196   8.933  17.732  0.00  0.00    +0.000 A 
ENDBRANCH  13  14
ENDBRANCH  12  13
ENDBRANCH   1  12
BRANCH   1  20
ATOM     20  C   UNL     1       7.840   7.075  18.214  0.00  0.00    +0.000 C 
BRANCH  20  21
ATOM     21  C   UNL     1       8.102   8.568  18.074  0.00  0.00    +0.000 C 
ATOM     22  O   UNL     1       7.571   9.226  17.182  0.00  0.00    +0.000 OA
ATOM     23  N   UNL     1       9.012   9.050  19.008  0.00  0.00    +0.000 N 
ATOM     24  H   UNL     1       9.781   8.393  19.134  0.00  0.00    +0.000 HD
BRANCH  23  25
ATOM     25  C   UNL     1       9.403  10.407  19.016  0.00  0.00    +0.000 A 
ATOM     26  C   UNL     1       9.954  10.905  17.826  0.00  0.00    +0.000 A 
ATOM     27  C   UNL     1      10.288  12.251  17.716  0.00  0.00    +0.000 A 
ATOM     28  C   UNL     1      10.101  13.100  18.800  0.00  0.00    +0.000 A 
ATOM     29  C   UNL     1       9.608  12.596  20.004  0.00  0.00    +0.000 A 
ATOM     30  C   UNL     1       9.281  11.242  20.144  0.00  0.00    +0.000 A 
ATOM     31  C   UNL     1       8.865  10.726  21.494  0.00  0.00    +0.000 C 
ENDBRANCH  23  25
ENDBRANCH  20  21
ENDBRANCH   1  20
TORSDOF 8
ENDMDL
MODEL 8
REMARK VINA RESULT:      -7.8      4.193      5.289
REMARK  Name = 
REMARK  10 active torsions:
REMARK  status: ('A' for Active; 'I' for Inactive)
REMARK    1  A    between atoms: C_1  and  C_2
REMARK    2  A    between atoms: C_5  and  S_6
REMARK    3  A    between atoms: S_6  and  N_9
REMARK    4  A    between atoms: N_9  and  C_10
REMARK    5  A    between atoms: N_9  and  C_18
REMARK    6  A    between atoms: C_10  and  C_11
REMARK    7  A    between atoms: C_11  and  C_12
REMARK    8  A    between atoms: C_18  and  C_19
REMARK    9  A    between atoms: N_21  and  C_22
REMARK   10  A    between atoms: C_27  and  C_28
REMARK                            x       y       z     vdW  Elec       q    Type
REMARK                         _______ _______ _______ _____ _____    ______ ____
ROOT
ATOM      1  N   UNL     1       6.790   6.312  17.959  0.00  0.00    +0.000 NA
ENDROOT
BRANCH   1   2
ATOM      2  S   UNL     1       7.012   4.672  17.451  0.00  0.00    +0.000 S 
ATOM      3  O   UNL     1       6.119   3.859  18.253  0.00  0.00    +0.000 OA
ATOM      4  O   UNL     1       8.431   4.374  17.449  0.00  0.00    +0.000 OA
BRANCH   2   9
ATOM      5  C   UNL     1       5.577   3.168  11.780  0.00  0.00    +0.000 C 
ATOM      6  C   UNL     1       5.854   3.752  13.137  0.00  0.00    +0.000 A 
ATOM      7  C   UNL     1       7.036   4.460  13.404  0.00  0.00    +0.000 A 
ATOM      8  C   UNL     1       7.356   4.860  14.711  0.00  0.00    +0.000 A 
ATOM      9  C   UNL     1       6.478   4.558  15.756  0.00  0.00    +0.000 A 
ATOM     10  C   UNL     1       5.262   3.917  15.488  0.00  0.00    +0.000 A 
ATOM     11  C   UNL     1       4.958   3.513  14.185  0.00  0.00    +0.000 A 
ENDBRANCH   2   9
ENDBRANCH   1   2
BRANCH   1  12
ATOM     12  C   UNL     1       5.543   6.509  18.775  0.00  0.00    +0.000 C 
BRANCH  12  13
ATOM     13  C   UNL     1       4.202   6.309  18.049  0.00  0.00    +0.000 C 
BRANCH  13  14
ATOM     14  C   UNL     1       3.193   5.352  18.631  0.00  0.00    +0.000 A 
ATOM     15  C   UNL     1       2.856   5.407  19.990  0.00  0.00    +0.000 A 
ATOM     16  C   UNL     1       1.778   4.666  20.483  0.00  0.00    +0.000 A 
ATOM     17  C   UNL     1       1.031   3.860  19.627  0.00  0.00    +0.000 A 
ATOM     18  C   UNL     1       1.380   3.766  18.282  0.00  0.00    +0.000 A 
ATOM     19  C   UNL     1       2.457   4.504  17.788  0.00  0.00    +0.000 A 
ENDBRANCH  13  14
ENDBRANCH  12  13
ENDBRANCH   1  12
BRANCH   1  20
ATOM     20  C   UNL     1       8.020   6.871  18.599  0.00  0.00    +0.000 C 
BRANCH  20  21
ATOM     21  C   UNL     1       8.203   8.355  18.312  0.00  0.00    +0.000 C 
ATOM     22  O   UNL     1       7.684   8.881  17.330  0.00  0.00    +0.000 OA
ATOM     23  N   UNL     1       9.032   8.987  19.231  0.00  0.00    +0.000 N 
ATOM     24  H   UNL     1       9.830   8.398  19.464  0.00  0.00    +0.000 HD
BRANCH  23  25
ATOM     25  C   UNL     1       9.344  10.360  19.112  0.00  0.00    +0.000 A 
ATOM     26  C   UNL     1       9.815  10.787  17.862  0.00  0.00    +0.000 A 
ATOM     27  C   UNL     1      10.065  12.136  17.629  0.00  0.00    +0.000 A 
ATOM     28  C   UNL     1       9.873  13.060  18.649  0.00  0.00    +0.000 A 
ATOM     29  C   UNL     1       9.460  12.631  19.911  0.00  0.00    +0.000 A 
ATOM     30  C   UNL     1       9.219  11.277  20.173  0.00  0.00    +0.000 A 
ATOM     31  C   UNL     1       8.890  10.853  21.578  0.00  0.00    +0.000 C 
ENDBRANCH  23  25
ENDBRANCH  20  21
ENDBRANCH   1  20
TORSDOF 8
ENDMDL
MODEL 9
REMARK VINA RESULT:      -7.8      4.702      8.238
REMARK  Name = 
REMARK  10 active torsions:
REMARK  status: ('A' for Active; 'I' for Inactive)
REMARK    1  A    between atoms: C_1  and  C_2
REMARK    2  A    between atoms: C_5  and  S_6
REMARK    3  A    between atoms: S_6  and  N_9
REMARK    4  A    between atoms: N_9  and  C_10
REMARK    5  A    between atoms: N_9  and  C_18
REMARK    6  A    between atoms: C_10  and  C_11
REMARK    7  A    between atoms: C_11  and  C_12
REMARK    8  A    between atoms: C_18  and  C_19
REMARK    9  A    between atoms: N_21  and  C_22
REMARK   10  A    between atoms: C_27  and  C_28
REMARK                            x       y       z     vdW  Elec       q    Type
REMARK                         _______ _______ _______ _____ _____    ______ ____
ROOT
ATOM      1  N   UNL     1       0.814  10.326  20.202  0.00  0.00    +0.000 NA
ENDROOT
BRANCH   1   2
ATOM      2  S   UNL     1       0.924   8.977  21.281  0.00  0.00    +0.000 S 
ATOM      3  O   UNL     1      -0.433   8.555  21.565  0.00  0.00    +0.000 OA
ATOM      4  O   UNL     1       1.800   9.330  22.380  0.00  0.00    +0.000 OA
BRANCH   2   9
ATOM      5  C   UNL     1       2.658   4.433  17.700  0.00  0.00    +0.000 C 
ATOM      6  C   UNL     1       2.435   5.543  18.688  0.00  0.00    +0.000 A 
ATOM      7  C   UNL     1       1.986   5.284  19.992  0.00  0.00    +0.000 A 
ATOM      8  C   UNL     1       1.628   6.335  20.853  0.00  0.00    +0.000 A 
ATOM      9  C   UNL     1       1.734   7.654  20.405  0.00  0.00    +0.000 A 
ATOM     10  C   UNL     1       2.250   7.924  19.131  0.00  0.00    +0.000 A 
ATOM     11  C   UNL     1       2.593   6.871  18.278  0.00  0.00    +0.000 A 
ENDBRANCH   2   9
ENDBRANCH   1   2
BRANCH   1  12
ATOM     12  C   UNL     1      -0.064  10.056  19.012  0.00  0.00    +0.000 C 
BRANCH  12  13
ATOM     13  C   UNL     1      -1.501  10.599  19.075  0.00  0.00    +0.000 C 
BRANCH  13  14
ATOM     14  C   UNL     1      -2.293  10.715  17.797  0.00  0.00    +0.000 A 
ATOM     15  C   UNL     1      -2.007   9.891  16.701  0.00  0.00    +0.000 A 
ATOM     16  C   UNL     1      -2.867   9.853  15.600  0.00  0.00    +0.000 A 
ATOM     17  C   UNL     1      -4.017  10.638  15.580  0.00  0.00    +0.000 A 
ATOM     18  C   UNL     1      -4.293  11.491  16.646  0.00  0.00    +0.000 A 
ATOM     19  C   UNL     1      -3.434  11.532  17.746  0.00  0.00    +0.000 A 
ENDBRANCH  13  14
ENDBRANCH  12  13
ENDBRANCH   1  12
BRANCH   1  20
ATOM     20  C   UNL     1       0.475  11.592  20.922  0.00  0.00    +0.000 C 
BRANCH  20  21
ATOM     21  C   UNL     1       1.385  12.748  20.528  0.00  0.00    +0.000 C 
ATOM     22  O   UNL     1       2.324  13.090  21.242  0.00  0.00    +0.000 OA
ATOM     23  N   UNL     1       1.000  13.361  19.342  0.00  0.00    +0.000 N 
ATOM     24  H   UNL     1      -0.014  13.455  19.296  0.00  0.00    +0.000 HD
BRANCH  23  25
ATOM     25  C   UNL     1       1.705  14.472  18.829  0.00  0.00    +0.000 A 
ATOM     26  C   UNL     1       2.926  14.198  18.194  0.00  0.00    +0.000 A 
ATOM     27  C   UNL     1       3.645  15.221  17.585  0.00  0.00    +0.000 A 
ATOM     28  C   UNL     1       3.167  16.524  17.630  0.00  0.00    +0.000 A 
ATOM     29  C   UNL     1       1.982  16.810  18.310  0.00  0.00    +0.000 A 
ATOM     30  C   UNL     1       1.250  15.800  18.945  0.00  0.00    +0.000 A 
ATOM     31  C   UNL     1       0.045  16.176  19.763  0.00  0.00    +0.000 C 
ENDBRANCH  23  25
ENDBRANCH  20  21
ENDBRANCH   1  20
TORSDOF 8
ENDMDL
