MODEL 1
REMARK VINA RESULT:      -8.5      0.000      0.000
REMARK  Name = 
REMARK  5 active torsions:
REMARK  status: ('A' for Active; 'I' for Inactive)
REMARK    1  A    between atoms: C_1  and  O_2
REMARK    2  A    between atoms: O_2  and  C_3
REMARK    3  A    between atoms: C_7  and  N_8
REMARK    4  A    between atoms: N_14  and  C_15
REMARK    5  A    between atoms: C_15  and  C_16
REMARK                            x       y       z     vdW  Elec       q    Type
REMARK                         _______ _______ _______ _____ _____    ______ ____
ROOT
ATOM      1  N   UNL     1       1.114   8.841  19.417  0.00  0.00    +0.000 N 
ATOM      2  C   UNL     1       1.996   8.660  18.374  0.00  0.00    +0.000 C 
ATOM      3  O   UNL     1       2.121   9.437  17.427  0.00  0.00    +0.000 OA
ATOM      4  N   UNL     1       2.830   7.551  18.489  0.00  0.00    +0.000 N 
ATOM      5  C   UNL     1       3.907   7.436  17.505  0.00  0.00    +0.000 C 
ATOM      6  C   UNL     1       5.143   6.768  18.108  0.00  0.00    +0.000 C 
ATOM      7  N   UNL     1       4.893   5.440  18.723  0.00  0.00    +0.000 NA
ATOM      8  C   UNL     1       3.748   5.543  19.661  0.00  0.00    +0.000 C 
ATOM      9  C   UNL     1       2.491   6.284  19.140  0.00  0.00    +0.000 C 
ATOM     10  H   UNL     1       1.345   8.349  20.263  0.00  0.00    +0.000 HD
ENDROOT
BRANCH   1  15
ATOM     11  C   UNL     1      -0.567  11.862  20.787  0.00  0.00    +0.000 A 
ATOM     12  C   UNL     1      -1.595  12.052  19.862  0.00  0.00    +0.000 A 
ATOM     13  C   UNL     1      -1.751  11.178  18.793  0.00  0.00    +0.000 A 
ATOM     14  C   UNL     1      -0.875  10.103  18.641  0.00  0.00    +0.000 A 
ATOM     15  C   UNL     1       0.175   9.900  19.541  0.00  0.00    +0.000 A 
ATOM     16  C   UNL     1       0.315  10.784  20.627  0.00  0.00    +0.000 A 
BRANCH  11  18
ATOM     17  C   UNL     1      -1.276  12.500  22.971  0.00  0.00    +0.000 C 
ATOM     18  O   UNL     1      -0.543  12.791  21.790  0.00  0.00    +0.000 OA
ENDBRANCH  11  18
ENDBRANCH   1  15
BRANCH   7  19
ATOM     19  C   UNL     1       4.753   4.346  17.746  0.00  0.00    +0.000 C 
BRANCH  19  20
ATOM     20  C   UNL     1       5.534   4.531  16.456  0.00  0.00    +0.000 A 
ATOM     21  C   UNL     1       6.827   5.039  16.424  0.00  0.00    +0.000 A 
ATOM     22  N   UNL     1       7.542   5.272  15.301  0.00  0.00    +0.000 NA
ATOM     23  C   UNL     1       7.051   4.813  14.145  0.00  0.00    +0.000 A 
ATOM     24  C   UNL     1       7.812   4.952  12.994  0.00  0.00    +0.000 A 
ATOM     25  C   UNL     1       7.479   4.276  11.820  0.00  0.00    +0.000 A 
ATOM     26  C   UNL     1       6.337   3.484  11.786  0.00  0.00    +0.000 A 
ATOM     27  C   UNL     1       5.478   3.457  12.886  0.00  0.00    +0.000 A 
ATOM     28  C   UNL     1       5.822   4.130  14.073  0.00  0.00    +0.000 A 
ATOM     29  C   UNL     1       5.020   4.092  15.230  0.00  0.00    +0.000 A 
ENDBRANCH  19  20
ENDBRANCH   7  19
TORSDOF 4
ENDMDL
MODEL 2
REMARK VINA RESULT:      -8.4      1.035      1.655
REMARK  Name = 
REMARK  5 active torsions:
REMARK  status: ('A' for Active; 'I' for Inactive)
REMARK    1  A    between atoms: C_1  and  O_2
REMARK    2  A    between atoms: O_2  and  C_3
REMARK    3  A    between atoms: C_7  and  N_8
REMARK    4  A    between atoms: N_14  and  C_15
REMARK    5  A    between atoms: C_15  and  C_16
REMARK                            x       y       z     vdW  Elec       q    Type
REMARK                         _______ _______ _______ _____ _____    ______ ____
ROOT
ATOM      1  N   UNL     1       1.098   8.916  19.414  0.00  0.00    +0.000 N 
ATOM      2  C   UNL     1       1.961   8.725  18.356  0.00  0.00    +0.000 C 
ATOM      3  O   UNL     1       2.064   9.489  17.397  0.00  0.00    +0.000 OA
ATOM      4  N   UNL     1       2.803   7.622  18.471  0.00  0.00    +0.000 N 
ATOM      5  C   UNL     1       3.860   7.498  17.468  0.00  0.00    +0.000 C 
ATOM      6  C   UNL     1       5.112   6.845  18.055  0.00  0.00    +0.000 C 
ATOM      7  N   UNL     1       4.881   5.524  18.694  0.00  0.00    +0.000 NA
ATOM      8  C   UNL     1       3.753   5.635  19.653  0.00  0.00    +0.000 C 
ATOM      9  C   UNL     1       2.483   6.362  19.146  0.00  0.00    +0.000 C 
ATOM     10  H   UNL     1       1.348   8.438  20.262  0.00  0.00    +0.000 HD
ENDROOT
BRANCH   1  15
ATOM     11  C   UNL     1      -1.851  11.059  18.685  0.00  0.00    +0.000 A 
ATOM     12  C   UNL     1      -1.783  11.991  19.722  0.00  0.00    +0.000 A 
ATOM     13  C   UNL     1      -0.755  11.929  20.657  0.00  0.00    +0.000 A 
ATOM     14  C   UNL     1       0.213  10.929  20.560  0.00  0.00    +0.000 A 
ATOM     15  C   UNL     1       0.157   9.972  19.542  0.00  0.00    +0.000 A 
ATOM     16  C   UNL     1      -0.880  10.054  18.594  0.00  0.00    +0.000 A 
BRANCH  11  18
ATOM     17  C   UNL     1      -4.105  11.774  18.386  0.00  0.00    +0.000 C 
ATOM     18  O   UNL     1      -2.906  11.251  17.836  0.00  0.00    +0.000 OA
ENDBRANCH  11  18
ENDBRANCH   1  15
BRANCH   7  19
ATOM     19  C   UNL     1       4.727   4.416  17.735  0.00  0.00    +0.000 C 
BRANCH  19  20
ATOM     20  C   UNL     1       5.501   4.575  16.437  0.00  0.00    +0.000 A 
ATOM     21  C   UNL     1       6.801   5.065  16.390  0.00  0.00    +0.000 A 
ATOM     22  N   UNL     1       7.511   5.276  15.260  0.00  0.00    +0.000 NA
ATOM     23  C   UNL     1       7.006   4.810  14.113  0.00  0.00    +0.000 A 
ATOM     24  C   UNL     1       7.760   4.925  12.955  0.00  0.00    +0.000 A 
ATOM     25  C   UNL     1       7.409   4.240  11.791  0.00  0.00    +0.000 A 
ATOM     26  C   UNL     1       6.256   3.464  11.774  0.00  0.00    +0.000 A 
ATOM     27  C   UNL     1       5.405   3.461  12.881  0.00  0.00    +0.000 A 
ATOM     28  C   UNL     1       5.766   4.143  14.057  0.00  0.00    +0.000 A 
ATOM     29  C   UNL     1       4.972   4.130  15.221  0.00  0.00    +0.000 A 
ENDBRANCH  19  20
ENDBRANCH   7  19
TORSDOF 4
ENDMDL
MODEL 3
REMARK VINA RESULT:      -8.4      3.098     11.488
REMARK  Name = 
REMARK  5 active torsions:
REMARK  status: ('A' for Active; 'I' for Inactive)
REMARK    1  A    between atoms: C_1  and  O_2
REMARK    2  A    between atoms: O_2  and  C_3
REMARK    3  A    between atoms: C_7  and  N_8
REMARK    4  A    between atoms: N_14  and  C_15
REMARK    5  A    between atoms: C_15  and  C_16
REMARK                            x       y       z     vdW  Elec       q    Type
REMARK                         _______ _______ _______ _____ _____    ______ ____
ROOT
ATOM      1  N   UNL     1       2.371   6.510  19.400  0.00  0.00    +0.000 N 
ATOM      2  C   UNL     1       2.214   7.835  19.055  0.00  0.00    +0.000 C 
ATOM      3  O   UNL     1       2.710   8.355  18.056  0.00  0.00    +0.000 OA
ATOM      4  N   UNL     1       1.364   8.566  19.880  0.00  0.00    +0.000 N 
ATOM      5  C   UNL     1       1.020   9.916  19.435  0.00  0.00    +0.000 C 
ATOM      6  C   UNL     1      -0.395  10.301  19.869  0.00  0.00    +0.000 C 
ATOM      7  N   UNL     1      -0.652  10.182  21.327  0.00  0.00    +0.000 NA
ATOM      8  C   UNL     1      -0.226   8.838  21.790  0.00  0.00    +0.000 C 
ATOM      9  C   UNL     1       1.167   8.351  21.316  0.00  0.00    +0.000 C 
ATOM     10  H   UNL     1       1.663   6.140  20.011  0.00  0.00    +0.000 HD
ENDROOT
BRANCH   1  15
ATOM     11  C   UNL     1       5.372   4.567  18.378  0.00  0.00    +0.000 A 
ATOM     12  C   UNL     1       4.828   3.686  17.443  0.00  0.00    +0.000 A 
ATOM     13  C   UNL     1       3.475   3.737  17.130  0.00  0.00    +0.000 A 
ATOM     14  C   UNL     1       2.653   4.675  17.756  0.00  0.00    +0.000 A 
ATOM     15  C   UNL     1       3.168   5.557  18.711  0.00  0.00    +0.000 A 
ATOM     16  C   UNL     1       4.543   5.504  19.009  0.00  0.00    +0.000 A 
BRANCH  11  18
ATOM     17  C   UNL     1       7.569   4.584  17.453  0.00  0.00    +0.000 C 
ATOM     18  O   UNL     1       6.717   4.409  18.574  0.00  0.00    +0.000 OA
ENDBRANCH  11  18
ENDBRANCH   1  15
BRANCH   7  19
ATOM     19  C   UNL     1      -0.085  11.283  22.125  0.00  0.00    +0.000 C 
BRANCH  19  20
ATOM     20  C   UNL     1      -1.073  12.368  22.519  0.00  0.00    +0.000 A 
ATOM     21  C   UNL     1      -0.872  13.712  22.229  0.00  0.00    +0.000 A 
ATOM     22  N   UNL     1      -1.691  14.719  22.605  0.00  0.00    +0.000 NA
ATOM     23  C   UNL     1      -2.876  14.392  23.132  0.00  0.00    +0.000 A 
ATOM     24  C   UNL     1      -3.776  15.403  23.433  0.00  0.00    +0.000 A 
ATOM     25  C   UNL     1      -5.107  15.121  23.739  0.00  0.00    +0.000 A 
ATOM     26  C   UNL     1      -5.533  13.798  23.790  0.00  0.00    +0.000 A 
ATOM     27  C   UNL     1      -4.606  12.765  23.642  0.00  0.00    +0.000 A 
ATOM     28  C   UNL     1      -3.266  13.052  23.322  0.00  0.00    +0.000 A 
ATOM     29  C   UNL     1      -2.302  12.048  23.108  0.00  0.00    +0.000 A 
ENDBRANCH  19  20
ENDBRANCH   7  19
TORSDOF 4
ENDMDL
MODEL 4
REMARK VINA RESULT:      -8.4      3.221     11.582
REMARK  Name = 
REMARK  5 active torsions:
REMARK  status: ('A' for Active; 'I' for Inactive)
REMARK    1  A    between atoms: C_1  and  O_2
REMARK    2  A    between atoms: O_2  and  C_3
REMARK    3  A    between atoms: C_7  and  N_8
REMARK    4  A    between atoms: N_14  and  C_15
REMARK    5  A    between atoms: C_15  and  C_16
REMARK                            x       y       z     vdW  Elec       q    Type
REMARK                         _______ _______ _______ _____ _____    ______ ____
ROOT
ATOM      1  N   UNL     1       2.418   6.554  19.310  0.00  0.00    +0.000 N 
ATOM      2  C   UNL     1       2.240   7.863  18.916  0.00  0.00    +0.000 C 
ATOM      3  O   UNL     1       2.707   8.347  17.885  0.00  0.00    +0.000 OA
ATOM      4  N   UNL     1       1.404   8.619  19.733  0.00  0.00    +0.000 N 
ATOM      5  C   UNL     1       1.036   9.948  19.243  0.00  0.00    +0.000 C 
ATOM      6  C   UNL     1      -0.371  10.338  19.696  0.00  0.00    +0.000 C 
ATOM      7  N   UNL     1      -0.592  10.275  21.163  0.00  0.00    +0.000 NA
ATOM      8  C   UNL     1      -0.142   8.954  21.669  0.00  0.00    +0.000 C 
ATOM      9  C   UNL     1       1.243   8.460  21.180  0.00  0.00    +0.000 C 
ATOM     10  H   UNL     1       1.728   6.203  19.952  0.00  0.00    +0.000 HD
ENDROOT
BRANCH   1  15
ATOM     11  C   UNL     1       5.413   4.606  18.281  0.00  0.00    +0.000 A 
ATOM     12  C   UNL     1       4.852   3.675  17.404  0.00  0.00    +0.000 A 
ATOM     13  C   UNL     1       3.489   3.695  17.134  0.00  0.00    +0.000 A 
ATOM     14  C   UNL     1       2.673   4.650  17.743  0.00  0.00    +0.000 A 
ATOM     15  C   UNL     1       3.206   5.581  18.639  0.00  0.00    +0.000 A 
ATOM     16  C   UNL     1       4.590   5.559  18.895  0.00  0.00    +0.000 A 
BRANCH  11  18
ATOM     17  C   UNL     1       7.476   5.588  18.959  0.00  0.00    +0.000 C 
ATOM     18  O   UNL     1       6.765   4.474  18.441  0.00  0.00    +0.000 OA
ENDBRANCH  11  18
ENDBRANCH   1  15
BRANCH   7  19
ATOM     19  C   UNL     1      -0.015  11.411  21.903  0.00  0.00    +0.000 C 
BRANCH  19  20
ATOM     20  C   UNL     1      -1.029  12.325  22.571  0.00  0.00    +0.000 A 
ATOM     21  C   UNL     1      -2.256  11.874  23.040  0.00  0.00    +0.000 A 
ATOM     22  N   UNL     1      -3.213  12.654  23.592  0.00  0.00    +0.000 NA
ATOM     23  C   UNL     1      -2.891  13.920  23.880  0.00  0.00    +0.000 A 
ATOM     24  C   UNL     1      -3.820  14.713  24.536  0.00  0.00    +0.000 A 
ATOM     25  C   UNL     1      -3.462  15.943  25.088  0.00  0.00    +0.000 A 
ATOM     26  C   UNL     1      -2.160  16.408  24.939  0.00  0.00    +0.000 A 
ATOM     27  C   UNL     1      -1.255  15.695  24.150  0.00  0.00    +0.000 A 
ATOM     28  C   UNL     1      -1.615  14.450  23.604  0.00  0.00    +0.000 A 
ATOM     29  C   UNL     1      -0.725  13.663  22.846  0.00  0.00    +0.000 A 
ENDBRANCH  19  20
ENDBRANCH   7  19
TORSDOF 4
ENDMDL
MODEL 5
REMARK VINA RESULT:      -8.3      2.569     11.547
REMARK  Name = 
REMARK  5 active torsions:
REMARK  status: ('A' for Active; 'I' for Inactive)
REMARK    1  A    between atoms: C_1  and  O_2
REMARK    2  A    between atoms: O_2  and  C_3
REMARK    3  A    between atoms: C_7  and  N_8
REMARK    4  A    between atoms: N_14  and  C_15
REMARK    5  A    between atoms: C_15  and  C_16
REMARK                            x       y       z     vdW  Elec       q    Type
REMARK                         _______ _______ _______ _____ _____    ______ ____
ROOT
ATOM      1  N   UNL     1       2.554   6.761  18.659  0.00  0.00    +0.000 N 
ATOM      2  C   UNL     1       2.227   8.061  18.336  0.00  0.00    +0.000 C 
ATOM      3  O   UNL     1       2.521   8.607  17.273  0.00  0.00    +0.000 OA
ATOM      4  N   UNL     1       1.444   8.725  19.276  0.00  0.00    +0.000 N 
ATOM      5  C   UNL     1       0.916  10.032  18.883  0.00  0.00    +0.000 C 
ATOM      6  C   UNL     1      -0.449  10.294  19.519  0.00  0.00    +0.000 C 
ATOM      7  N   UNL     1      -0.478  10.177  21.000  0.00  0.00    +0.000 NA
ATOM      8  C   UNL     1       0.133   8.884  21.399  0.00  0.00    +0.000 C 
ATOM      9  C   UNL     1       1.480   8.517  20.726  0.00  0.00    +0.000 C 
ATOM     10  H   UNL     1       1.980   6.339  19.368  0.00  0.00    +0.000 HD
ENDROOT
BRANCH   1  15
ATOM     11  C   UNL     1       5.258   5.557  16.409  0.00  0.00    +0.000 A 
ATOM     12  C   UNL     1       4.944   4.201  16.296  0.00  0.00    +0.000 A 
ATOM     13  C   UNL     1       3.830   3.680  16.946  0.00  0.00    +0.000 A 
ATOM     14  C   UNL     1       3.022   4.516  17.717  0.00  0.00    +0.000 A 
ATOM     15  C   UNL     1       3.325   5.873  17.862  0.00  0.00    +0.000 A 
ATOM     16  C   UNL     1       4.447   6.391  17.188  0.00  0.00    +0.000 A 
BRANCH  11  18
ATOM     17  C   UNL     1       6.992   4.946  14.892  0.00  0.00    +0.000 C 
ATOM     18  O   UNL     1       6.371   5.929  15.706  0.00  0.00    +0.000 OA
ENDBRANCH  11  18
ENDBRANCH   1  15
BRANCH   7  19
ATOM     19  C   UNL     1       0.097  11.337  21.702  0.00  0.00    +0.000 C 
BRANCH  19  20
ATOM     20  C   UNL     1      -0.908  12.205  22.440  0.00  0.00    +0.000 A 
ATOM     21  C   UNL     1      -2.100  11.709  22.953  0.00  0.00    +0.000 A 
ATOM     22  N   UNL     1      -3.050  12.448  23.568  0.00  0.00    +0.000 NA
ATOM     23  C   UNL     1      -2.749  13.715  23.875  0.00  0.00    +0.000 A 
ATOM     24  C   UNL     1      -3.667  14.465  24.594  0.00  0.00    +0.000 A 
ATOM     25  C   UNL     1      -3.316  15.690  25.161  0.00  0.00    +0.000 A 
ATOM     26  C   UNL     1      -2.036  16.194  24.964  0.00  0.00    +0.000 A 
ATOM     27  C   UNL     1      -1.150  15.527  24.115  0.00  0.00    +0.000 A 
ATOM     28  C   UNL     1      -1.502  14.286  23.554  0.00  0.00    +0.000 A 
ATOM     29  C   UNL     1      -0.628  13.544  22.735  0.00  0.00    +0.000 A 
ENDBRANCH  19  20
ENDBRANCH   7  19
TORSDOF 4
ENDMDL
MODEL 6
REMARK VINA RESULT:      -8.2      1.372      1.686
REMARK  Name = 
REMARK  5 active torsions:
REMARK  status: ('A' for Active; 'I' for Inactive)
REMARK    1  A    between atoms: C_1  and  O_2
REMARK    2  A    between atoms: O_2  and  C_3
REMARK    3  A    between atoms: C_7  and  N_8
REMARK    4  A    between atoms: N_14  and  C_15
REMARK    5  A    between atoms: C_15  and  C_16
REMARK                            x       y       z     vdW  Elec       q    Type
REMARK                         _______ _______ _______ _____ _____    ______ ____
ROOT
ATOM      1  N   UNL     1       1.045   9.307  19.389  0.00  0.00    +0.000 N 
ATOM      2  C   UNL     1       1.628   8.329  20.165  0.00  0.00    +0.000 C 
ATOM      3  O   UNL     1       1.574   8.294  21.394  0.00  0.00    +0.000 OA
ATOM      4  N   UNL     1       2.235   7.294  19.458  0.00  0.00    +0.000 N 
ATOM      5  C   UNL     1       2.689   6.144  20.241  0.00  0.00    +0.000 C 
ATOM      6  C   UNL     1       2.578   4.847  19.439  0.00  0.00    +0.000 C 
ATOM      7  N   UNL     1       3.282   4.862  18.131  0.00  0.00    +0.000 NA
ATOM      8  C   UNL     1       2.879   6.073  17.374  0.00  0.00    +0.000 C 
ATOM      9  C   UNL     1       2.888   7.413  18.153  0.00  0.00    +0.000 C 
ATOM     10  H   UNL     1       0.864   9.045  18.435  0.00  0.00    +0.000 HD
ENDROOT
BRANCH   1  15
ATOM     11  C   UNL     1       0.462  12.574  21.064  0.00  0.00    +0.000 A 
ATOM     12  C   UNL     1      -0.899  12.771  20.826  0.00  0.00    +0.000 A 
ATOM     13  C   UNL     1      -1.636  11.821  20.127  0.00  0.00    +0.000 A 
ATOM     14  C   UNL     1      -1.012  10.664  19.660  0.00  0.00    +0.000 A 
ATOM     15  C   UNL     1       0.354  10.451  19.868  0.00  0.00    +0.000 A 
ATOM     16  C   UNL     1       1.086  11.414  20.589  0.00  0.00    +0.000 A 
BRANCH  11  18
ATOM     17  C   UNL     1       0.231  14.665  22.186  0.00  0.00    +0.000 C 
ATOM     18  O   UNL     1       1.053  13.584  21.773  0.00  0.00    +0.000 OA
ENDBRANCH  11  18
ENDBRANCH   1  15
BRANCH   7  19
ATOM     19  C   UNL     1       4.742   4.697  18.237  0.00  0.00    +0.000 C 
BRANCH  19  20
ATOM     20  C   UNL     1       5.502   4.842  16.929  0.00  0.00    +0.000 A 
ATOM     21  C   UNL     1       6.770   5.407  16.853  0.00  0.00    +0.000 A 
ATOM     22  N   UNL     1       7.464   5.608  15.711  0.00  0.00    +0.000 NA
ATOM     23  C   UNL     1       6.986   5.059  14.589  0.00  0.00    +0.000 A 
ATOM     24  C   UNL     1       7.729   5.165  13.424  0.00  0.00    +0.000 A 
ATOM     25  C   UNL     1       7.418   4.406  12.295  0.00  0.00    +0.000 A 
ATOM     26  C   UNL     1       6.315   3.561  12.320  0.00  0.00    +0.000 A 
ATOM     27  C   UNL     1       5.467   3.559  13.429  0.00  0.00    +0.000 A 
ATOM     28  C   UNL     1       5.789   4.316  14.571  0.00  0.00    +0.000 A 
ATOM     29  C   UNL     1       4.999   4.309  15.737  0.00  0.00    +0.000 A 
ENDBRANCH  19  20
ENDBRANCH   7  19
TORSDOF 4
ENDMDL
MODEL 7
REMARK VINA RESULT:      -8.2      2.667     11.439
REMARK  Name = 
REMARK  5 active torsions:
REMARK  status: ('A' for Active; 'I' for Inactive)
REMARK    1  A    between atoms: C_1  and  O_2
REMARK    2  A    between atoms: O_2  and  C_3
REMARK    3  A    between atoms: C_7  and  N_8
REMARK    4  A    between atoms: N_14  and  C_15
REMARK    5  A    between atoms: C_15  and  C_16
REMARK                            x       y       z     vdW  Elec       q    Type
REMARK                         _______ _______ _______ _____ _____    ______ ____
ROOT
ATOM      1  N   UNL     1       2.466   6.882  18.762  0.00  0.00    +0.000 N 
ATOM      2  C   UNL     1       2.146   8.181  18.433  0.00  0.00    +0.000 C 
ATOM      3  O   UNL     1       2.430   8.716  17.362  0.00  0.00    +0.000 OA
ATOM      4  N   UNL     1       1.382   8.861  19.378  0.00  0.00    +0.000 N 
ATOM      5  C   UNL     1       0.859  10.168  18.981  0.00  0.00    +0.000 C 
ATOM      6  C   UNL     1      -0.495  10.448  19.633  0.00  0.00    +0.000 C 
ATOM      7  N   UNL     1      -0.504  10.343  21.115  0.00  0.00    +0.000 NA
ATOM      8  C   UNL     1       0.101   9.049  21.517  0.00  0.00    +0.000 C 
ATOM      9  C   UNL     1       1.435   8.665  20.829  0.00  0.00    +0.000 C 
ATOM     10  H   UNL     1       1.898   6.470  19.483  0.00  0.00    +0.000 HD
ENDROOT
BRANCH   1  15
ATOM     11  C   UNL     1       5.178   5.611  16.559  0.00  0.00    +0.000 A 
ATOM     12  C   UNL     1       4.803   4.277  16.397  0.00  0.00    +0.000 A 
ATOM     13  C   UNL     1       3.647   3.792  16.997  0.00  0.00    +0.000 A 
ATOM     14  C   UNL     1       2.855   4.644  17.769  0.00  0.00    +0.000 A 
ATOM     15  C   UNL     1       3.218   5.979  17.963  0.00  0.00    +0.000 A 
ATOM     16  C   UNL     1       4.383   6.462  17.338  0.00  0.00    +0.000 A 
BRANCH  11  18
ATOM     17  C   UNL     1       6.949   4.948  15.108  0.00  0.00    +0.000 C 
ATOM     18  O   UNL     1       6.329   5.949  15.901  0.00  0.00    +0.000 OA
ENDBRANCH  11  18
ENDBRANCH   1  15
BRANCH   7  19
ATOM     19  C   UNL     1       0.090  11.505  21.799  0.00  0.00    +0.000 C 
BRANCH  19  20
ATOM     20  C   UNL     1      -0.909  12.477  22.403  0.00  0.00    +0.000 A 
ATOM     21  C   UNL     1      -0.618  13.818  22.621  0.00  0.00    +0.000 A 
ATOM     22  N   UNL     1      -1.450  14.710  23.203  0.00  0.00    +0.000 NA
ATOM     23  C   UNL     1      -2.714  14.329  23.420  0.00  0.00    +0.000 A 
ATOM     24  C   UNL     1      -3.614  15.256  23.924  0.00  0.00    +0.000 A 
ATOM     25  C   UNL     1      -4.986  15.004  23.931  0.00  0.00    +0.000 A 
ATOM     26  C   UNL     1      -5.460  13.782  23.469  0.00  0.00    +0.000 A 
ATOM     27  C   UNL     1      -4.558  12.781  23.103  0.00  0.00    +0.000 A 
ATOM     28  C   UNL     1      -3.176  13.041  23.086  0.00  0.00    +0.000 A 
ATOM     29  C   UNL     1      -2.225  12.086  22.674  0.00  0.00    +0.000 A 
ENDBRANCH  19  20
ENDBRANCH   7  19
TORSDOF 4
ENDMDL
MODEL 8
REMARK VINA RESULT:      -8.1      3.305     10.184
REMARK  Name = 
REMARK  5 active torsions:
REMARK  status: ('A' for Active; 'I' for Inactive)
REMARK    1  A    between atoms: C_1  and  O_2
REMARK    2  A    between atoms: O_2  and  C_3
REMARK    3  A    between atoms: C_7  and  N_8
REMARK    4  A    between atoms: N_14  and  C_15
REMARK    5  A    between atoms: C_15  and  C_16
REMARK                            x       y       z     vdW  Elec       q    Type
REMARK                         _______ _______ _______ _____ _____    ______ ____
ROOT
ATOM      1  N   UNL     1       2.209   6.734  19.405  0.00  0.00    +0.000 N 
ATOM      2  C   UNL     1       2.094   7.988  18.846  0.00  0.00    +0.000 C 
ATOM      3  O   UNL     1       2.554   8.304  17.749  0.00  0.00    +0.000 OA
ATOM      4  N   UNL     1       1.330   8.895  19.576  0.00  0.00    +0.000 N 
ATOM      5  C   UNL     1       1.023  10.167  18.923  0.00  0.00    +0.000 C 
ATOM      6  C   UNL     1      -0.344  10.699  19.355  0.00  0.00    +0.000 C 
ATOM      7  N   UNL     1      -0.520  10.843  20.823  0.00  0.00    +0.000 NA
ATOM      8  C   UNL     1      -0.130   9.574  21.488  0.00  0.00    +0.000 C 
ATOM      9  C   UNL     1       1.208   8.937  21.035  0.00  0.00    +0.000 C 
ATOM     10  H   UNL     1       1.522   6.513  20.105  0.00  0.00    +0.000 HD
ENDROOT
BRANCH   1  15
ATOM     11  C   UNL     1       5.037   4.447  18.632  0.00  0.00    +0.000 A 
ATOM     12  C   UNL     1       4.408   3.482  17.844  0.00  0.00    +0.000 A 
ATOM     13  C   UNL     1       3.053   3.588  17.548  0.00  0.00    +0.000 A 
ATOM     14  C   UNL     1       2.317   4.665  18.043  0.00  0.00    +0.000 A 
ATOM     15  C   UNL     1       2.918   5.635  18.850  0.00  0.00    +0.000 A 
ATOM     16  C   UNL     1       4.293   5.524  19.131  0.00  0.00    +0.000 A 
BRANCH  11  18
ATOM     17  C   UNL     1       7.266   4.641  17.810  0.00  0.00    +0.000 C 
ATOM     18  O   UNL     1       6.371   4.219  18.828  0.00  0.00    +0.000 OA
ENDBRANCH  11  18
ENDBRANCH   1  15
BRANCH   7  19
ATOM     19  C   UNL     1       0.145  12.029  21.391  0.00  0.00    +0.000 C 
BRANCH  19  20
ATOM     20  C   UNL     1      -0.014  13.305  20.582  0.00  0.00    +0.000 A 
ATOM     21  C   UNL     1      -1.159  14.091  20.631  0.00  0.00    +0.000 A 
ATOM     22  N   UNL     1      -1.371  15.203  19.892  0.00  0.00    +0.000 NA
ATOM     23  C   UNL     1      -0.339  15.693  19.198  0.00  0.00    +0.000 A 
ATOM     24  C   UNL     1      -0.501  16.887  18.512  0.00  0.00    +0.000 A 
ATOM     25  C   UNL     1       0.592  17.577  17.989  0.00  0.00    +0.000 A 
ATOM     26  C   UNL     1       1.867  17.036  18.114  0.00  0.00    +0.000 A 
ATOM     27  C   UNL     1       2.030  15.763  18.665  0.00  0.00    +0.000 A 
ATOM     28  C   UNL     1       0.927  15.075  19.202  0.00  0.00    +0.000 A 
ATOM     29  C   UNL     1       1.042  13.813  19.818  0.00  0.00    +0.000 A 
ENDBRANCH  19  20
ENDBRANCH   7  19
TORSDOF 4
ENDMDL
MODEL 9
REMARK VINA RESULT:      -8.1      1.501      1.840
REMARK  Name = 
REMARK  5 active torsions:
REMARK  status: ('A' for Active; 'I' for Inactive)
REMARK    1  A    between atoms: C_1  and  O_2
REMARK    2  A    between atoms: O_2  and  C_3
REMARK    3  A    between atoms: C_7  and  N_8
REMARK    4  A    between atoms: N_14  and  C_15
REMARK    5  A    between atoms: C_15  and  C_16
REMARK                            x       y       z     vdW  Elec       q    Type
REMARK                         _______ _______ _______ _____ _____    ______ ____
ROOT
ATOM      1  N   UNL     1       1.082   9.266  19.710  0.00  0.00    +0.000 N 
ATOM      2  C   UNL     1       1.625   8.193  20.381  0.00  0.00    +0.000 C 
ATOM      3  O   UNL     1       1.550   8.025  21.599  0.00  0.00    +0.000 OA
ATOM      4  N   UNL     1       2.217   7.225  19.574  0.00  0.00    +0.000 N 
ATOM      5  C   UNL     1       2.628   5.985  20.231  0.00  0.00    +0.000 C 
ATOM      6  C   UNL     1       2.497   4.787  19.290  0.00  0.00    +0.000 C 
ATOM      7  N   UNL     1       3.222   4.926  18.001  0.00  0.00    +0.000 NA
ATOM      8  C   UNL     1       2.863   6.223  17.376  0.00  0.00    +0.000 C 
ATOM      9  C   UNL     1       2.895   7.468  18.298  0.00  0.00    +0.000 C 
ATOM     10  H   UNL     1       0.910   9.116  18.730  0.00  0.00    +0.000 HD
ENDROOT
BRANCH   1  15
ATOM     11  C   UNL     1      -1.030  11.187  22.092  0.00  0.00    +0.000 A 
ATOM     12  C   UNL     1      -0.918  12.481  21.583  0.00  0.00    +0.000 A 
ATOM     13  C   UNL     1      -0.162  12.726  20.442  0.00  0.00    +0.000 A 
ATOM     14  C   UNL     1       0.492  11.672  19.802  0.00  0.00    +0.000 A 
ATOM     15  C   UNL     1       0.413  10.370  20.303  0.00  0.00    +0.000 A 
ATOM     16  C   UNL     1      -0.367  10.132  21.451  0.00  0.00    +0.000 A 
BRANCH  11  18
ATOM     17  C   UNL     1      -2.806  12.093  23.398  0.00  0.00    +0.000 C 
ATOM     18  O   UNL     1      -1.814  11.095  23.209  0.00  0.00    +0.000 OA
ENDBRANCH  11  18
ENDBRANCH   1  15
BRANCH   7  19
ATOM     19  C   UNL     1       4.675   4.710  18.108  0.00  0.00    +0.000 C 
BRANCH  19  20
ATOM     20  C   UNL     1       5.442   4.828  16.801  0.00  0.00    +0.000 A 
ATOM     21  C   UNL     1       6.713   5.385  16.721  0.00  0.00    +0.000 A 
ATOM     22  N   UNL     1       7.412   5.562  15.578  0.00  0.00    +0.000 NA
ATOM     23  C   UNL     1       6.935   4.998  14.464  0.00  0.00    +0.000 A 
ATOM     24  C   UNL     1       7.683   5.080  13.299  0.00  0.00    +0.000 A 
ATOM     25  C   UNL     1       7.372   4.305  12.182  0.00  0.00    +0.000 A 
ATOM     26  C   UNL     1       6.263   3.468  12.216  0.00  0.00    +0.000 A 
ATOM     27  C   UNL     1       5.412   3.489  13.323  0.00  0.00    +0.000 A 
ATOM     28  C   UNL     1       5.734   4.262  14.453  0.00  0.00    +0.000 A 
ATOM     29  C   UNL     1       4.940   4.279  15.616  0.00  0.00    +0.000 A 
ENDBRANCH  19  20
ENDBRANCH   7  19
TORSDOF 4
ENDMDL
