MODEL 1
REMARK VINA RESULT:      -6.6      0.000      0.000
REMARK  Name = 
REMARK  9 active torsions:
REMARK  status: ('A' for Active; 'I' for Inactive)
REMARK    1  A    between atoms: C_1  and  O_2
REMARK    2  A    between atoms: O_2  and  C_3
REMARK    3  A    between atoms: C_10  and  C_11
REMARK    4  A    between atoms: C_13  and  O_14
REMARK    5  A    between atoms: O_14  and  C_15
REMARK    6  A    between atoms: C_16  and  O_17
REMARK    7  A    between atoms: O_17  and  C_18
REMARK    8  A    between atoms: C_19  and  O_20
REMARK    9  A    between atoms: O_20  and  C_21
REMARK                            x       y       z     vdW  Elec       q    Type
REMARK                         _______ _______ _______ _____ _____    ______ ____
ROOT
ATOM      1  C   UNL     1       7.945   8.641  18.009  0.00  0.00    +0.000 A 
ATOM      2  C   UNL     1       8.546   7.655  18.800  0.00  0.00    +0.000 A 
ATOM      3  C   UNL     1       8.073   6.338  18.791  0.00  0.00    +0.000 A 
ATOM      4  C   UNL     1       6.973   6.004  18.003  0.00  0.00    +0.000 A 
ATOM      5  C   UNL     1       6.366   6.996  17.225  0.00  0.00    +0.000 A 
ATOM      6  C   UNL     1       6.858   8.302  17.206  0.00  0.00    +0.000 A 
ATOM      7  O   UNL     1       5.250   6.741  16.459  0.00  0.00    +0.000 OA
ATOM      8  C   UNL     1       4.402   5.680  16.964  0.00  0.00    +0.000 C 
ATOM      9  C   UNL     1       5.216   4.495  17.448  0.00  0.00    +0.000 C 
ATOM     10  C   UNL     1       6.446   4.644  17.952  0.00  0.00    +0.000 C 
ENDROOT
BRANCH   8  11
ATOM     11  C   UNL     1       3.419   6.186  18.024  0.00  0.00    +0.000 A 
ATOM     12  C   UNL     1       2.853   7.466  17.953  0.00  0.00    +0.000 A 
ATOM     13  C   UNL     1       2.018   7.959  18.958  0.00  0.00    +0.000 A 
ATOM     14  C   UNL     1       1.717   7.156  20.077  0.00  0.00    +0.000 A 
ATOM     15  C   UNL     1       2.257   5.857  20.156  0.00  0.00    +0.000 A 
ATOM     16  C   UNL     1       3.067   5.376  19.116  0.00  0.00    +0.000 A 
BRANCH  13  17
ATOM     17  O   UNL     1       1.478   9.226  18.928  0.00  0.00    +0.000 OA
ATOM     18  C   UNL     1       1.985  10.109  17.933  0.00  0.00    +0.000 C 
ENDBRANCH  13  17
BRANCH  14  19
ATOM     19  O   UNL     1       0.968   7.773  21.053  0.00  0.00    +0.000 OA
ATOM     20  C   UNL     1       1.642   8.696  21.896  0.00  0.00    +0.000 C 
ENDBRANCH  14  19
BRANCH  15  21
ATOM     21  O   UNL     1       1.958   5.078  21.246  0.00  0.00    +0.000 OA
ATOM     22  C   UNL     1       1.479   3.767  20.969  0.00  0.00    +0.000 C 
ENDBRANCH  15  21
ENDBRANCH   8  11
BRANCH   1  24
ATOM     23  C   UNL     1       9.252  10.153  19.295  0.00  0.00    +0.000 C 
ATOM     24  O   UNL     1       8.510   9.882  18.113  0.00  0.00    +0.000 OA
ENDBRANCH   1  24
TORSDOF 5
ENDMDL
MODEL 2
REMARK VINA RESULT:      -6.3      2.924      6.430
REMARK  Name = 
REMARK  9 active torsions:
REMARK  status: ('A' for Active; 'I' for Inactive)
REMARK    1  A    between atoms: C_1  and  O_2
REMARK    2  A    between atoms: O_2  and  C_3
REMARK    3  A    between atoms: C_10  and  C_11
REMARK    4  A    between atoms: C_13  and  O_14
REMARK    5  A    between atoms: O_14  and  C_15
REMARK    6  A    between atoms: C_16  and  O_17
REMARK    7  A    between atoms: O_17  and  C_18
REMARK    8  A    between atoms: C_19  and  O_20
REMARK    9  A    between atoms: O_20  and  C_21
REMARK                            x       y       z     vdW  Elec       q    Type
REMARK                         _______ _______ _______ _____ _____    ______ ____
ROOT
ATOM      1  C   UNL     1       4.637   1.635  21.078  0.00  0.00    +0.000 A 
ATOM      2  C   UNL     1       3.588   2.292  21.734  0.00  0.00    +0.000 A 
ATOM      3  C   UNL     1       2.524   2.844  21.014  0.00  0.00    +0.000 A 
ATOM      4  C   UNL     1       2.514   2.764  19.622  0.00  0.00    +0.000 A 
ATOM      5  C   UNL     1       3.571   2.120  18.970  0.00  0.00    +0.000 A 
ATOM      6  C   UNL     1       4.616   1.537  19.689  0.00  0.00    +0.000 A 
ATOM      7  O   UNL     1       3.644   2.045  17.597  0.00  0.00    +0.000 OA
ATOM      8  C   UNL     1       2.999   3.139  16.899  0.00  0.00    +0.000 C 
ATOM      9  C   UNL     1       1.661   3.489  17.520  0.00  0.00    +0.000 C 
ATOM     10  C   UNL     1       1.423   3.318  18.826  0.00  0.00    +0.000 C 
ENDROOT
BRANCH   8  11
ATOM     11  C   UNL     1       3.919   4.357  16.766  0.00  0.00    +0.000 A 
ATOM     12  C   UNL     1       5.154   4.279  16.108  0.00  0.00    +0.000 A 
ATOM     13  C   UNL     1       6.030   5.367  16.054  0.00  0.00    +0.000 A 
ATOM     14  C   UNL     1       5.672   6.586  16.665  0.00  0.00    +0.000 A 
ATOM     15  C   UNL     1       4.425   6.692  17.311  0.00  0.00    +0.000 A 
ATOM     16  C   UNL     1       3.552   5.593  17.323  0.00  0.00    +0.000 A 
BRANCH  13  17
ATOM     17  O   UNL     1       7.262   5.305  15.443  0.00  0.00    +0.000 OA
ATOM     18  C   UNL     1       7.267   5.011  14.051  0.00  0.00    +0.000 C 
ENDBRANCH  13  17
BRANCH  14  19
ATOM     19  O   UNL     1       6.645   7.558  16.638  0.00  0.00    +0.000 OA
ATOM     20  C   UNL     1       7.573   7.571  17.714  0.00  0.00    +0.000 C 
ENDBRANCH  14  19
BRANCH  15  21
ATOM     21  O   UNL     1       4.081   7.882  17.902  0.00  0.00    +0.000 OA
ATOM     22  C   UNL     1       2.694   8.204  17.903  0.00  0.00    +0.000 C 
ENDBRANCH  15  21
ENDBRANCH   8  11
BRANCH   1  24
ATOM     23  C   UNL     1       6.003  -0.210  21.694  0.00  0.00    +0.000 C 
ATOM     24  O   UNL     1       5.608   1.140  21.904  0.00  0.00    +0.000 OA
ENDBRANCH   1  24
TORSDOF 5
ENDMDL
MODEL 3
REMARK VINA RESULT:      -6.3      0.226      2.663
REMARK  Name = 
REMARK  9 active torsions:
REMARK  status: ('A' for Active; 'I' for Inactive)
REMARK    1  A    between atoms: C_1  and  O_2
REMARK    2  A    between atoms: O_2  and  C_3
REMARK    3  A    between atoms: C_10  and  C_11
REMARK    4  A    between atoms: C_13  and  O_14
REMARK    5  A    between atoms: O_14  and  C_15
REMARK    6  A    between atoms: C_16  and  O_17
REMARK    7  A    between atoms: O_17  and  C_18
REMARK    8  A    between atoms: C_19  and  O_20
REMARK    9  A    between atoms: O_20  and  C_21
REMARK                            x       y       z     vdW  Elec       q    Type
REMARK                         _______ _______ _______ _____ _____    ______ ____
ROOT
ATOM      1  C   UNL     1       8.014   8.704  18.012  0.00  0.00    +0.000 A 
ATOM      2  C   UNL     1       8.624   7.713  18.790  0.00  0.00    +0.000 A 
ATOM      3  C   UNL     1       8.131   6.403  18.802  0.00  0.00    +0.000 A 
ATOM      4  C   UNL     1       7.002   6.082  18.051  0.00  0.00    +0.000 A 
ATOM      5  C   UNL     1       6.386   7.079  17.287  0.00  0.00    +0.000 A 
ATOM      6  C   UNL     1       6.898   8.378  17.245  0.00  0.00    +0.000 A 
ATOM      7  O   UNL     1       5.243   6.838  16.557  0.00  0.00    +0.000 OA
ATOM      8  C   UNL     1       4.396   5.792  17.093  0.00  0.00    +0.000 C 
ATOM      9  C   UNL     1       5.206   4.597  17.558  0.00  0.00    +0.000 C 
ATOM     10  C   UNL     1       6.454   4.730  18.023  0.00  0.00    +0.000 C 
ENDROOT
BRANCH   8  11
ATOM     11  C   UNL     1       3.453   6.318  18.180  0.00  0.00    +0.000 A 
ATOM     12  C   UNL     1       3.072   5.526  19.272  0.00  0.00    +0.000 A 
ATOM     13  C   UNL     1       2.151   5.975  20.222  0.00  0.00    +0.000 A 
ATOM     14  C   UNL     1       1.588   7.261  20.099  0.00  0.00    +0.000 A 
ATOM     15  C   UNL     1       1.975   8.082  19.023  0.00  0.00    +0.000 A 
ATOM     16  C   UNL     1       2.927   7.617  18.100  0.00  0.00    +0.000 A 
BRANCH  13  17
ATOM     17  O   UNL     1       1.735   5.202  21.284  0.00  0.00    +0.000 OA
ATOM     18  C   UNL     1       1.543   3.816  21.023  0.00  0.00    +0.000 C 
ENDBRANCH  13  17
BRANCH  14  19
ATOM     19  O   UNL     1       0.622   7.565  21.031  0.00  0.00    +0.000 OA
ATOM     20  C   UNL     1       0.881   8.664  21.893  0.00  0.00    +0.000 C 
ENDBRANCH  14  19
BRANCH  15  21
ATOM     21  O   UNL     1       1.426   9.335  18.910  0.00  0.00    +0.000 OA
ATOM     22  C   UNL     1       1.981  10.176  17.904  0.00  0.00    +0.000 C 
ENDBRANCH  15  21
ENDBRANCH   8  11
BRANCH   1  24
ATOM     23  C   UNL     1       9.347  10.218  19.269  0.00  0.00    +0.000 C 
ATOM     24  O   UNL     1       8.600   9.937  18.092  0.00  0.00    +0.000 OA
ENDBRANCH   1  24
TORSDOF 5
ENDMDL
MODEL 4
REMARK VINA RESULT:      -6.0      2.921      6.352
REMARK  Name = 
REMARK  9 active torsions:
REMARK  status: ('A' for Active; 'I' for Inactive)
REMARK    1  A    between atoms: C_1  and  O_2
REMARK    2  A    between atoms: O_2  and  C_3
REMARK    3  A    between atoms: C_10  and  C_11
REMARK    4  A    between atoms: C_13  and  O_14
REMARK    5  A    between atoms: O_14  and  C_15
REMARK    6  A    between atoms: C_16  and  O_17
REMARK    7  A    between atoms: O_17  and  C_18
REMARK    8  A    between atoms: C_19  and  O_20
REMARK    9  A    between atoms: O_20  and  C_21
REMARK                            x       y       z     vdW  Elec       q    Type
REMARK                         _______ _______ _______ _____ _____    ______ ____
ROOT
ATOM      1  C   UNL     1       4.559   1.490  21.157  0.00  0.00    +0.000 A 
ATOM      2  C   UNL     1       3.473   2.111  21.785  0.00  0.00    +0.000 A 
ATOM      3  C   UNL     1       2.442   2.687  21.035  0.00  0.00    +0.000 A 
ATOM      4  C   UNL     1       2.504   2.668  19.643  0.00  0.00    +0.000 A 
ATOM      5  C   UNL     1       3.599   2.060  19.019  0.00  0.00    +0.000 A 
ATOM      6  C   UNL     1       4.611   1.452  19.765  0.00  0.00    +0.000 A 
ATOM      7  O   UNL     1       3.743   2.044  17.649  0.00  0.00    +0.000 OA
ATOM      8  C   UNL     1       3.125   3.163  16.967  0.00  0.00    +0.000 C 
ATOM      9  C   UNL     1       1.754   3.477  17.533  0.00  0.00    +0.000 C 
ATOM     10  C   UNL     1       1.451   3.248  18.816  0.00  0.00    +0.000 C 
ENDROOT
BRANCH   8  11
ATOM     11  C   UNL     1       4.040   4.392  16.934  0.00  0.00    +0.000 A 
ATOM     12  C   UNL     1       3.634   5.627  17.455  0.00  0.00    +0.000 A 
ATOM     13  C   UNL     1       4.434   6.768  17.357  0.00  0.00    +0.000 A 
ATOM     14  C   UNL     1       5.693   6.689  16.727  0.00  0.00    +0.000 A 
ATOM     15  C   UNL     1       6.130   5.451  16.217  0.00  0.00    +0.000 A 
ATOM     16  C   UNL     1       5.318   4.314  16.358  0.00  0.00    +0.000 A 
BRANCH  13  17
ATOM     17  O   UNL     1       4.042   8.001  17.830  0.00  0.00    +0.000 OA
ATOM     18  C   UNL     1       2.652   8.171  18.084  0.00  0.00    +0.000 C 
ENDBRANCH  13  17
BRANCH  14  19
ATOM     19  O   UNL     1       6.355   7.888  16.596  0.00  0.00    +0.000 OA
ATOM     20  C   UNL     1       7.466   8.107  17.454  0.00  0.00    +0.000 C 
ENDBRANCH  14  19
BRANCH  15  21
ATOM     21  O   UNL     1       7.358   5.379  15.607  0.00  0.00    +0.000 OA
ATOM     22  C   UNL     1       7.356   5.007  14.233  0.00  0.00    +0.000 C 
ENDBRANCH  15  21
ENDBRANCH   8  11
BRANCH   1  24
ATOM     23  C   UNL     1       6.039  -0.300  21.662  0.00  0.00    +0.000 C 
ATOM     24  O   UNL     1       5.492   0.966  22.009  0.00  0.00    +0.000 OA
ENDBRANCH   1  24
TORSDOF 5
ENDMDL
MODEL 5
REMARK VINA RESULT:      -5.8      7.043     10.524
REMARK  Name = 
REMARK  9 active torsions:
REMARK  status: ('A' for Active; 'I' for Inactive)
REMARK    1  A    between atoms: C_1  and  O_2
REMARK    2  A    between atoms: O_2  and  C_3
REMARK    3  A    between atoms: C_10  and  C_11
REMARK    4  A    between atoms: C_13  and  O_14
REMARK    5  A    between atoms: O_14  and  C_15
REMARK    6  A    between atoms: C_16  and  O_17
REMARK    7  A    between atoms: O_17  and  C_18
REMARK    8  A    between atoms: C_19  and  O_20
REMARK    9  A    between atoms: O_20  and  C_21
REMARK                            x       y       z     vdW  Elec       q    Type
REMARK                         _______ _______ _______ _____ _____    ______ ____
ROOT
ATOM      1  C   UNL     1      -6.610  11.379  18.686  0.00  0.00    +0.000 A 
ATOM      2  C   UNL     1      -6.566  12.342  17.671  0.00  0.00    +0.000 A 
ATOM      3  C   UNL     1      -5.539  12.338  16.720  0.00  0.00    +0.000 A 
ATOM      4  C   UNL     1      -4.530  11.380  16.795  0.00  0.00    +0.000 A 
ATOM      5  C   UNL     1      -4.569  10.429  17.821  0.00  0.00    +0.000 A 
ATOM      6  C   UNL     1      -5.612  10.409  18.749  0.00  0.00    +0.000 A 
ATOM      7  O   UNL     1      -3.580   9.483  17.977  0.00  0.00    +0.000 OA
ATOM      8  C   UNL     1      -2.275   9.891  17.498  0.00  0.00    +0.000 C 
ATOM      9  C   UNL     1      -2.366  10.609  16.166  0.00  0.00    +0.000 C 
ATOM     10  C   UNL     1      -3.441  11.329  15.825  0.00  0.00    +0.000 C 
ENDROOT
BRANCH   8  11
ATOM     11  C   UNL     1      -1.507  10.701  18.548  0.00  0.00    +0.000 A 
ATOM     12  C   UNL     1      -0.877  10.086  19.638  0.00  0.00    +0.000 A 
ATOM     13  C   UNL     1      -0.243  10.828  20.638  0.00  0.00    +0.000 A 
ATOM     14  C   UNL     1      -0.219  12.235  20.558  0.00  0.00    +0.000 A 
ATOM     15  C   UNL     1      -0.826  12.872  19.458  0.00  0.00    +0.000 A 
ATOM     16  C   UNL     1      -1.428  12.100  18.452  0.00  0.00    +0.000 A 
BRANCH  13  17
ATOM     17  O   UNL     1       0.352  10.248  21.736  0.00  0.00    +0.000 OA
ATOM     18  C   UNL     1      -0.521   9.682  22.707  0.00  0.00    +0.000 C 
ENDBRANCH  13  17
BRANCH  14  19
ATOM     19  O   UNL     1       0.343  12.871  21.642  0.00  0.00    +0.000 OA
ATOM     20  C   UNL     1      -0.547  13.503  22.550  0.00  0.00    +0.000 C 
ENDBRANCH  14  19
BRANCH  15  21
ATOM     21  O   UNL     1      -0.797  14.243  19.384  0.00  0.00    +0.000 OA
ATOM     22  C   UNL     1       0.385  14.817  18.835  0.00  0.00    +0.000 C 
ENDBRANCH  15  21
ENDBRANCH   8  11
BRANCH   1  24
ATOM     23  C   UNL     1      -7.614  10.734  20.742  0.00  0.00    +0.000 C 
ATOM     24  O   UNL     1      -7.669  11.498  19.543  0.00  0.00    +0.000 OA
ENDBRANCH   1  24
TORSDOF 5
ENDMDL
MODEL 6
REMARK VINA RESULT:      -5.8      1.523      3.292
REMARK  Name = 
REMARK  9 active torsions:
REMARK  status: ('A' for Active; 'I' for Inactive)
REMARK    1  A    between atoms: C_1  and  O_2
REMARK    2  A    between atoms: O_2  and  C_3
REMARK    3  A    between atoms: C_10  and  C_11
REMARK    4  A    between atoms: C_13  and  O_14
REMARK    5  A    between atoms: O_14  and  C_15
REMARK    6  A    between atoms: C_16  and  O_17
REMARK    7  A    between atoms: O_17  and  C_18
REMARK    8  A    between atoms: C_19  and  O_20
REMARK    9  A    between atoms: O_20  and  C_21
REMARK                            x       y       z     vdW  Elec       q    Type
REMARK                         _______ _______ _______ _____ _____    ______ ____
ROOT
ATOM      1  C   UNL     1       7.255   7.074  17.582  0.00  0.00    +0.000 A 
ATOM      2  C   UNL     1       7.579   6.400  18.765  0.00  0.00    +0.000 A 
ATOM      3  C   UNL     1       6.654   5.558  19.390  0.00  0.00    +0.000 A 
ATOM      4  C   UNL     1       5.381   5.402  18.845  0.00  0.00    +0.000 A 
ATOM      5  C   UNL     1       5.055   6.089  17.670  0.00  0.00    +0.000 A 
ATOM      6  C   UNL     1       5.990   6.902  17.025  0.00  0.00    +0.000 A 
ATOM      7  O   UNL     1       3.802   6.013  17.104  0.00  0.00    +0.000 OA
ATOM      8  C   UNL     1       2.730   5.760  18.045  0.00  0.00    +0.000 C 
ATOM      9  C   UNL     1       3.115   4.703  19.062  0.00  0.00    +0.000 C 
ATOM     10  C   UNL     1       4.382   4.530  19.454  0.00  0.00    +0.000 C 
ENDROOT
BRANCH   8  11
ATOM     11  C   UNL     1       2.229   7.050  18.704  0.00  0.00    +0.000 A 
ATOM     12  C   UNL     1       1.832   7.086  20.047  0.00  0.00    +0.000 A 
ATOM     13  C   UNL     1       1.301   8.240  20.628  0.00  0.00    +0.000 A 
ATOM     14  C   UNL     1       1.163   9.413  19.858  0.00  0.00    +0.000 A 
ATOM     15  C   UNL     1       1.578   9.405  18.512  0.00  0.00    +0.000 A 
ATOM     16  C   UNL     1       2.137   8.240  17.963  0.00  0.00    +0.000 A 
BRANCH  13  17
ATOM     17  O   UNL     1       0.872   8.290  21.936  0.00  0.00    +0.000 OA
ATOM     18  C   UNL     1       1.589   9.157  22.808  0.00  0.00    +0.000 C 
ENDBRANCH  13  17
BRANCH  14  19
ATOM     19  O   UNL     1       0.539  10.460  20.498  0.00  0.00    +0.000 OA
ATOM     20  C   UNL     1      -0.814  10.713  20.150  0.00  0.00    +0.000 C 
ENDBRANCH  14  19
BRANCH  15  21
ATOM     21  O   UNL     1       1.444  10.551  17.768  0.00  0.00    +0.000 OA
ATOM     22  C   UNL     1       2.380  11.589  18.040  0.00  0.00    +0.000 C 
ENDBRANCH  15  21
ENDBRANCH   8  11
BRANCH   1  24
ATOM     23  C   UNL     1       8.397   9.157  17.643  0.00  0.00    +0.000 C 
ATOM     24  O   UNL     1       8.253   7.860  17.077  0.00  0.00    +0.000 OA
ENDBRANCH   1  24
TORSDOF 5
ENDMDL
MODEL 7
REMARK VINA RESULT:      -5.6      2.366      3.937
REMARK  Name = 
REMARK  9 active torsions:
REMARK  status: ('A' for Active; 'I' for Inactive)
REMARK    1  A    between atoms: C_1  and  O_2
REMARK    2  A    between atoms: O_2  and  C_3
REMARK    3  A    between atoms: C_10  and  C_11
REMARK    4  A    between atoms: C_13  and  O_14
REMARK    5  A    between atoms: O_14  and  C_15
REMARK    6  A    between atoms: C_16  and  O_17
REMARK    7  A    between atoms: O_17  and  C_18
REMARK    8  A    between atoms: C_19  and  O_20
REMARK    9  A    between atoms: O_20  and  C_21
REMARK                            x       y       z     vdW  Elec       q    Type
REMARK                         _______ _______ _______ _____ _____    ______ ____
ROOT
ATOM      1  C   UNL     1       6.352   5.472  16.552  0.00  0.00    +0.000 A 
ATOM      2  C   UNL     1       7.047   5.152  17.724  0.00  0.00    +0.000 A 
ATOM      3  C   UNL     1       6.373   4.671  18.851  0.00  0.00    +0.000 A 
ATOM      4  C   UNL     1       4.987   4.529  18.821  0.00  0.00    +0.000 A 
ATOM      5  C   UNL     1       4.294   4.864  17.652  0.00  0.00    +0.000 A 
ATOM      6  C   UNL     1       4.969   5.311  16.514  0.00  0.00    +0.000 A 
ATOM      7  O   UNL     1       2.921   4.789  17.571  0.00  0.00    +0.000 OA
ATOM      8  C   UNL     1       2.232   4.980  18.831  0.00  0.00    +0.000 C 
ATOM      9  C   UNL     1       2.917   4.239  19.962  0.00  0.00    +0.000 C 
ATOM     10  C   UNL     1       4.238   4.024  19.967  0.00  0.00    +0.000 C 
ENDROOT
BRANCH   8  11
ATOM     11  C   UNL     1       2.017   6.463  19.148  0.00  0.00    +0.000 A 
ATOM     12  C   UNL     1       1.669   6.899  20.434  0.00  0.00    +0.000 A 
ATOM     13  C   UNL     1       1.396   8.241  20.708  0.00  0.00    +0.000 A 
ATOM     14  C   UNL     1       1.477   9.198  19.677  0.00  0.00    +0.000 A 
ATOM     15  C   UNL     1       1.847   8.785  18.382  0.00  0.00    +0.000 A 
ATOM     16  C   UNL     1       2.147   7.434  18.142  0.00  0.00    +0.000 A 
BRANCH  13  17
ATOM     17  O   UNL     1       1.019   8.688  21.956  0.00  0.00    +0.000 OA
ATOM     18  C   UNL     1      -0.355   8.538  22.295  0.00  0.00    +0.000 C 
ENDBRANCH  13  17
BRANCH  14  19
ATOM     19  O   UNL     1       1.093  10.471  20.032  0.00  0.00    +0.000 OA
ATOM     20  C   UNL     1      -0.217  10.877  19.660  0.00  0.00    +0.000 C 
ENDBRANCH  14  19
BRANCH  15  21
ATOM     21  O   UNL     1       1.928   9.722  17.382  0.00  0.00    +0.000 OA
ATOM     22  C   UNL     1       2.699  10.884  17.670  0.00  0.00    +0.000 C 
ENDBRANCH  15  21
ENDBRANCH   8  11
BRANCH   1  24
ATOM     23  C   UNL     1       7.189   5.125  14.354  0.00  0.00    +0.000 C 
ATOM     24  O   UNL     1       7.135   5.927  15.527  0.00  0.00    +0.000 OA
ENDBRANCH   1  24
TORSDOF 5
ENDMDL
MODEL 8
REMARK VINA RESULT:      -5.6      3.539      5.933
REMARK  Name = 
REMARK  9 active torsions:
REMARK  status: ('A' for Active; 'I' for Inactive)
REMARK    1  A    between atoms: C_1  and  O_2
REMARK    2  A    between atoms: O_2  and  C_3
REMARK    3  A    between atoms: C_10  and  C_11
REMARK    4  A    between atoms: C_13  and  O_14
REMARK    5  A    between atoms: O_14  and  C_15
REMARK    6  A    between atoms: C_16  and  O_17
REMARK    7  A    between atoms: O_17  and  C_18
REMARK    8  A    between atoms: C_19  and  O_20
REMARK    9  A    between atoms: O_20  and  C_21
REMARK                            x       y       z     vdW  Elec       q    Type
REMARK                         _______ _______ _______ _____ _____    ______ ____
ROOT
ATOM      1  C   UNL     1       1.258   3.901  20.070  0.00  0.00    +0.000 A 
ATOM      2  C   UNL     1       1.122   3.624  18.705  0.00  0.00    +0.000 A 
ATOM      3  C   UNL     1       1.617   4.507  17.739  0.00  0.00    +0.000 A 
ATOM      4  C   UNL     1       2.232   5.693  18.136  0.00  0.00    +0.000 A 
ATOM      5  C   UNL     1       2.353   5.973  19.501  0.00  0.00    +0.000 A 
ATOM      6  C   UNL     1       1.892   5.077  20.467  0.00  0.00    +0.000 A 
ATOM      7  O   UNL     1       2.911   7.147  19.959  0.00  0.00    +0.000 OA
ATOM      8  C   UNL     1       2.768   8.273  19.058  0.00  0.00    +0.000 C 
ATOM      9  C   UNL     1       3.031   7.876  17.618  0.00  0.00    +0.000 C 
ATOM     10  C   UNL     1       2.771   6.643  17.168  0.00  0.00    +0.000 C 
ENDROOT
BRANCH   8  11
ATOM     11  C   UNL     1       1.420   8.980  19.233  0.00  0.00    +0.000 A 
ATOM     12  C   UNL     1       0.691   9.458  18.136  0.00  0.00    +0.000 A 
ATOM     13  C   UNL     1      -0.499  10.172  18.296  0.00  0.00    +0.000 A 
ATOM     14  C   UNL     1      -0.999  10.419  19.591  0.00  0.00    +0.000 A 
ATOM     15  C   UNL     1      -0.294   9.928  20.706  0.00  0.00    +0.000 A 
ATOM     16  C   UNL     1       0.883   9.186  20.514  0.00  0.00    +0.000 A 
BRANCH  13  17
ATOM     17  O   UNL     1      -1.216  10.681  17.235  0.00  0.00    +0.000 OA
ATOM     18  C   UNL     1      -2.218   9.835  16.682  0.00  0.00    +0.000 C 
ENDBRANCH  13  17
BRANCH  14  19
ATOM     19  O   UNL     1      -2.122  11.214  19.640  0.00  0.00    +0.000 OA
ATOM     20  C   UNL     1      -1.921  12.596  19.899  0.00  0.00    +0.000 C 
ENDBRANCH  14  19
BRANCH  15  21
ATOM     21  O   UNL     1      -0.786  10.169  21.965  0.00  0.00    +0.000 OA
ATOM     22  C   UNL     1      -0.055   9.599  23.045  0.00  0.00    +0.000 C 
ENDBRANCH  15  21
ENDBRANCH   8  11
BRANCH   1  24
ATOM     23  C   UNL     1       1.580   2.465  21.937  0.00  0.00    +0.000 C 
ATOM     24  O   UNL     1       0.733   2.952  20.903  0.00  0.00    +0.000 OA
ENDBRANCH   1  24
TORSDOF 5
ENDMDL
MODEL 9
REMARK VINA RESULT:      -5.6      4.818      8.114
REMARK  Name = 
REMARK  9 active torsions:
REMARK  status: ('A' for Active; 'I' for Inactive)
REMARK    1  A    between atoms: C_1  and  O_2
REMARK    2  A    between atoms: O_2  and  C_3
REMARK    3  A    between atoms: C_10  and  C_11
REMARK    4  A    between atoms: C_13  and  O_14
REMARK    5  A    between atoms: O_14  and  C_15
REMARK    6  A    between atoms: C_16  and  O_17
REMARK    7  A    between atoms: O_17  and  C_18
REMARK    8  A    between atoms: C_19  and  O_20
REMARK    9  A    between atoms: O_20  and  C_21
REMARK                            x       y       z     vdW  Elec       q    Type
REMARK                         _______ _______ _______ _____ _____    ______ ____
ROOT
ATOM      1  C   UNL     1       1.473   8.339  19.987  0.00  0.00    +0.000 A 
ATOM      2  C   UNL     1       2.056   8.499  18.724  0.00  0.00    +0.000 A 
ATOM      3  C   UNL     1       2.068   9.745  18.090  0.00  0.00    +0.000 A 
ATOM      4  C   UNL     1       1.470  10.842  18.708  0.00  0.00    +0.000 A 
ATOM      5  C   UNL     1       0.875  10.675  19.963  0.00  0.00    +0.000 A 
ATOM      6  C   UNL     1       0.894   9.440  20.614  0.00  0.00    +0.000 A 
ATOM      7  O   UNL     1       0.230  11.707  20.608  0.00  0.00    +0.000 OA
ATOM      8  C   UNL     1      -0.345  12.703  19.726  0.00  0.00    +0.000 C 
ATOM      9  C   UNL     1       0.594  13.053  18.588  0.00  0.00    +0.000 C 
ATOM     10  C   UNL     1       1.463  12.165  18.091  0.00  0.00    +0.000 C 
ENDROOT
BRANCH   8  11
ATOM     11  C   UNL     1      -1.737  12.295  19.231  0.00  0.00    +0.000 A 
ATOM     12  C   UNL     1      -1.944  11.810  17.933  0.00  0.00    +0.000 A 
ATOM     13  C   UNL     1      -3.222  11.511  17.453  0.00  0.00    +0.000 A 
ATOM     14  C   UNL     1      -4.344  11.689  18.289  0.00  0.00    +0.000 A 
ATOM     15  C   UNL     1      -4.155  12.153  19.605  0.00  0.00    +0.000 A 
ATOM     16  C   UNL     1      -2.856  12.415  20.071  0.00  0.00    +0.000 A 
BRANCH  13  17
ATOM     17  O   UNL     1      -3.455  11.066  16.171  0.00  0.00    +0.000 OA
ATOM     18  C   UNL     1      -2.765   9.887  15.773  0.00  0.00    +0.000 C 
ENDBRANCH  13  17
BRANCH  14  19
ATOM     19  O   UNL     1      -5.560  11.460  17.687  0.00  0.00    +0.000 OA
ATOM     20  C   UNL     1      -6.272  12.598  17.220  0.00  0.00    +0.000 C 
ENDBRANCH  14  19
BRANCH  15  21
ATOM     21  O   UNL     1      -5.250  12.321  20.415  0.00  0.00    +0.000 OA
ATOM     22  C   UNL     1      -5.028  13.021  21.635  0.00  0.00    +0.000 C 
ENDBRANCH  15  21
ENDBRANCH   8  11
BRANCH   1  24
ATOM     23  C   UNL     1       2.406   6.158  19.831  0.00  0.00    +0.000 C 
ATOM     24  O   UNL     1       1.535   7.070  20.491  0.00  0.00    +0.000 OA
ENDBRANCH   1  24
TORSDOF 5
ENDMDL
