MODEL 1
REMARK VINA RESULT:      -6.4      0.000      0.000
REMARK  Name = 
REMARK  14 active torsions:
REMARK  status: ('A' for Active; 'I' for Inactive)
REMARK    1  A    between atoms: C_1  and  O_2
REMARK    2  A    between atoms: O_2  and  C_3
REMARK    3  A    between atoms: C_3  and  C_5
REMARK    4  A    between atoms: C_5  and  O_6
REMARK    5  A    between atoms: O_6  and  C_7
REMARK    6  A    between atoms: C_9  and  O_10
REMARK    7  A    between atoms: C_11  and  N_12
REMARK    8  A    between atoms: C_13  and  C_14
REMARK    9  A    between atoms: C_16  and  C_17
REMARK   10  A    between atoms: C_17  and  O_18
REMARK   11  A    between atoms: C_17  and  C_19
REMARK   12  A    between atoms: C_19  and  O_20
REMARK   13  A    between atoms: C_19  and  C_21
REMARK   14  A    between atoms: C_21  and  O_22
REMARK                            x       y       z     vdW  Elec       q    Type
REMARK                         _______ _______ _______ _____ _____    ______ ____
ROOT
ATOM      1  C   UNL     1       6.240   5.068  17.744  0.00  0.00    +0.000 C 
ATOM      2  C   UNL     1       5.473   3.882  17.138  0.00  0.00    +0.000 C 
ATOM      3  C   UNL     1       4.363   3.354  18.035  0.00  0.00    +0.000 C 
ATOM      4  C   UNL     1       3.467   4.475  18.582  0.00  0.00    +0.000 C 
ATOM      5  C   UNL     1       4.307   5.664  19.111  0.00  0.00    +0.000 C 
ATOM      6  O   UNL     1       5.332   6.079  18.197  0.00  0.00    +0.000 OA
ENDROOT
BRANCH   4   7
ATOM      7  N   UNL     1       2.613   3.921  19.644  0.00  0.00    +0.000 N 
ATOM      8  C   UNL     1       1.428   3.279  19.391  0.00  0.00    +0.000 C 
ATOM      9  C   UNL     1       0.698   2.799  20.615  0.00  0.00    +0.000 C 
ATOM     10  O   UNL     1       0.951   3.151  18.268  0.00  0.00    +0.000 OA
ATOM     11  H   UNL     1       3.067   3.783  20.542  0.00  0.00    +0.000 HD
ENDBRANCH   4   7
BRANCH   1  12
ATOM     12  C   UNL     1       7.067   5.718  16.569  0.00  0.00    +0.000 C 
ATOM     13  O   UNL     1       7.297   6.920  16.466  0.00  0.00    +0.000 OA
BRANCH  12  15
ATOM     14  C   UNL     1       7.147   5.003  14.346  0.00  0.00    +0.000 C 
ATOM     15  O   UNL     1       7.531   4.770  15.705  0.00  0.00    +0.000 OA
ENDBRANCH  12  15
ENDBRANCH   1  12
BRANCH   1  16
ATOM     16  O   UNL     1       7.041   4.579  18.824  0.00  0.00    +0.000 OA
ATOM     17  C   UNL     1       7.830   5.598  19.442  0.00  0.00    +0.000 C 
ENDBRANCH   1  16
BRANCH   3  18
ATOM     18  O   UNL     1       4.873   2.581  19.136  0.00  0.00    +0.000 OA
ATOM     19  H   UNL     1       5.833   2.731  19.211  0.00  0.00    +0.000 HD
ENDBRANCH   3  18
BRANCH   5  20
ATOM     20  C   UNL     1       3.390   6.898  19.342  0.00  0.00    +0.000 C 
BRANCH  20  21
ATOM     21  O   UNL     1       2.410   6.558  20.342  0.00  0.00    +0.000 OA
ATOM     22  H   UNL     1       1.587   6.350  19.855  0.00  0.00    +0.000 HD
ENDBRANCH  20  21
BRANCH  20  23
ATOM     23  C   UNL     1       2.604   7.407  18.115  0.00  0.00    +0.000 C 
BRANCH  23  24
ATOM     24  O   UNL     1       3.466   7.605  16.982  0.00  0.00    +0.000 OA
ATOM     25  H   UNL     1       3.594   6.740  16.545  0.00  0.00    +0.000 HD
ENDBRANCH  23  24
BRANCH  23  26
ATOM     26  C   UNL     1       1.799   8.682  18.382  0.00  0.00    +0.000 C 
BRANCH  26  27
ATOM     27  O   UNL     1       1.966   9.639  17.334  0.00  0.00    +0.000 OA
ATOM     28  H   UNL     1       1.938  10.530  17.731  0.00  0.00    +0.000 HD
ENDBRANCH  26  27
ENDBRANCH  23  26
ENDBRANCH  20  23
ENDBRANCH   5  20
TORSDOF 11
ENDMDL
MODEL 2
REMARK VINA RESULT:      -6.4      1.325      1.851
REMARK  Name = 
REMARK  14 active torsions:
REMARK  status: ('A' for Active; 'I' for Inactive)
REMARK    1  A    between atoms: C_1  and  O_2
REMARK    2  A    between atoms: O_2  and  C_3
REMARK    3  A    between atoms: C_3  and  C_5
REMARK    4  A    between atoms: C_5  and  O_6
REMARK    5  A    between atoms: O_6  and  C_7
REMARK    6  A    between atoms: C_9  and  O_10
REMARK    7  A    between atoms: C_11  and  N_12
REMARK    8  A    between atoms: C_13  and  C_14
REMARK    9  A    between atoms: C_16  and  C_17
REMARK   10  A    between atoms: C_17  and  O_18
REMARK   11  A    between atoms: C_17  and  C_19
REMARK   12  A    between atoms: C_19  and  O_20
REMARK   13  A    between atoms: C_19  and  C_21
REMARK   14  A    between atoms: C_21  and  O_22
REMARK                            x       y       z     vdW  Elec       q    Type
REMARK                         _______ _______ _______ _____ _____    ______ ____
ROOT
ATOM      1  C   UNL     1       5.444   5.172  17.006  0.00  0.00    +0.000 C 
ATOM      2  C   UNL     1       4.987   3.707  16.934  0.00  0.00    +0.000 C 
ATOM      3  C   UNL     1       4.245   3.241  18.179  0.00  0.00    +0.000 C 
ATOM      4  C   UNL     1       3.150   4.225  18.614  0.00  0.00    +0.000 C 
ATOM      5  C   UNL     1       3.663   5.688  18.595  0.00  0.00    +0.000 C 
ATOM      6  O   UNL     1       4.356   6.024  17.385  0.00  0.00    +0.000 OA
ENDROOT
BRANCH   4   7
ATOM      7  N   UNL     1       2.683   3.850  19.957  0.00  0.00    +0.000 N 
ATOM      8  C   UNL     1       1.650   2.975  20.172  0.00  0.00    +0.000 C 
ATOM      9  C   UNL     1       1.318   2.734  21.619  0.00  0.00    +0.000 C 
ATOM     10  O   UNL     1       0.993   2.466  19.270  0.00  0.00    +0.000 OA
ATOM     11  H   UNL     1       3.333   4.042  20.715  0.00  0.00    +0.000 HD
ENDBRANCH   4   7
BRANCH   1  12
ATOM     12  C   UNL     1       5.838   5.594  15.539  0.00  0.00    +0.000 C 
ATOM     13  O   UNL     1       5.375   6.567  14.949  0.00  0.00    +0.000 OA
BRANCH  12  15
ATOM     14  C   UNL     1       6.436   4.213  13.751  0.00  0.00    +0.000 C 
ATOM     15  O   UNL     1       6.790   4.765  15.023  0.00  0.00    +0.000 OA
ENDBRANCH  12  15
ENDBRANCH   1  12
BRANCH   1  16
ATOM     16  O   UNL     1       6.515   5.263  17.949  0.00  0.00    +0.000 OA
ATOM     17  C   UNL     1       7.210   6.510  17.891  0.00  0.00    +0.000 C 
ENDBRANCH   1  16
BRANCH   3  18
ATOM     18  O   UNL     1       5.133   3.006  19.287  0.00  0.00    +0.000 OA
ATOM     19  H   UNL     1       4.989   2.104  19.624  0.00  0.00    +0.000 HD
ENDBRANCH   3  18
BRANCH   5  20
ATOM     20  C   UNL     1       2.463   6.670  18.709  0.00  0.00    +0.000 C 
BRANCH  20  21
ATOM     21  O   UNL     1       2.651   7.733  17.755  0.00  0.00    +0.000 OA
ATOM     22  H   UNL     1       3.618   7.867  17.685  0.00  0.00    +0.000 HD
ENDBRANCH  20  21
BRANCH  20  23
ATOM     23  C   UNL     1       2.258   7.344  20.082  0.00  0.00    +0.000 C 
BRANCH  23  24
ATOM     24  O   UNL     1       1.742   6.419  21.052  0.00  0.00    +0.000 OA
ATOM     25  H   UNL     1       1.243   6.930  21.721  0.00  0.00    +0.000 HD
ENDBRANCH  23  24
BRANCH  23  26
ATOM     26  C   UNL     1       1.371   8.591  20.032  0.00  0.00    +0.000 C 
BRANCH  26  27
ATOM     27  O   UNL     1       1.080   9.083  21.342  0.00  0.00    +0.000 OA
ATOM     28  H   UNL     1       1.830   8.858  21.923  0.00  0.00    +0.000 HD
ENDBRANCH  26  27
ENDBRANCH  23  26
ENDBRANCH  20  23
ENDBRANCH   5  20
TORSDOF 11
ENDMDL
MODEL 3
REMARK VINA RESULT:      -6.3      1.074      1.576
REMARK  Name = 
REMARK  14 active torsions:
REMARK  status: ('A' for Active; 'I' for Inactive)
REMARK    1  A    between atoms: C_1  and  O_2
REMARK    2  A    between atoms: O_2  and  C_3
REMARK    3  A    between atoms: C_3  and  C_5
REMARK    4  A    between atoms: C_5  and  O_6
REMARK    5  A    between atoms: O_6  and  C_7
REMARK    6  A    between atoms: C_9  and  O_10
REMARK    7  A    between atoms: C_11  and  N_12
REMARK    8  A    between atoms: C_13  and  C_14
REMARK    9  A    between atoms: C_16  and  C_17
REMARK   10  A    between atoms: C_17  and  O_18
REMARK   11  A    between atoms: C_17  and  C_19
REMARK   12  A    between atoms: C_19  and  O_20
REMARK   13  A    between atoms: C_19  and  C_21
REMARK   14  A    between atoms: C_21  and  O_22
REMARK                            x       y       z     vdW  Elec       q    Type
REMARK                         _______ _______ _______ _____ _____    ______ ____
ROOT
ATOM      1  C   UNL     1       6.145   5.488  17.657  0.00  0.00    +0.000 C 
ATOM      2  C   UNL     1       5.429   4.546  16.676  0.00  0.00    +0.000 C 
ATOM      3  C   UNL     1       4.303   3.746  17.315  0.00  0.00    +0.000 C 
ATOM      4  C   UNL     1       3.360   4.625  18.151  0.00  0.00    +0.000 C 
ATOM      5  C   UNL     1       4.152   5.596  19.063  0.00  0.00    +0.000 C 
ATOM      6  O   UNL     1       5.197   6.292  18.370  0.00  0.00    +0.000 OA
ENDROOT
BRANCH   4   7
ATOM      7  N   UNL     1       2.485   3.752  18.949  0.00  0.00    +0.000 N 
ATOM      8  C   UNL     1       1.231   3.378  18.540  0.00  0.00    +0.000 C 
ATOM      9  C   UNL     1       0.491   2.493  19.505  0.00  0.00    +0.000 C 
ATOM     10  O   UNL     1       0.709   3.773  17.502  0.00  0.00    +0.000 OA
ATOM     11  H   UNL     1       2.948   3.213  19.674  0.00  0.00    +0.000 HD
ENDBRANCH   4   7
BRANCH   1  12
ATOM     12  C   UNL     1       6.995   6.488  16.783  0.00  0.00    +0.000 C 
ATOM     13  O   UNL     1       7.749   6.146  15.876  0.00  0.00    +0.000 OA
BRANCH  12  15
ATOM     14  C   UNL     1       7.912   8.467  17.620  0.00  0.00    +0.000 C 
ATOM     15  O   UNL     1       6.753   7.783  17.133  0.00  0.00    +0.000 OA
ENDBRANCH  12  15
ENDBRANCH   1  12
BRANCH   1  16
ATOM     16  O   UNL     1       6.920   4.693  18.558  0.00  0.00    +0.000 OA
ATOM     17  C   UNL     1       7.778   5.470  19.397  0.00  0.00    +0.000 C 
ENDBRANCH   1  16
BRANCH   3  18
ATOM     18  O   UNL     1       4.794   2.671  18.135  0.00  0.00    +0.000 OA
ATOM     19  H   UNL     1       4.516   1.822  17.744  0.00  0.00    +0.000 HD
ENDBRANCH   3  18
BRANCH   5  20
ATOM     20  C   UNL     1       3.197   6.681  19.635  0.00  0.00    +0.000 C 
BRANCH  20  21
ATOM     21  O   UNL     1       2.268   6.044  20.533  0.00  0.00    +0.000 OA
ATOM     22  H   UNL     1       2.272   5.094  20.299  0.00  0.00    +0.000 HD
ENDBRANCH  20  21
BRANCH  20  23
ATOM     23  C   UNL     1       2.349   7.458  18.607  0.00  0.00    +0.000 C 
BRANCH  23  24
ATOM     24  O   UNL     1       3.109   7.777  17.430  0.00  0.00    +0.000 OA
ATOM     25  H   UNL     1       3.540   8.643  17.574  0.00  0.00    +0.000 HD
ENDBRANCH  23  24
BRANCH  23  26
ATOM     26  C   UNL     1       1.707   8.730  19.169  0.00  0.00    +0.000 C 
BRANCH  26  27
ATOM     27  O   UNL     1       1.187   8.519  20.484  0.00  0.00    +0.000 OA
ATOM     28  H   UNL     1       1.569   9.198  21.072  0.00  0.00    +0.000 HD
ENDBRANCH  26  27
ENDBRANCH  23  26
ENDBRANCH  20  23
ENDBRANCH   5  20
TORSDOF 11
ENDMDL
MODEL 4
REMARK VINA RESULT:      -6.2      1.187      1.944
REMARK  Name = 
REMARK  14 active torsions:
REMARK  status: ('A' for Active; 'I' for Inactive)
REMARK    1  A    between atoms: C_1  and  O_2
REMARK    2  A    between atoms: O_2  and  C_3
REMARK    3  A    between atoms: C_3  and  C_5
REMARK    4  A    between atoms: C_5  and  O_6
REMARK    5  A    between atoms: O_6  and  C_7
REMARK    6  A    between atoms: C_9  and  O_10
REMARK    7  A    between atoms: C_11  and  N_12
REMARK    8  A    between atoms: C_13  and  C_14
REMARK    9  A    between atoms: C_16  and  C_17
REMARK   10  A    between atoms: C_17  and  O_18
REMARK   11  A    between atoms: C_17  and  C_19
REMARK   12  A    between atoms: C_19  and  O_20
REMARK   13  A    between atoms: C_19  and  C_21
REMARK   14  A    between atoms: C_21  and  O_22
REMARK                            x       y       z     vdW  Elec       q    Type
REMARK                         _______ _______ _______ _____ _____    ______ ____
ROOT
ATOM      1  C   UNL     1       6.157   5.930  17.943  0.00  0.00    +0.000 C 
ATOM      2  C   UNL     1       5.880   4.533  17.366  0.00  0.00    +0.000 C 
ATOM      3  C   UNL     1       4.763   3.791  18.085  0.00  0.00    +0.000 C 
ATOM      4  C   UNL     1       3.509   4.658  18.274  0.00  0.00    +0.000 C 
ATOM      5  C   UNL     1       3.872   6.073  18.790  0.00  0.00    +0.000 C 
ATOM      6  O   UNL     1       4.942   6.682  18.055  0.00  0.00    +0.000 OA
ENDROOT
BRANCH   4   7
ATOM      7  N   UNL     1       2.600   3.976  19.208  0.00  0.00    +0.000 N 
ATOM      8  C   UNL     1       1.404   3.428  18.820  0.00  0.00    +0.000 C 
ATOM      9  C   UNL     1       0.615   2.787  19.929  0.00  0.00    +0.000 C 
ATOM     10  O   UNL     1       0.964   3.499  17.678  0.00  0.00    +0.000 OA
ATOM     11  H   UNL     1       3.017   3.679  20.086  0.00  0.00    +0.000 HD
ENDBRANCH   4   7
BRANCH   1  12
ATOM     12  C   UNL     1       7.043   6.688  16.881  0.00  0.00    +0.000 C 
ATOM     13  O   UNL     1       7.679   6.135  15.987  0.00  0.00    +0.000 OA
BRANCH  12  15
ATOM     14  C   UNL     1       8.077   8.571  17.801  0.00  0.00    +0.000 C 
ATOM     15  O   UNL     1       6.978   8.039  17.054  0.00  0.00    +0.000 OA
ENDBRANCH  12  15
ENDBRANCH   1  12
BRANCH   1  16
ATOM     16  O   UNL     1       6.781   5.773  19.220  0.00  0.00    +0.000 OA
ATOM     17  C   UNL     1       8.117   5.275  19.135  0.00  0.00    +0.000 C 
ENDBRANCH   1  16
BRANCH   3  18
ATOM     18  O   UNL     1       5.180   3.282  19.364  0.00  0.00    +0.000 OA
ATOM     19  H   UNL     1       4.478   2.710  19.723  0.00  0.00    +0.000 HD
ENDBRANCH   3  18
BRANCH   5  20
ATOM     20  C   UNL     1       2.644   7.016  18.654  0.00  0.00    +0.000 C 
BRANCH  20  21
ATOM     21  O   UNL     1       3.005   8.113  17.791  0.00  0.00    +0.000 OA
ATOM     22  H   UNL     1       3.072   7.738  16.890  0.00  0.00    +0.000 HD
ENDBRANCH  20  21
BRANCH  20  23
ATOM     23  C   UNL     1       2.112   7.643  19.959  0.00  0.00    +0.000 C 
BRANCH  23  24
ATOM     24  O   UNL     1       1.704   6.636  20.899  0.00  0.00    +0.000 OA
ATOM     25  H   UNL     1       1.539   5.809  20.403  0.00  0.00    +0.000 HD
ENDBRANCH  23  24
BRANCH  23  26
ATOM     26  C   UNL     1       0.974   8.644  19.745  0.00  0.00    +0.000 C 
BRANCH  26  27
ATOM     27  O   UNL     1       1.445   9.859  19.156  0.00  0.00    +0.000 OA
ATOM     28  H   UNL     1       0.984  10.602  19.587  0.00  0.00    +0.000 HD
ENDBRANCH  26  27
ENDBRANCH  23  26
ENDBRANCH  20  23
ENDBRANCH   5  20
TORSDOF 11
ENDMDL
MODEL 5
REMARK VINA RESULT:      -6.1      1.015      1.117
REMARK  Name = 
REMARK  14 active torsions:
REMARK  status: ('A' for Active; 'I' for Inactive)
REMARK    1  A    between atoms: C_1  and  O_2
REMARK    2  A    between atoms: O_2  and  C_3
REMARK    3  A    between atoms: C_3  and  C_5
REMARK    4  A    between atoms: C_5  and  O_6
REMARK    5  A    between atoms: O_6  and  C_7
REMARK    6  A    between atoms: C_9  and  O_10
REMARK    7  A    between atoms: C_11  and  N_12
REMARK    8  A    between atoms: C_13  and  C_14
REMARK    9  A    between atoms: C_16  and  C_17
REMARK   10  A    between atoms: C_17  and  O_18
REMARK   11  A    between atoms: C_17  and  C_19
REMARK   12  A    between atoms: C_19  and  O_20
REMARK   13  A    between atoms: C_19  and  C_21
REMARK   14  A    between atoms: C_21  and  O_22
REMARK                            x       y       z     vdW  Elec       q    Type
REMARK                         _______ _______ _______ _____ _____    ______ ____
ROOT
ATOM      1  C   UNL     1       5.680   4.818  17.510  0.00  0.00    +0.000 C 
ATOM      2  C   UNL     1       4.943   3.503  17.214  0.00  0.00    +0.000 C 
ATOM      3  C   UNL     1       4.177   2.954  18.409  0.00  0.00    +0.000 C 
ATOM      4  C   UNL     1       3.314   4.023  19.095  0.00  0.00    +0.000 C 
ATOM      5  C   UNL     1       4.102   5.342  19.297  0.00  0.00    +0.000 C 
ATOM      6  O   UNL     1       4.796   5.769  18.117  0.00  0.00    +0.000 OA
ENDROOT
BRANCH   4   7
ATOM      7  N   UNL     1       2.840   3.492  20.383  0.00  0.00    +0.000 N 
ATOM      8  C   UNL     1       1.604   2.920  20.544  0.00  0.00    +0.000 C 
ATOM      9  C   UNL     1       1.305   2.452  21.942  0.00  0.00    +0.000 C 
ATOM     10  O   UNL     1       0.769   2.842  19.650  0.00  0.00    +0.000 OA
ATOM     11  H   UNL     1       3.562   3.311  21.073  0.00  0.00    +0.000 HD
ENDBRANCH   4   7
BRANCH   1  12
ATOM     12  C   UNL     1       6.087   5.430  16.115  0.00  0.00    +0.000 C 
ATOM     13  O   UNL     1       5.718   6.527  15.705  0.00  0.00    +0.000 OA
BRANCH  12  15
ATOM     14  C   UNL     1       6.625   4.480  14.049  0.00  0.00    +0.000 C 
ATOM     15  O   UNL     1       6.937   4.605  15.440  0.00  0.00    +0.000 OA
ENDBRANCH  12  15
ENDBRANCH   1  12
BRANCH   1  16
ATOM     16  O   UNL     1       6.787   4.529  18.368  0.00  0.00    +0.000 OA
ATOM     17  C   UNL     1       7.588   5.677  18.657  0.00  0.00    +0.000 C 
ENDBRANCH   1  16
BRANCH   3  18
ATOM     18  O   UNL     1       5.047   2.354  19.385  0.00  0.00    +0.000 OA
ATOM     19  H   UNL     1       5.849   2.901  19.475  0.00  0.00    +0.000 HD
ENDBRANCH   3  18
BRANCH   5  20
ATOM     20  C   UNL     1       3.123   6.489  19.678  0.00  0.00    +0.000 C 
BRANCH  20  21
ATOM     21  O   UNL     1       2.416   6.108  20.874  0.00  0.00    +0.000 OA
ATOM     22  H   UNL     1       1.465   6.214  20.671  0.00  0.00    +0.000 HD
ENDBRANCH  20  21
BRANCH  20  23
ATOM     23  C   UNL     1       2.049   6.849  18.630  0.00  0.00    +0.000 C 
BRANCH  23  24
ATOM     24  O   UNL     1       1.887   5.802  17.660  0.00  0.00    +0.000 OA
ATOM     25  H   UNL     1       0.933   5.594  17.597  0.00  0.00    +0.000 HD
ENDBRANCH  23  24
BRANCH  23  26
ATOM     26  C   UNL     1       2.304   8.181  17.917  0.00  0.00    +0.000 C 
BRANCH  26  27
ATOM     27  O   UNL     1       3.411   8.093  17.018  0.00  0.00    +0.000 OA
ATOM     28  H   UNL     1       3.950   8.900  17.123  0.00  0.00    +0.000 HD
ENDBRANCH  26  27
ENDBRANCH  23  26
ENDBRANCH  20  23
ENDBRANCH   5  20
TORSDOF 11
ENDMDL
MODEL 6
REMARK VINA RESULT:      -6.0      1.241      1.271
REMARK  Name = 
REMARK  14 active torsions:
REMARK  status: ('A' for Active; 'I' for Inactive)
REMARK    1  A    between atoms: C_1  and  O_2
REMARK    2  A    between atoms: O_2  and  C_3
REMARK    3  A    between atoms: C_3  and  C_5
REMARK    4  A    between atoms: C_5  and  O_6
REMARK    5  A    between atoms: O_6  and  C_7
REMARK    6  A    between atoms: C_9  and  O_10
REMARK    7  A    between atoms: C_11  and  N_12
REMARK    8  A    between atoms: C_13  and  C_14
REMARK    9  A    between atoms: C_16  and  C_17
REMARK   10  A    between atoms: C_17  and  O_18
REMARK   11  A    between atoms: C_17  and  C_19
REMARK   12  A    between atoms: C_19  and  O_20
REMARK   13  A    between atoms: C_19  and  C_21
REMARK   14  A    between atoms: C_21  and  O_22
REMARK                            x       y       z     vdW  Elec       q    Type
REMARK                         _______ _______ _______ _____ _____    ______ ____
ROOT
ATOM      1  C   UNL     1       5.539   4.812  16.872  0.00  0.00    +0.000 C 
ATOM      2  C   UNL     1       5.076   3.347  16.855  0.00  0.00    +0.000 C 
ATOM      3  C   UNL     1       4.349   2.925  18.124  0.00  0.00    +0.000 C 
ATOM      4  C   UNL     1       3.262   3.927  18.539  0.00  0.00    +0.000 C 
ATOM      5  C   UNL     1       3.779   5.386  18.465  0.00  0.00    +0.000 C 
ATOM      6  O   UNL     1       4.458   5.680  17.236  0.00  0.00    +0.000 OA
ENDROOT
BRANCH   4   7
ATOM      7  N   UNL     1       2.811   3.599  19.900  0.00  0.00    +0.000 N 
ATOM      8  C   UNL     1       1.587   3.042  20.167  0.00  0.00    +0.000 C 
ATOM      9  C   UNL     1       1.312   2.795  21.625  0.00  0.00    +0.000 C 
ATOM     10  O   UNL     1       0.743   2.813  19.308  0.00  0.00    +0.000 OA
ATOM     11  H   UNL     1       3.545   3.537  20.601  0.00  0.00    +0.000 HD
ENDBRANCH   4   7
BRANCH   1  12
ATOM     12  C   UNL     1       5.915   5.183  15.387  0.00  0.00    +0.000 C 
ATOM     13  O   UNL     1       5.585   6.225  14.827  0.00  0.00    +0.000 OA
BRANCH  12  15
ATOM     14  C   UNL     1       6.310   3.900  13.475  0.00  0.00    +0.000 C 
ATOM     15  O   UNL     1       6.692   4.219  14.817  0.00  0.00    +0.000 OA
ENDBRANCH  12  15
ENDBRANCH   1  12
BRANCH   1  16
ATOM     16  O   UNL     1       6.622   4.930  17.799  0.00  0.00    +0.000 OA
ATOM     17  C   UNL     1       7.260   6.208  17.755  0.00  0.00    +0.000 C 
ENDBRANCH   1  16
BRANCH   3  18
ATOM     18  O   UNL     1       5.250   2.724  19.228  0.00  0.00    +0.000 OA
ATOM     19  H   UNL     1       5.378   1.768  19.364  0.00  0.00    +0.000 HD
ENDBRANCH   3  18
BRANCH   5  20
ATOM     20  C   UNL     1       2.584   6.376  18.562  0.00  0.00    +0.000 C 
BRANCH  20  21
ATOM     21  O   UNL     1       1.399   5.709  18.084  0.00  0.00    +0.000 OA
ATOM     22  H   UNL     1       1.492   4.771  18.346  0.00  0.00    +0.000 HD
ENDBRANCH  20  21
BRANCH  20  23
ATOM     23  C   UNL     1       2.709   7.682  17.750  0.00  0.00    +0.000 C 
BRANCH  23  24
ATOM     24  O   UNL     1       4.059   8.173  17.744  0.00  0.00    +0.000 OA
ATOM     25  H   UNL     1       4.447   7.977  16.868  0.00  0.00    +0.000 HD
ENDBRANCH  23  24
BRANCH  23  26
ATOM     26  C   UNL     1       1.758   8.790  18.213  0.00  0.00    +0.000 C 
BRANCH  26  27
ATOM     27  O   UNL     1       1.875   9.958  17.397  0.00  0.00    +0.000 OA
ATOM     28  H   UNL     1       2.783   9.989  17.042  0.00  0.00    +0.000 HD
ENDBRANCH  26  27
ENDBRANCH  23  26
ENDBRANCH  20  23
ENDBRANCH   5  20
TORSDOF 11
ENDMDL
MODEL 7
REMARK VINA RESULT:      -6.0      0.883      1.491
REMARK  Name = 
REMARK  14 active torsions:
REMARK  status: ('A' for Active; 'I' for Inactive)
REMARK    1  A    between atoms: C_1  and  O_2
REMARK    2  A    between atoms: O_2  and  C_3
REMARK    3  A    between atoms: C_3  and  C_5
REMARK    4  A    between atoms: C_5  and  O_6
REMARK    5  A    between atoms: O_6  and  C_7
REMARK    6  A    between atoms: C_9  and  O_10
REMARK    7  A    between atoms: C_11  and  N_12
REMARK    8  A    between atoms: C_13  and  C_14
REMARK    9  A    between atoms: C_16  and  C_17
REMARK   10  A    between atoms: C_17  and  O_18
REMARK   11  A    between atoms: C_17  and  C_19
REMARK   12  A    between atoms: C_19  and  O_20
REMARK   13  A    between atoms: C_19  and  C_21
REMARK   14  A    between atoms: C_21  and  O_22
REMARK                            x       y       z     vdW  Elec       q    Type
REMARK                         _______ _______ _______ _____ _____    ______ ____
ROOT
ATOM      1  C   UNL     1       6.150   5.320  17.879  0.00  0.00    +0.000 C 
ATOM      2  C   UNL     1       5.700   3.917  17.443  0.00  0.00    +0.000 C 
ATOM      3  C   UNL     1       4.552   3.362  18.273  0.00  0.00    +0.000 C 
ATOM      4  C   UNL     1       3.406   4.372  18.440  0.00  0.00    +0.000 C 
ATOM      5  C   UNL     1       3.941   5.778  18.811  0.00  0.00    +0.000 C 
ATOM      6  O   UNL     1       5.027   6.204  17.977  0.00  0.00    +0.000 OA
ENDROOT
BRANCH   4   7
ATOM      7  N   UNL     1       2.482   3.872  19.470  0.00  0.00    +0.000 N 
ATOM      8  C   UNL     1       1.304   3.237  19.172  0.00  0.00    +0.000 C 
ATOM      9  C   UNL     1       0.496   2.815  20.368  0.00  0.00    +0.000 C 
ATOM     10  O   UNL     1       0.892   3.071  18.028  0.00  0.00    +0.000 OA
ATOM     11  H   UNL     1       2.880   3.764  20.398  0.00  0.00    +0.000 HD
ENDBRANCH   4   7
BRANCH   1  12
ATOM     12  C   UNL     1       7.052   5.886  16.716  0.00  0.00    +0.000 C 
ATOM     13  O   UNL     1       7.303   7.077  16.550  0.00  0.00    +0.000 OA
BRANCH  12  15
ATOM     14  C   UNL     1       7.134   4.952  14.576  0.00  0.00    +0.000 C 
ATOM     15  O   UNL     1       7.553   4.881  15.942  0.00  0.00    +0.000 OA
ENDBRANCH  12  15
ENDBRANCH   1  12
BRANCH   1  16
ATOM     16  O   UNL     1       6.821   5.205  19.137  0.00  0.00    +0.000 OA
ATOM     17  C   UNL     1       8.031   5.962  19.199  0.00  0.00    +0.000 C 
ENDBRANCH   1  16
BRANCH   3  18
ATOM     18  O   UNL     1       4.982   2.921  19.573  0.00  0.00    +0.000 OA
ATOM     19  H   UNL     1       5.061   3.694  20.161  0.00  0.00    +0.000 HD
ENDBRANCH   3  18
BRANCH   5  20
ATOM     20  C   UNL     1       2.811   6.833  18.644  0.00  0.00    +0.000 C 
BRANCH  20  21
ATOM     21  O   UNL     1       3.297   7.893  17.797  0.00  0.00    +0.000 OA
ATOM     22  H   UNL     1       3.369   8.684  18.368  0.00  0.00    +0.000 HD
ENDBRANCH  20  21
BRANCH  20  23
ATOM     23  C   UNL     1       2.304   7.505  19.938  0.00  0.00    +0.000 C 
BRANCH  23  24
ATOM     24  O   UNL     1       1.669   6.556  20.810  0.00  0.00    +0.000 OA
ATOM     25  H   UNL     1       1.501   5.740  20.298  0.00  0.00    +0.000 HD
ENDBRANCH  23  24
BRANCH  23  26
ATOM     26  C   UNL     1       1.368   8.691  19.693  0.00  0.00    +0.000 C 
BRANCH  26  27
ATOM     27  O   UNL     1       0.652   9.050  20.877  0.00  0.00    +0.000 OA
ATOM     28  H   UNL     1      -0.290   9.144  20.643  0.00  0.00    +0.000 HD
ENDBRANCH  26  27
ENDBRANCH  23  26
ENDBRANCH  20  23
ENDBRANCH   5  20
TORSDOF 11
ENDMDL
MODEL 8
REMARK VINA RESULT:      -5.8      2.139      5.899
REMARK  Name = 
REMARK  14 active torsions:
REMARK  status: ('A' for Active; 'I' for Inactive)
REMARK    1  A    between atoms: C_1  and  O_2
REMARK    2  A    between atoms: O_2  and  C_3
REMARK    3  A    between atoms: C_3  and  C_5
REMARK    4  A    between atoms: C_5  and  O_6
REMARK    5  A    between atoms: O_6  and  C_7
REMARK    6  A    between atoms: C_9  and  O_10
REMARK    7  A    between atoms: C_11  and  N_12
REMARK    8  A    between atoms: C_13  and  C_14
REMARK    9  A    between atoms: C_16  and  C_17
REMARK   10  A    between atoms: C_17  and  O_18
REMARK   11  A    between atoms: C_17  and  C_19
REMARK   12  A    between atoms: C_19  and  O_20
REMARK   13  A    between atoms: C_19  and  C_21
REMARK   14  A    between atoms: C_21  and  O_22
REMARK                            x       y       z     vdW  Elec       q    Type
REMARK                         _______ _______ _______ _____ _____    ______ ____
ROOT
ATOM      1  C   UNL     1       3.497   3.902  18.005  0.00  0.00    +0.000 C 
ATOM      2  C   UNL     1       2.847   5.259  17.695  0.00  0.00    +0.000 C 
ATOM      3  C   UNL     1       3.852   6.394  17.548  0.00  0.00    +0.000 C 
ATOM      4  C   UNL     1       5.022   6.026  16.624  0.00  0.00    +0.000 C 
ATOM      5  C   UNL     1       5.580   4.617  16.950  0.00  0.00    +0.000 C 
ATOM      6  O   UNL     1       4.554   3.623  17.078  0.00  0.00    +0.000 OA
ENDROOT
BRANCH   4   7
ATOM      7  N   UNL     1       6.070   7.050  16.759  0.00  0.00    +0.000 N 
ATOM      8  C   UNL     1       7.030   7.012  17.737  0.00  0.00    +0.000 C 
ATOM      9  C   UNL     1       8.002   8.159  17.711  0.00  0.00    +0.000 C 
ATOM     10  O   UNL     1       7.074   6.154  18.612  0.00  0.00    +0.000 OA
ATOM     11  H   UNL     1       6.225   7.626  15.937  0.00  0.00    +0.000 HD
ENDBRANCH   4   7
BRANCH   1  12
ATOM     12  C   UNL     1       2.393   2.806  17.751  0.00  0.00    +0.000 C 
ATOM     13  O   UNL     1       2.624   1.670  17.343  0.00  0.00    +0.000 OA
BRANCH  12  15
ATOM     14  C   UNL     1       0.677   2.764  19.336  0.00  0.00    +0.000 C 
ATOM     15  O   UNL     1       1.153   3.264  18.082  0.00  0.00    +0.000 OA
ENDBRANCH  12  15
ENDBRANCH   1  12
BRANCH   1  16
ATOM     16  O   UNL     1       3.991   3.937  19.347  0.00  0.00    +0.000 OA
ATOM     17  C   UNL     1       4.411   2.657  19.823  0.00  0.00    +0.000 C 
ENDBRANCH   1  16
BRANCH   3  18
ATOM     18  O   UNL     1       4.373   6.829  18.816  0.00  0.00    +0.000 OA
ATOM     19  H   UNL     1       5.249   7.231  18.679  0.00  0.00    +0.000 HD
ENDBRANCH   3  18
BRANCH   5  20
ATOM     20  C   UNL     1       6.519   4.143  15.806  0.00  0.00    +0.000 C 
BRANCH  20  21
ATOM     21  O   UNL     1       7.864   4.554  16.120  0.00  0.00    +0.000 OA
ATOM     22  H   UNL     1       8.414   3.747  16.062  0.00  0.00    +0.000 HD
ENDBRANCH  20  21
BRANCH  20  23
ATOM     23  C   UNL     1       6.212   4.690  14.396  0.00  0.00    +0.000 C 
BRANCH  23  24
ATOM     24  O   UNL     1       5.077   4.032  13.811  0.00  0.00    +0.000 OA
ATOM     25  H   UNL     1       4.286   4.578  13.992  0.00  0.00    +0.000 HD
ENDBRANCH  23  24
BRANCH  23  26
ATOM     26  C   UNL     1       7.402   4.622  13.434  0.00  0.00    +0.000 C 
BRANCH  26  27
ATOM     27  O   UNL     1       8.253   5.763  13.569  0.00  0.00    +0.000 OA
ATOM     28  H   UNL     1       8.280   6.010  14.513  0.00  0.00    +0.000 HD
ENDBRANCH  26  27
ENDBRANCH  23  26
ENDBRANCH  20  23
ENDBRANCH   5  20
TORSDOF 11
ENDMDL
MODEL 9
REMARK VINA RESULT:      -5.8      1.158      1.539
REMARK  Name = 
REMARK  14 active torsions:
REMARK  status: ('A' for Active; 'I' for Inactive)
REMARK    1  A    between atoms: C_1  and  O_2
REMARK    2  A    between atoms: O_2  and  C_3
REMARK    3  A    between atoms: C_3  and  C_5
REMARK    4  A    between atoms: C_5  and  O_6
REMARK    5  A    between atoms: O_6  and  C_7
REMARK    6  A    between atoms: C_9  and  O_10
REMARK    7  A    between atoms: C_11  and  N_12
REMARK    8  A    between atoms: C_13  and  C_14
REMARK    9  A    between atoms: C_16  and  C_17
REMARK   10  A    between atoms: C_17  and  O_18
REMARK   11  A    between atoms: C_17  and  C_19
REMARK   12  A    between atoms: C_19  and  O_20
REMARK   13  A    between atoms: C_19  and  C_21
REMARK   14  A    between atoms: C_21  and  O_22
REMARK                            x       y       z     vdW  Elec       q    Type
REMARK                         _______ _______ _______ _____ _____    ______ ____
ROOT
ATOM      1  C   UNL     1       5.855   5.422  17.600  0.00  0.00    +0.000 C 
ATOM      2  C   UNL     1       5.143   4.475  16.621  0.00  0.00    +0.000 C 
ATOM      3  C   UNL     1       3.889   3.834  17.199  0.00  0.00    +0.000 C 
ATOM      4  C   UNL     1       2.965   4.858  17.875  0.00  0.00    +0.000 C 
ATOM      5  C   UNL     1       3.761   5.822  18.791  0.00  0.00    +0.000 C 
ATOM      6  O   UNL     1       4.929   6.363  18.157  0.00  0.00    +0.000 OA
ENDROOT
BRANCH   4   7
ATOM      7  N   UNL     1       1.938   4.135  18.640  0.00  0.00    +0.000 N 
ATOM      8  C   UNL     1       2.153   3.649  19.904  0.00  0.00    +0.000 C 
ATOM      9  C   UNL     1       0.980   2.927  20.509  0.00  0.00    +0.000 C 
ATOM     10  O   UNL     1       3.228   3.729  20.489  0.00  0.00    +0.000 OA
ATOM     11  H   UNL     1       0.984   4.255  18.313  0.00  0.00    +0.000 HD
ENDBRANCH   4   7
BRANCH   1  12
ATOM     12  C   UNL     1       6.876   6.267  16.746  0.00  0.00    +0.000 C 
ATOM     13  O   UNL     1       7.674   5.788  15.945  0.00  0.00    +0.000 OA
BRANCH  12  15
ATOM     14  C   UNL     1       7.884   8.207  17.571  0.00  0.00    +0.000 C 
ATOM     15  O   UNL     1       6.730   7.603  16.978  0.00  0.00    +0.000 OA
ENDBRANCH  12  15
ENDBRANCH   1  12
BRANCH   1  16
ATOM     16  O   UNL     1       6.462   4.633  18.626  0.00  0.00    +0.000 OA
ATOM     17  C   UNL     1       7.310   5.392  19.490  0.00  0.00    +0.000 C 
ENDBRANCH   1  16
BRANCH   3  18
ATOM     18  O   UNL     1       4.195   2.786  18.136  0.00  0.00    +0.000 OA
ATOM     19  H   UNL     1       4.970   3.048  18.664  0.00  0.00    +0.000 HD
ENDBRANCH   3  18
BRANCH   5  20
ATOM     20  C   UNL     1       2.869   7.031  19.188  0.00  0.00    +0.000 C 
BRANCH  20  21
ATOM     21  O   UNL     1       1.808   6.556  20.039  0.00  0.00    +0.000 OA
ATOM     22  H   UNL     1       0.988   6.975  19.708  0.00  0.00    +0.000 HD
ENDBRANCH  20  21
BRANCH  20  23
ATOM     23  C   UNL     1       2.193   7.794  18.029  0.00  0.00    +0.000 C 
BRANCH  23  24
ATOM     24  O   UNL     1       3.103   8.012  16.939  0.00  0.00    +0.000 OA
ATOM     25  H   UNL     1       3.170   8.976  16.789  0.00  0.00    +0.000 HD
ENDBRANCH  23  24
BRANCH  23  26
ATOM     26  C   UNL     1       1.561   9.124  18.450  0.00  0.00    +0.000 C 
BRANCH  26  27
ATOM     27  O   UNL     1       1.796  10.148  17.481  0.00  0.00    +0.000 OA
ATOM     28  H   UNL     1       2.758  10.293  17.421  0.00  0.00    +0.000 HD
ENDBRANCH  26  27
ENDBRANCH  23  26
ENDBRANCH  20  23
ENDBRANCH   5  20
TORSDOF 11
ENDMDL
