MODEL 1
REMARK VINA RESULT:      -8.4      0.000      0.000
REMARK  Name = 
REMARK  5 active torsions:
REMARK  status: ('A' for Active; 'I' for Inactive)
REMARK    1  A    between atoms: C_1  and  C_2
REMARK    2  A    between atoms: C_5  and  C_6
REMARK    3  A    between atoms: N_9  and  C_10
REMARK    4  A    between atoms: C_10  and  C_11
REMARK    5  A    between atoms: C_16  and  C_17
REMARK                            x       y       z     vdW  Elec       q    Type
REMARK                         _______ _______ _______ _____ _____    ______ ____
ROOT
ATOM      1  C   UNL     1       6.283   4.778  14.165  0.00  0.00    +0.000 A 
ATOM      2  N   UNL     1       7.575   5.075  14.528  0.00  0.00    +0.000 NA
ATOM      3  N   UNL     1       7.506   5.712  15.690  0.00  0.00    +0.000 NA
ATOM      4  N   UNL     1       6.196   5.695  16.000  0.00  0.00    +0.000 N 
ATOM      5  N   UNL     1       5.372   5.286  15.016  0.00  0.00    +0.000 NA
ENDROOT
BRANCH   1  10
ATOM      6  C   UNL     1       6.641   1.055  10.969  0.00  0.00    +0.000 C 
ATOM      7  C   UNL     1       5.996   2.231  11.582  0.00  0.00    +0.000 A 
ATOM      8  C   UNL     1       4.738   2.778  11.472  0.00  0.00    +0.000 A 
ATOM      9  C   UNL     1       4.691   3.844  12.403  0.00  0.00    +0.000 A 
ATOM     10  C   UNL     1       5.925   3.892  13.024  0.00  0.00    +0.000 A 
ATOM     11  O   UNL     1       6.737   2.930  12.486  0.00  0.00    +0.000 OA
ENDBRANCH   1  10
BRANCH   4  12
ATOM     12  C   UNL     1       5.716   6.029  17.320  0.00  0.00    +0.000 C 
BRANCH  12  13
ATOM     13  C   UNL     1       5.679   4.800  18.213  0.00  0.00    +0.000 C 
ATOM     14  O   UNL     1       6.686   4.381  18.783  0.00  0.00    +0.000 OA
ATOM     15  N   UNL     1       4.451   4.154  18.359  0.00  0.00    +0.000 N 
ATOM     16  C   UNL     1       3.212   4.503  17.665  0.00  0.00    +0.000 C 
ATOM     17  C   UNL     1       2.035   4.561  18.638  0.00  0.00    +0.000 C 
ATOM     18  C   UNL     1       1.923   3.285  19.488  0.00  0.00    +0.000 C 
ATOM     19  C   UNL     1       0.824   3.430  20.539  0.00  0.00    +0.000 C 
ATOM     20  C   UNL     1       3.265   2.964  20.158  0.00  0.00    +0.000 C 
ATOM     21  C   UNL     1       4.398   2.917  19.137  0.00  0.00    +0.000 C 
ENDBRANCH  12  13
ENDBRANCH   4  12
TORSDOF 3
ENDMDL
MODEL 2
REMARK VINA RESULT:      -8.4      0.894      1.249
REMARK  Name = 
REMARK  5 active torsions:
REMARK  status: ('A' for Active; 'I' for Inactive)
REMARK    1  A    between atoms: C_1  and  C_2
REMARK    2  A    between atoms: C_5  and  C_6
REMARK    3  A    between atoms: N_9  and  C_10
REMARK    4  A    between atoms: C_10  and  C_11
REMARK    5  A    between atoms: C_16  and  C_17
REMARK                            x       y       z     vdW  Elec       q    Type
REMARK                         _______ _______ _______ _____ _____    ______ ____
ROOT
ATOM      1  C   UNL     1       6.284   5.120  14.731  0.00  0.00    +0.000 A 
ATOM      2  N   UNL     1       7.538   5.512  15.133  0.00  0.00    +0.000 NA
ATOM      3  N   UNL     1       7.391   6.101  16.313  0.00  0.00    +0.000 NA
ATOM      4  N   UNL     1       6.081   5.963  16.592  0.00  0.00    +0.000 N 
ATOM      5  N   UNL     1       5.315   5.520  15.576  0.00  0.00    +0.000 NA
ENDROOT
BRANCH   1  10
ATOM      6  C   UNL     1       3.787   2.993  11.063  0.00  0.00    +0.000 C 
ATOM      7  C   UNL     1       4.987   3.280  11.871  0.00  0.00    +0.000 A 
ATOM      8  C   UNL     1       6.328   3.031  11.686  0.00  0.00    +0.000 A 
ATOM      9  C   UNL     1       6.997   3.655  12.767  0.00  0.00    +0.000 A 
ATOM     10  C   UNL     1       6.026   4.245  13.555  0.00  0.00    +0.000 A 
ATOM     11  O   UNL     1       4.792   3.975  13.026  0.00  0.00    +0.000 OA
ENDBRANCH   1  10
BRANCH   4  12
ATOM     12  C   UNL     1       5.548   6.211  17.910  0.00  0.00    +0.000 C 
BRANCH  12  13
ATOM     13  C   UNL     1       5.606   4.956  18.766  0.00  0.00    +0.000 C 
ATOM     14  O   UNL     1       6.625   4.630  19.373  0.00  0.00    +0.000 OA
ATOM     15  N   UNL     1       4.451   4.175  18.832  0.00  0.00    +0.000 N 
ATOM     16  C   UNL     1       3.215   4.410  18.087  0.00  0.00    +0.000 C 
ATOM     17  C   UNL     1       1.995   4.307  19.001  0.00  0.00    +0.000 C 
ATOM     18  C   UNL     1       1.985   2.999  19.808  0.00  0.00    +0.000 C 
ATOM     19  C   UNL     1       0.829   2.988  20.807  0.00  0.00    +0.000 C 
ATOM     20  C   UNL     1       3.322   2.804  20.535  0.00  0.00    +0.000 C 
ATOM     21  C   UNL     1       4.499   2.914  19.571  0.00  0.00    +0.000 C 
ENDBRANCH  12  13
ENDBRANCH   4  12
TORSDOF 3
ENDMDL
MODEL 3
REMARK VINA RESULT:      -8.2      1.247      1.848
REMARK  Name = 
REMARK  5 active torsions:
REMARK  status: ('A' for Active; 'I' for Inactive)
REMARK    1  A    between atoms: C_1  and  C_2
REMARK    2  A    between atoms: C_5  and  C_6
REMARK    3  A    between atoms: N_9  and  C_10
REMARK    4  A    between atoms: C_10  and  C_11
REMARK    5  A    between atoms: C_16  and  C_17
REMARK                            x       y       z     vdW  Elec       q    Type
REMARK                         _______ _______ _______ _____ _____    ______ ____
ROOT
ATOM      1  C   UNL     1       6.209   4.408  14.291  0.00  0.00    +0.000 A 
ATOM      2  N   UNL     1       7.382   5.122  14.326  0.00  0.00    +0.000 NA
ATOM      3  N   UNL     1       7.571   5.478  15.591  0.00  0.00    +0.000 NA
ATOM      4  N   UNL     1       6.552   4.898  16.254  0.00  0.00    +0.000 N 
ATOM      5  N   UNL     1       5.584   4.369  15.482  0.00  0.00    +0.000 NA
ENDROOT
BRANCH   1  10
ATOM      6  C   UNL     1       3.314   3.170  10.509  0.00  0.00    +0.000 C 
ATOM      7  C   UNL     1       4.510   3.063  11.366  0.00  0.00    +0.000 A 
ATOM      8  C   UNL     1       5.707   2.397  11.233  0.00  0.00    +0.000 A 
ATOM      9  C   UNL     1       6.496   2.781  12.345  0.00  0.00    +0.000 A 
ATOM     10  C   UNL     1       5.733   3.655  13.098  0.00  0.00    +0.000 A 
ATOM     11  O   UNL     1       4.500   3.790  12.518  0.00  0.00    +0.000 OA
ENDBRANCH   1  10
BRANCH   4  12
ATOM     12  C   UNL     1       6.536   4.794  17.694  0.00  0.00    +0.000 C 
BRANCH  12  13
ATOM     13  C   UNL     1       5.299   5.458  18.274  0.00  0.00    +0.000 C 
ATOM     14  O   UNL     1       5.114   6.672  18.192  0.00  0.00    +0.000 OA
ATOM     15  N   UNL     1       4.374   4.634  18.916  0.00  0.00    +0.000 N 
ATOM     16  C   UNL     1       4.526   3.199  19.155  0.00  0.00    +0.000 C 
ATOM     17  C   UNL     1       3.257   2.441  18.767  0.00  0.00    +0.000 C 
ATOM     18  C   UNL     1       2.002   3.041  19.420  0.00  0.00    +0.000 C 
ATOM     19  C   UNL     1       0.741   2.346  18.908  0.00  0.00    +0.000 C 
ATOM     20  C   UNL     1       1.926   4.550  19.156  0.00  0.00    +0.000 C 
ATOM     21  C   UNL     1       3.218   5.251  19.566  0.00  0.00    +0.000 C 
ENDBRANCH  12  13
ENDBRANCH   4  12
TORSDOF 3
ENDMDL
MODEL 4
REMARK VINA RESULT:      -8.1      1.042      1.426
REMARK  Name = 
REMARK  5 active torsions:
REMARK  status: ('A' for Active; 'I' for Inactive)
REMARK    1  A    between atoms: C_1  and  C_2
REMARK    2  A    between atoms: C_5  and  C_6
REMARK    3  A    between atoms: N_9  and  C_10
REMARK    4  A    between atoms: C_10  and  C_11
REMARK    5  A    between atoms: C_16  and  C_17
REMARK                            x       y       z     vdW  Elec       q    Type
REMARK                         _______ _______ _______ _____ _____    ______ ____
ROOT
ATOM      1  C   UNL     1       6.298   4.453  14.170  0.00  0.00    +0.000 A 
ATOM      2  N   UNL     1       7.435   5.223  14.224  0.00  0.00    +0.000 NA
ATOM      3  N   UNL     1       7.576   5.603  15.488  0.00  0.00    +0.000 NA
ATOM      4  N   UNL     1       6.570   4.983  16.134  0.00  0.00    +0.000 N 
ATOM      5  N   UNL     1       5.647   4.399  15.347  0.00  0.00    +0.000 NA
ENDROOT
BRANCH   1  10
ATOM      6  C   UNL     1       6.286   0.798  10.877  0.00  0.00    +0.000 C 
ATOM      7  C   UNL     1       5.795   2.049  11.485  0.00  0.00    +0.000 A 
ATOM      8  C   UNL     1       4.654   2.797  11.307  0.00  0.00    +0.000 A 
ATOM      9  C   UNL     1       4.711   3.835  12.270  0.00  0.00    +0.000 A 
ATOM     10  C   UNL     1       5.887   3.665  12.977  0.00  0.00    +0.000 A 
ATOM     11  O   UNL     1       6.571   2.596  12.462  0.00  0.00    +0.000 OA
ENDBRANCH   1  10
BRANCH   4  12
ATOM     12  C   UNL     1       6.524   4.895  17.575  0.00  0.00    +0.000 C 
BRANCH  12  13
ATOM     13  C   UNL     1       5.301   5.608  18.125  0.00  0.00    +0.000 C 
ATOM     14  O   UNL     1       5.096   6.804  17.917  0.00  0.00    +0.000 OA
ATOM     15  N   UNL     1       4.411   4.852  18.890  0.00  0.00    +0.000 N 
ATOM     16  C   UNL     1       4.592   3.454  19.280  0.00  0.00    +0.000 C 
ATOM     17  C   UNL     1       3.320   2.645  19.028  0.00  0.00    +0.000 C 
ATOM     18  C   UNL     1       2.082   3.302  19.658  0.00  0.00    +0.000 C 
ATOM     19  C   UNL     1       0.812   2.543  19.275  0.00  0.00    +0.000 C 
ATOM     20  C   UNL     1       1.976   4.772  19.232  0.00  0.00    +0.000 C 
ATOM     21  C   UNL     1       3.272   5.526  19.511  0.00  0.00    +0.000 C 
ENDBRANCH  12  13
ENDBRANCH   4  12
TORSDOF 3
ENDMDL
MODEL 5
REMARK VINA RESULT:      -7.8      1.179      1.440
REMARK  Name = 
REMARK  5 active torsions:
REMARK  status: ('A' for Active; 'I' for Inactive)
REMARK    1  A    between atoms: C_1  and  C_2
REMARK    2  A    between atoms: C_5  and  C_6
REMARK    3  A    between atoms: N_9  and  C_10
REMARK    4  A    between atoms: C_10  and  C_11
REMARK    5  A    between atoms: C_16  and  C_17
REMARK                            x       y       z     vdW  Elec       q    Type
REMARK                         _______ _______ _______ _____ _____    ______ ____
ROOT
ATOM      1  C   UNL     1       6.914   5.037  15.024  0.00  0.00    +0.000 A 
ATOM      2  N   UNL     1       7.870   4.766  15.973  0.00  0.00    +0.000 NA
ATOM      3  N   UNL     1       7.458   5.336  17.099  0.00  0.00    +0.000 NA
ATOM      4  N   UNL     1       6.252   5.848  16.790  0.00  0.00    +0.000 N 
ATOM      5  N   UNL     1       5.939   5.846  15.480  0.00  0.00    +0.000 NA
ENDROOT
BRANCH   1  10
ATOM      6  C   UNL     1       5.434   2.109  11.357  0.00  0.00    +0.000 C 
ATOM      7  C   UNL     1       6.262   3.162  11.973  0.00  0.00    +0.000 A 
ATOM      8  C   UNL     1       7.135   4.095  11.460  0.00  0.00    +0.000 A 
ATOM      9  C   UNL     1       7.534   4.903  12.552  0.00  0.00    +0.000 A 
ATOM     10  C   UNL     1       6.888   4.414  13.673  0.00  0.00    +0.000 A 
ATOM     11  O   UNL     1       6.144   3.319  13.322  0.00  0.00    +0.000 OA
ENDBRANCH   1  10
BRANCH   4  12
ATOM     12  C   UNL     1       5.331   6.306  17.803  0.00  0.00    +0.000 C 
BRANCH  12  13
ATOM     13  C   UNL     1       5.163   5.265  18.896  0.00  0.00    +0.000 C 
ATOM     14  O   UNL     1       5.761   5.344  19.969  0.00  0.00    +0.000 OA
ATOM     15  N   UNL     1       4.300   4.199  18.635  0.00  0.00    +0.000 N 
ATOM     16  C   UNL     1       3.606   3.949  17.372  0.00  0.00    +0.000 C 
ATOM     17  C   UNL     1       2.131   3.631  17.609  0.00  0.00    +0.000 C 
ATOM     18  C   UNL     1       1.940   2.512  18.645  0.00  0.00    +0.000 C 
ATOM     19  C   UNL     1       0.458   2.311  18.958  0.00  0.00    +0.000 C 
ATOM     20  C   UNL     1       2.720   2.826  19.928  0.00  0.00    +0.000 C 
ATOM     21  C   UNL     1       4.184   3.131  19.627  0.00  0.00    +0.000 C 
ENDBRANCH  12  13
ENDBRANCH   4  12
TORSDOF 3
ENDMDL
MODEL 6
REMARK VINA RESULT:      -7.8      1.677      2.260
REMARK  Name = 
REMARK  5 active torsions:
REMARK  status: ('A' for Active; 'I' for Inactive)
REMARK    1  A    between atoms: C_1  and  C_2
REMARK    2  A    between atoms: C_5  and  C_6
REMARK    3  A    between atoms: N_9  and  C_10
REMARK    4  A    between atoms: C_10  and  C_11
REMARK    5  A    between atoms: C_16  and  C_17
REMARK                            x       y       z     vdW  Elec       q    Type
REMARK                         _______ _______ _______ _____ _____    ______ ____
ROOT
ATOM      1  C   UNL     1       6.739   4.883  14.942  0.00  0.00    +0.000 A 
ATOM      2  N   UNL     1       7.583   4.372  15.898  0.00  0.00    +0.000 NA
ATOM      3  N   UNL     1       7.491   5.171  16.953  0.00  0.00    +0.000 NA
ATOM      4  N   UNL     1       6.547   6.067  16.607  0.00  0.00    +0.000 N 
ATOM      5  N   UNL     1       6.171   6.046  15.314  0.00  0.00    +0.000 NA
ENDROOT
BRANCH   1  10
ATOM      6  C   UNL     1       3.939   3.109  11.305  0.00  0.00    +0.000 C 
ATOM      7  C   UNL     1       5.212   3.384  11.997  0.00  0.00    +0.000 A 
ATOM      8  C   UNL     1       6.531   3.295  11.614  0.00  0.00    +0.000 A 
ATOM      9  C   UNL     1       7.290   3.809  12.694  0.00  0.00    +0.000 A 
ATOM     10  C   UNL     1       6.392   4.177  13.678  0.00  0.00    +0.000 A 
ATOM     11  O   UNL     1       5.122   3.873  13.266  0.00  0.00    +0.000 OA
ENDBRANCH   1  10
BRANCH   4  12
ATOM     12  C   UNL     1       5.934   6.946  17.575  0.00  0.00    +0.000 C 
BRANCH  12  13
ATOM     13  C   UNL     1       4.421   6.817  17.546  0.00  0.00    +0.000 C 
ATOM     14  O   UNL     1       3.716   7.568  16.872  0.00  0.00    +0.000 OA
ATOM     15  N   UNL     1       3.851   5.809  18.327  0.00  0.00    +0.000 N 
ATOM     16  C   UNL     1       4.573   4.918  19.235  0.00  0.00    +0.000 C 
ATOM     17  C   UNL     1       4.146   3.465  19.033  0.00  0.00    +0.000 C 
ATOM     18  C   UNL     1       2.619   3.297  19.094  0.00  0.00    +0.000 C 
ATOM     19  C   UNL     1       2.219   1.862  18.756  0.00  0.00    +0.000 C 
ATOM     20  C   UNL     1       1.930   4.283  18.143  0.00  0.00    +0.000 C 
ATOM     21  C   UNL     1       2.394   5.714  18.394  0.00  0.00    +0.000 C 
ENDBRANCH  12  13
ENDBRANCH   4  12
TORSDOF 3
ENDMDL
MODEL 7
REMARK VINA RESULT:      -7.7      1.497      2.033
REMARK  Name = 
REMARK  5 active torsions:
REMARK  status: ('A' for Active; 'I' for Inactive)
REMARK    1  A    between atoms: C_1  and  C_2
REMARK    2  A    between atoms: C_5  and  C_6
REMARK    3  A    between atoms: N_9  and  C_10
REMARK    4  A    between atoms: C_10  and  C_11
REMARK    5  A    between atoms: C_16  and  C_17
REMARK                            x       y       z     vdW  Elec       q    Type
REMARK                         _______ _______ _______ _____ _____    ______ ____
ROOT
ATOM      1  C   UNL     1       6.504   4.834  15.242  0.00  0.00    +0.000 A 
ATOM      2  N   UNL     1       7.567   5.638  15.577  0.00  0.00    +0.000 NA
ATOM      3  N   UNL     1       7.511   5.813  16.891  0.00  0.00    +0.000 NA
ATOM      4  N   UNL     1       6.474   5.049  17.283  0.00  0.00    +0.000 N 
ATOM      5  N   UNL     1       5.707   4.558  16.291  0.00  0.00    +0.000 NA
ENDROOT
BRANCH   1  10
ATOM      6  C   UNL     1       4.138   3.144  11.273  0.00  0.00    +0.000 C 
ATOM      7  C   UNL     1       5.329   3.490  12.070  0.00  0.00    +0.000 A 
ATOM      8  C   UNL     1       6.667   3.598  11.766  0.00  0.00    +0.000 A 
ATOM      9  C   UNL     1       7.300   4.078  12.938  0.00  0.00    +0.000 A 
ATOM     10  C   UNL     1       6.313   4.231  13.895  0.00  0.00    +0.000 A 
ATOM     11  O   UNL     1       5.114   3.827  13.373  0.00  0.00    +0.000 OA
ENDBRANCH   1  10
BRANCH   4  12
ATOM     12  C   UNL     1       6.242   4.726  18.671  0.00  0.00    +0.000 C 
BRANCH  12  13
ATOM     13  C   UNL     1       4.913   5.287  19.146  0.00  0.00    +0.000 C 
ATOM     14  O   UNL     1       4.684   6.496  19.157  0.00  0.00    +0.000 OA
ATOM     15  N   UNL     1       3.952   4.372  19.581  0.00  0.00    +0.000 N 
ATOM     16  C   UNL     1       4.139   2.926  19.699  0.00  0.00    +0.000 C 
ATOM     17  C   UNL     1       2.966   2.169  19.080  0.00  0.00    +0.000 C 
ATOM     18  C   UNL     1       1.612   2.658  19.618  0.00  0.00    +0.000 C 
ATOM     19  C   UNL     1       0.459   1.977  18.883  0.00  0.00    +0.000 C 
ATOM     20  C   UNL     1       1.500   4.183  19.492  0.00  0.00    +0.000 C 
ATOM     21  C   UNL     1       2.697   4.882  20.131  0.00  0.00    +0.000 C 
ENDBRANCH  12  13
ENDBRANCH   4  12
TORSDOF 3
ENDMDL
MODEL 8
REMARK VINA RESULT:      -7.5      3.927      6.568
REMARK  Name = 
REMARK  5 active torsions:
REMARK  status: ('A' for Active; 'I' for Inactive)
REMARK    1  A    between atoms: C_1  and  C_2
REMARK    2  A    between atoms: C_5  and  C_6
REMARK    3  A    between atoms: N_9  and  C_10
REMARK    4  A    between atoms: C_10  and  C_11
REMARK    5  A    between atoms: C_16  and  C_17
REMARK                            x       y       z     vdW  Elec       q    Type
REMARK                         _______ _______ _______ _____ _____    ______ ____
ROOT
ATOM      1  C   UNL     1       8.077   8.426  18.006  0.00  0.00    +0.000 A 
ATOM      2  N   UNL     1       7.170   8.297  16.981  0.00  0.00    +0.000 NA
ATOM      3  N   UNL     1       6.691   7.061  17.052  0.00  0.00    +0.000 NA
ATOM      4  N   UNL     1       7.270   6.544  18.152  0.00  0.00    +0.000 N 
ATOM      5  N   UNL     1       8.266   7.278  18.683  0.00  0.00    +0.000 NA
ENDROOT
BRANCH   1  10
ATOM      6  C   UNL     1       9.022  13.255  17.984  0.00  0.00    +0.000 C 
ATOM      7  C   UNL     1       9.146  11.872  18.482  0.00  0.00    +0.000 A 
ATOM      8  C   UNL     1       9.689  11.327  19.624  0.00  0.00    +0.000 A 
ATOM      9  C   UNL     1       9.397   9.942  19.577  0.00  0.00    +0.000 A 
ATOM     10  C   UNL     1       8.697   9.718  18.406  0.00  0.00    +0.000 A 
ATOM     11  O   UNL     1       8.585  10.896  17.715  0.00  0.00    +0.000 OA
ENDBRANCH   1  10
BRANCH   4  12
ATOM     12  C   UNL     1       6.808   5.317  18.757  0.00  0.00    +0.000 C 
BRANCH  12  13
ATOM     13  C   UNL     1       5.792   4.620  17.867  0.00  0.00    +0.000 C 
ATOM     14  O   UNL     1       6.130   3.979  16.872  0.00  0.00    +0.000 OA
ATOM     15  N   UNL     1       4.447   4.741  18.218  0.00  0.00    +0.000 N 
ATOM     16  C   UNL     1       3.919   5.547  19.319  0.00  0.00    +0.000 C 
ATOM     17  C   UNL     1       2.911   4.750  20.148  0.00  0.00    +0.000 C 
ATOM     18  C   UNL     1       1.819   4.113  19.275  0.00  0.00    +0.000 C 
ATOM     19  C   UNL     1       0.909   3.218  20.114  0.00  0.00    +0.000 C 
ATOM     20  C   UNL     1       2.444   3.314  18.125  0.00  0.00    +0.000 C 
ATOM     21  C   UNL     1       3.436   4.161  17.335  0.00  0.00    +0.000 C 
ENDBRANCH  12  13
ENDBRANCH   4  12
TORSDOF 3
ENDMDL
MODEL 9
REMARK VINA RESULT:      -7.5      1.526      1.963
REMARK  Name = 
REMARK  5 active torsions:
REMARK  status: ('A' for Active; 'I' for Inactive)
REMARK    1  A    between atoms: C_1  and  C_2
REMARK    2  A    between atoms: C_5  and  C_6
REMARK    3  A    between atoms: N_9  and  C_10
REMARK    4  A    between atoms: C_10  and  C_11
REMARK    5  A    between atoms: C_16  and  C_17
REMARK                            x       y       z     vdW  Elec       q    Type
REMARK                         _______ _______ _______ _____ _____    ______ ____
ROOT
ATOM      1  C   UNL     1       6.699   4.844  14.826  0.00  0.00    +0.000 A 
ATOM      2  N   UNL     1       7.572   4.353  15.766  0.00  0.00    +0.000 NA
ATOM      3  N   UNL     1       7.491   5.159  16.817  0.00  0.00    +0.000 NA
ATOM      4  N   UNL     1       6.527   6.039  16.486  0.00  0.00    +0.000 N 
ATOM      5  N   UNL     1       6.123   6.001  15.202  0.00  0.00    +0.000 NA
ENDROOT
BRANCH   1  10
ATOM      6  C   UNL     1       7.213   1.885  10.928  0.00  0.00    +0.000 C 
ATOM      7  C   UNL     1       6.475   2.788  11.831  0.00  0.00    +0.000 A 
ATOM      8  C   UNL     1       5.140   3.097  11.970  0.00  0.00    +0.000 A 
ATOM      9  C   UNL     1       5.050   3.952  13.095  0.00  0.00    +0.000 A 
ATOM     10  C   UNL     1       6.335   4.123  13.576  0.00  0.00    +0.000 A 
ATOM     11  O   UNL     1       7.211   3.444  12.771  0.00  0.00    +0.000 OA
ENDBRANCH   1  10
BRANCH   4  12
ATOM     12  C   UNL     1       5.923   6.916  17.460  0.00  0.00    +0.000 C 
BRANCH  12  13
ATOM     13  C   UNL     1       4.410   6.777  17.454  0.00  0.00    +0.000 C 
ATOM     14  O   UNL     1       3.691   7.514  16.780  0.00  0.00    +0.000 OA
ATOM     15  N   UNL     1       3.858   5.776  18.256  0.00  0.00    +0.000 N 
ATOM     16  C   UNL     1       4.599   4.902  19.165  0.00  0.00    +0.000 C 
ATOM     17  C   UNL     1       4.178   3.444  18.989  0.00  0.00    +0.000 C 
ATOM     18  C   UNL     1       2.654   3.266  19.074  0.00  0.00    +0.000 C 
ATOM     19  C   UNL     1       2.258   1.824  18.761  0.00  0.00    +0.000 C 
ATOM     20  C   UNL     1       1.944   4.235  18.119  0.00  0.00    +0.000 C 
ATOM     21  C   UNL     1       2.402   5.673  18.345  0.00  0.00    +0.000 C 
ENDBRANCH  12  13
ENDBRANCH   4  12
TORSDOF 3
ENDMDL
