MODEL 1
REMARK VINA RESULT:      -7.6      0.000      0.000
REMARK  Name = 
REMARK  4 active torsions:
REMARK  status: ('A' for Active; 'I' for Inactive)
REMARK    1  A    between atoms: C_1  and  C_2
REMARK    2  A    between atoms: N_4  and  C_5
REMARK    3  A    between atoms: N_4  and  C_19
REMARK    4  A    between atoms: N_10  and  C_11
REMARK                            x       y       z     vdW  Elec       q    Type
REMARK                         _______ _______ _______ _____ _____    ______ ____
ROOT
ATOM      1  C   UNL     1       3.093   6.781  17.917  0.00  0.00    +0.000 C 
ATOM      2  C   UNL     1       2.412   7.577  18.761  0.00  0.00    +0.000 C 
ATOM      3  S   UNL     1       2.127   7.354  20.440  0.00  0.00    +0.000 S 
ATOM      4  C   UNL     1       0.915   8.622  20.484  0.00  0.00    +0.000 C 
ATOM      5  S   UNL     1      -0.196   8.718  21.731  0.00  0.00    +0.000 S 
ATOM      6  N   UNL     1       0.999   9.375  19.322  0.00  0.00    +0.000 N 
ATOM      7  C   UNL     1       1.809   8.862  18.310  0.00  0.00    +0.000 C 
ATOM      8  O   UNL     1       2.027   9.337  17.204  0.00  0.00    +0.000 OA
ENDROOT
BRANCH   6   9
ATOM      9  C   UNL     1       0.348  10.626  19.157  0.00  0.00    +0.000 A 
ATOM     10  C   UNL     1      -0.918  10.715  18.566  0.00  0.00    +0.000 A 
ATOM     11  C   UNL     1      -1.536  11.960  18.422  0.00  0.00    +0.000 A 
ATOM     12  C   UNL     1      -0.878  13.122  18.826  0.00  0.00    +0.000 A 
ATOM     13  C   UNL     1       0.393  13.043  19.389  0.00  0.00    +0.000 A 
ATOM     14  C   UNL     1       0.997  11.803  19.563  0.00  0.00    +0.000 A 
ENDBRANCH   6   9
BRANCH   1  18
ATOM     15  C   UNL     1       1.380   4.406  17.643  0.00  0.00    +0.000 C 
ATOM     16  C   UNL     1       2.684   4.410  18.423  0.00  0.00    +0.000 C 
ATOM     17  O   UNL     1       2.953   3.456  19.155  0.00  0.00    +0.000 OA
ATOM     18  N   UNL     1       3.564   5.485  18.151  0.00  0.00    +0.000 N 
BRANCH  18  19
ATOM     19  C   UNL     1       4.972   5.176  17.977  0.00  0.00    +0.000 A 
ATOM     20  C   UNL     1       5.454   4.607  16.786  0.00  0.00    +0.000 A 
ATOM     21  C   UNL     1       6.813   4.330  16.608  0.00  0.00    +0.000 A 
ATOM     22  C   UNL     1       7.720   4.606  17.625  0.00  0.00    +0.000 A 
ATOM     23  C   UNL     1       7.266   5.163  18.818  0.00  0.00    +0.000 A 
ATOM     24  C   UNL     1       5.906   5.451  18.991  0.00  0.00    +0.000 A 
ENDBRANCH  18  19
ENDBRANCH   1  18
TORSDOF 3
ENDMDL
MODEL 2
REMARK VINA RESULT:      -7.5      0.097      1.394
REMARK  Name = 
REMARK  4 active torsions:
REMARK  status: ('A' for Active; 'I' for Inactive)
REMARK    1  A    between atoms: C_1  and  C_2
REMARK    2  A    between atoms: N_4  and  C_5
REMARK    3  A    between atoms: N_4  and  C_19
REMARK    4  A    between atoms: N_10  and  C_11
REMARK                            x       y       z     vdW  Elec       q    Type
REMARK                         _______ _______ _______ _____ _____    ______ ____
ROOT
ATOM      1  C   UNL     1       3.092   6.850  17.946  0.00  0.00    +0.000 C 
ATOM      2  C   UNL     1       2.403   7.628  18.799  0.00  0.00    +0.000 C 
ATOM      3  S   UNL     1       2.108   7.375  20.473  0.00  0.00    +0.000 S 
ATOM      4  C   UNL     1       0.891   8.637  20.530  0.00  0.00    +0.000 C 
ATOM      5  S   UNL     1      -0.229   8.707  21.771  0.00  0.00    +0.000 S 
ATOM      6  N   UNL     1       0.979   9.411  19.382  0.00  0.00    +0.000 N 
ATOM      7  C   UNL     1       1.797   8.918  18.367  0.00  0.00    +0.000 C 
ATOM      8  O   UNL     1       2.020   9.413  17.270  0.00  0.00    +0.000 OA
ENDROOT
BRANCH   6   9
ATOM      9  C   UNL     1       0.324  10.661  19.234  0.00  0.00    +0.000 A 
ATOM     10  C   UNL     1       0.891  11.842  19.726  0.00  0.00    +0.000 A 
ATOM     11  C   UNL     1       0.224  13.060  19.561  0.00  0.00    +0.000 A 
ATOM     12  C   UNL     1      -1.026  13.098  18.945  0.00  0.00    +0.000 A 
ATOM     13  C   UNL     1      -1.608  11.923  18.478  0.00  0.00    +0.000 A 
ATOM     14  C   UNL     1      -0.933  10.715  18.612  0.00  0.00    +0.000 A 
ENDBRANCH   6   9
BRANCH   1  18
ATOM     15  C   UNL     1       1.388   4.473  17.635  0.00  0.00    +0.000 C 
ATOM     16  C   UNL     1       2.691   4.470  18.416  0.00  0.00    +0.000 C 
ATOM     17  O   UNL     1       2.963   3.506  19.133  0.00  0.00    +0.000 OA
ATOM     18  N   UNL     1       3.568   5.552  18.161  0.00  0.00    +0.000 N 
BRANCH  18  19
ATOM     19  C   UNL     1       4.977   5.250  17.984  0.00  0.00    +0.000 A 
ATOM     20  C   UNL     1       5.913   5.498  19.003  0.00  0.00    +0.000 A 
ATOM     21  C   UNL     1       7.266   5.186  18.841  0.00  0.00    +0.000 A 
ATOM     22  C   UNL     1       7.716   4.629  17.650  0.00  0.00    +0.000 A 
ATOM     23  C   UNL     1       6.810   4.381  16.622  0.00  0.00    +0.000 A 
ATOM     24  C   UNL     1       5.452   4.682  16.789  0.00  0.00    +0.000 A 
ENDBRANCH  18  19
ENDBRANCH   1  18
TORSDOF 3
ENDMDL
MODEL 3
REMARK VINA RESULT:      -7.4      1.290      2.987
REMARK  Name = 
REMARK  4 active torsions:
REMARK  status: ('A' for Active; 'I' for Inactive)
REMARK    1  A    between atoms: C_1  and  C_2
REMARK    2  A    between atoms: N_4  and  C_5
REMARK    3  A    between atoms: N_4  and  C_19
REMARK    4  A    between atoms: N_10  and  C_11
REMARK                            x       y       z     vdW  Elec       q    Type
REMARK                         _______ _______ _______ _____ _____    ______ ____
ROOT
ATOM      1  C   UNL     1       3.055   6.667  18.030  0.00  0.00    +0.000 C 
ATOM      2  C   UNL     1       2.397   7.534  18.820  0.00  0.00    +0.000 C 
ATOM      3  S   UNL     1       2.088   7.417  20.506  0.00  0.00    +0.000 S 
ATOM      4  C   UNL     1       0.924   8.728  20.465  0.00  0.00    +0.000 C 
ATOM      5  S   UNL     1      -0.195   8.935  21.692  0.00  0.00    +0.000 S 
ATOM      6  N   UNL     1       1.046   9.411  19.264  0.00  0.00    +0.000 N 
ATOM      7  C   UNL     1       1.845   8.812  18.291  0.00  0.00    +0.000 C 
ATOM      8  O   UNL     1       2.090   9.216  17.163  0.00  0.00    +0.000 OA
ENDROOT
BRANCH   6   9
ATOM      9  C   UNL     1       0.443  10.674  19.022  0.00  0.00    +0.000 A 
ATOM     10  C   UNL     1      -0.832  10.773  18.452  0.00  0.00    +0.000 A 
ATOM     11  C   UNL     1      -1.401  12.030  18.231  0.00  0.00    +0.000 A 
ATOM     12  C   UNL     1      -0.688  13.189  18.535  0.00  0.00    +0.000 A 
ATOM     13  C   UNL     1       0.592  13.096  19.076  0.00  0.00    +0.000 A 
ATOM     14  C   UNL     1       1.149  11.847  19.327  0.00  0.00    +0.000 A 
ENDBRANCH   6   9
BRANCH   1  18
ATOM     15  C   UNL     1       5.896   5.914  18.141  0.00  0.00    +0.000 C 
ATOM     16  C   UNL     1       4.769   4.905  18.002  0.00  0.00    +0.000 C 
ATOM     17  O   UNL     1       5.035   3.738  17.711  0.00  0.00    +0.000 OA
ATOM     18  N   UNL     1       3.476   5.370  18.342  0.00  0.00    +0.000 N 
BRANCH  18  19
ATOM     19  C   UNL     1       2.642   4.507  19.159  0.00  0.00    +0.000 A 
ATOM     20  C   UNL     1       1.460   3.938  18.652  0.00  0.00    +0.000 A 
ATOM     21  C   UNL     1       0.669   3.088  19.430  0.00  0.00    +0.000 A 
ATOM     22  C   UNL     1       1.035   2.798  20.739  0.00  0.00    +0.000 A 
ATOM     23  C   UNL     1       2.197   3.355  21.267  0.00  0.00    +0.000 A 
ATOM     24  C   UNL     1       2.997   4.197  20.483  0.00  0.00    +0.000 A 
ENDBRANCH  18  19
ENDBRANCH   1  18
TORSDOF 3
ENDMDL
MODEL 4
REMARK VINA RESULT:      -7.3      1.301      3.276
REMARK  Name = 
REMARK  4 active torsions:
REMARK  status: ('A' for Active; 'I' for Inactive)
REMARK    1  A    between atoms: C_1  and  C_2
REMARK    2  A    between atoms: N_4  and  C_5
REMARK    3  A    between atoms: N_4  and  C_19
REMARK    4  A    between atoms: N_10  and  C_11
REMARK                            x       y       z     vdW  Elec       q    Type
REMARK                         _______ _______ _______ _____ _____    ______ ____
ROOT
ATOM      1  C   UNL     1       3.075   6.663  18.039  0.00  0.00    +0.000 C 
ATOM      2  C   UNL     1       2.412   7.531  18.824  0.00  0.00    +0.000 C 
ATOM      3  S   UNL     1       2.095   7.417  20.509  0.00  0.00    +0.000 S 
ATOM      4  C   UNL     1       0.930   8.728  20.459  0.00  0.00    +0.000 C 
ATOM      5  S   UNL     1      -0.194   8.937  21.680  0.00  0.00    +0.000 S 
ATOM      6  N   UNL     1       1.058   9.408  19.257  0.00  0.00    +0.000 N 
ATOM      7  C   UNL     1       1.862   8.808  18.289  0.00  0.00    +0.000 C 
ATOM      8  O   UNL     1       2.112   9.209  17.161  0.00  0.00    +0.000 OA
ENDROOT
BRANCH   6   9
ATOM      9  C   UNL     1       0.455  10.669  19.009  0.00  0.00    +0.000 A 
ATOM     10  C   UNL     1       1.097  11.863  19.358  0.00  0.00    +0.000 A 
ATOM     11  C   UNL     1       0.480  13.090  19.096  0.00  0.00    +0.000 A 
ATOM     12  C   UNL     1      -0.792  13.130  18.527  0.00  0.00    +0.000 A 
ATOM     13  C   UNL     1      -1.447  11.945  18.203  0.00  0.00    +0.000 A 
ATOM     14  C   UNL     1      -0.823  10.724  18.432  0.00  0.00    +0.000 A 
ENDBRANCH   6   9
BRANCH   1  18
ATOM     15  C   UNL     1       5.915   5.902  18.123  0.00  0.00    +0.000 C 
ATOM     16  C   UNL     1       4.783   4.895  18.005  0.00  0.00    +0.000 C 
ATOM     17  O   UNL     1       5.042   3.725  17.719  0.00  0.00    +0.000 OA
ATOM     18  N   UNL     1       3.495   5.367  18.356  0.00  0.00    +0.000 N 
BRANCH  18  19
ATOM     19  C   UNL     1       2.668   4.513  19.189  0.00  0.00    +0.000 A 
ATOM     20  C   UNL     1       3.023   4.220  20.517  0.00  0.00    +0.000 A 
ATOM     21  C   UNL     1       2.215   3.417  21.327  0.00  0.00    +0.000 A 
ATOM     22  C   UNL     1       1.038   2.877  20.822  0.00  0.00    +0.000 A 
ATOM     23  C   UNL     1       0.668   3.146  19.506  0.00  0.00    +0.000 A 
ATOM     24  C   UNL     1       1.471   3.961  18.699  0.00  0.00    +0.000 A 
ENDBRANCH  18  19
ENDBRANCH   1  18
TORSDOF 3
ENDMDL
MODEL 5
REMARK VINA RESULT:      -6.7      2.184      2.626
REMARK  Name = 
REMARK  4 active torsions:
REMARK  status: ('A' for Active; 'I' for Inactive)
REMARK    1  A    between atoms: C_1  and  C_2
REMARK    2  A    between atoms: N_4  and  C_5
REMARK    3  A    between atoms: N_4  and  C_19
REMARK    4  A    between atoms: N_10  and  C_11
REMARK                            x       y       z     vdW  Elec       q    Type
REMARK                         _______ _______ _______ _____ _____    ______ ____
ROOT
ATOM      1  C   UNL     1       3.000   5.684  19.515  0.00  0.00    +0.000 C 
ATOM      2  C   UNL     1       2.394   6.874  19.350  0.00  0.00    +0.000 C 
ATOM      3  S   UNL     1       2.365   7.871  17.951  0.00  0.00    +0.000 S 
ATOM      4  C   UNL     1       1.719   9.238  18.841  0.00  0.00    +0.000 C 
ATOM      5  S   UNL     1       1.829  10.795  18.240  0.00  0.00    +0.000 S 
ATOM      6  N   UNL     1       1.251   8.802  20.072  0.00  0.00    +0.000 N 
ATOM      7  C   UNL     1       1.587   7.498  20.434  0.00  0.00    +0.000 C 
ATOM      8  O   UNL     1       1.301   6.905  21.465  0.00  0.00    +0.000 OA
ENDROOT
BRANCH   6   9
ATOM      9  C   UNL     1       0.435   9.596  20.920  0.00  0.00    +0.000 A 
ATOM     10  C   UNL     1      -0.305  10.673  20.416  0.00  0.00    +0.000 A 
ATOM     11  C   UNL     1      -1.104  11.434  21.275  0.00  0.00    +0.000 A 
ATOM     12  C   UNL     1      -1.135  11.152  22.640  0.00  0.00    +0.000 A 
ATOM     13  C   UNL     1      -0.380  10.099  23.151  0.00  0.00    +0.000 A 
ATOM     14  C   UNL     1       0.391   9.320  22.295  0.00  0.00    +0.000 A 
ENDBRANCH   6   9
BRANCH   1  18
ATOM     15  C   UNL     1       2.156   4.010  17.248  0.00  0.00    +0.000 C 
ATOM     16  C   UNL     1       3.548   3.958  17.853  0.00  0.00    +0.000 C 
ATOM     17  O   UNL     1       4.308   3.040  17.540  0.00  0.00    +0.000 OA
ATOM     18  N   UNL     1       3.915   5.061  18.660  0.00  0.00    +0.000 N 
BRANCH  18  19
ATOM     19  C   UNL     1       5.239   5.627  18.468  0.00  0.00    +0.000 A 
ATOM     20  C   UNL     1       5.515   6.497  17.399  0.00  0.00    +0.000 A 
ATOM     21  C   UNL     1       6.783   7.060  17.227  0.00  0.00    +0.000 A 
ATOM     22  C   UNL     1       7.808   6.755  18.115  0.00  0.00    +0.000 A 
ATOM     23  C   UNL     1       7.561   5.890  19.178  0.00  0.00    +0.000 A 
ATOM     24  C   UNL     1       6.288   5.336  19.357  0.00  0.00    +0.000 A 
ENDBRANCH  18  19
ENDBRANCH   1  18
TORSDOF 3
ENDMDL
MODEL 6
REMARK VINA RESULT:      -6.7      2.177      2.780
REMARK  Name = 
REMARK  4 active torsions:
REMARK  status: ('A' for Active; 'I' for Inactive)
REMARK    1  A    between atoms: C_1  and  C_2
REMARK    2  A    between atoms: N_4  and  C_5
REMARK    3  A    between atoms: N_4  and  C_19
REMARK    4  A    between atoms: N_10  and  C_11
REMARK                            x       y       z     vdW  Elec       q    Type
REMARK                         _______ _______ _______ _____ _____    ______ ____
ROOT
ATOM      1  C   UNL     1       2.992   5.699  19.528  0.00  0.00    +0.000 C 
ATOM      2  C   UNL     1       2.396   6.894  19.365  0.00  0.00    +0.000 C 
ATOM      3  S   UNL     1       2.376   7.895  17.968  0.00  0.00    +0.000 S 
ATOM      4  C   UNL     1       1.738   9.264  18.861  0.00  0.00    +0.000 C 
ATOM      5  S   UNL     1       1.861  10.822  18.264  0.00  0.00    +0.000 S 
ATOM      6  N   UNL     1       1.266   8.829  20.090  0.00  0.00    +0.000 N 
ATOM      7  C   UNL     1       1.591   7.522  20.450  0.00  0.00    +0.000 C 
ATOM      8  O   UNL     1       1.300   6.928  21.479  0.00  0.00    +0.000 OA
ENDROOT
BRANCH   6   9
ATOM      9  C   UNL     1       0.455   9.627  20.939  0.00  0.00    +0.000 A 
ATOM     10  C   UNL     1       0.415   9.411  22.321  0.00  0.00    +0.000 A 
ATOM     11  C   UNL     1      -0.390  10.217  23.132  0.00  0.00    +0.000 A 
ATOM     12  C   UNL     1      -1.187  11.210  22.564  0.00  0.00    +0.000 A 
ATOM     13  C   UNL     1      -1.173  11.412  21.186  0.00  0.00    +0.000 A 
ATOM     14  C   UNL     1      -0.350  10.633  20.381  0.00  0.00    +0.000 A 
ENDBRANCH   6   9
BRANCH   1  18
ATOM     15  C   UNL     1       2.138   4.010  17.277  0.00  0.00    +0.000 C 
ATOM     16  C   UNL     1       3.534   3.962  17.875  0.00  0.00    +0.000 C 
ATOM     17  O   UNL     1       4.293   3.043  17.564  0.00  0.00    +0.000 OA
ATOM     18  N   UNL     1       3.903   5.071  18.673  0.00  0.00    +0.000 N 
BRANCH  18  19
ATOM     19  C   UNL     1       5.225   5.637  18.471  0.00  0.00    +0.000 A 
ATOM     20  C   UNL     1       6.281   5.366  19.359  0.00  0.00    +0.000 A 
ATOM     21  C   UNL     1       7.560   5.891  19.152  0.00  0.00    +0.000 A 
ATOM     22  C   UNL     1       7.810   6.710  18.057  0.00  0.00    +0.000 A 
ATOM     23  C   UNL     1       6.779   6.999  17.167  0.00  0.00    +0.000 A 
ATOM     24  C   UNL     1       5.500   6.463  17.367  0.00  0.00    +0.000 A 
ENDBRANCH  18  19
ENDBRANCH   1  18
TORSDOF 3
ENDMDL
MODEL 7
REMARK VINA RESULT:      -6.0      6.812      8.231
REMARK  Name = 
REMARK  4 active torsions:
REMARK  status: ('A' for Active; 'I' for Inactive)
REMARK    1  A    between atoms: C_1  and  C_2
REMARK    2  A    between atoms: N_4  and  C_5
REMARK    3  A    between atoms: N_4  and  C_19
REMARK    4  A    between atoms: N_10  and  C_11
REMARK                            x       y       z     vdW  Elec       q    Type
REMARK                         _______ _______ _______ _____ _____    ______ ____
ROOT
ATOM      1  C   UNL     1       7.174  14.760  17.867  0.00  0.00    +0.000 C 
ATOM      2  C   UNL     1       6.200  15.030  18.755  0.00  0.00    +0.000 C 
ATOM      3  S   UNL     1       6.341  15.285  20.448  0.00  0.00    +0.000 S 
ATOM      4  C   UNL     1       4.608  15.163  20.691  0.00  0.00    +0.000 C 
ATOM      5  S   UNL     1       3.964  14.851  22.203  0.00  0.00    +0.000 S 
ATOM      6  N   UNL     1       3.966  15.257  19.465  0.00  0.00    +0.000 N 
ATOM      7  C   UNL     1       4.780  15.187  18.335  0.00  0.00    +0.000 C 
ATOM      8  O   UNL     1       4.444  15.234  17.160  0.00  0.00    +0.000 OA
ENDROOT
BRANCH   6   9
ATOM      9  C   UNL     1       2.567  15.460  19.332  0.00  0.00    +0.000 A 
ATOM     10  C   UNL     1       1.690  14.384  19.157  0.00  0.00    +0.000 A 
ATOM     11  C   UNL     1       0.317  14.615  19.035  0.00  0.00    +0.000 A 
ATOM     12  C   UNL     1      -0.180  15.917  19.044  0.00  0.00    +0.000 A 
ATOM     13  C   UNL     1       0.691  16.994  19.191  0.00  0.00    +0.000 A 
ATOM     14  C   UNL     1       2.054  16.766  19.345  0.00  0.00    +0.000 A 
ENDBRANCH   6   9
BRANCH   1  18
ATOM     15  C   UNL     1       9.212  16.779  18.515  0.00  0.00    +0.000 C 
ATOM     16  C   UNL     1       9.548  15.377  18.033  0.00  0.00    +0.000 C 
ATOM     17  O   UNL     1      10.702  15.117  17.691  0.00  0.00    +0.000 OA
ATOM     18  N   UNL     1       8.506  14.424  18.130  0.00  0.00    +0.000 N 
BRANCH  18  19
ATOM     19  C   UNL     1       8.839  13.112  18.655  0.00  0.00    +0.000 A 
ATOM     20  C   UNL     1       8.814  11.968  17.838  0.00  0.00    +0.000 A 
ATOM     21  C   UNL     1       9.157  10.708  18.336  0.00  0.00    +0.000 A 
ATOM     22  C   UNL     1       9.523  10.561  19.670  0.00  0.00    +0.000 A 
ATOM     23  C   UNL     1       9.549  11.678  20.501  0.00  0.00    +0.000 A 
ATOM     24  C   UNL     1       9.217  12.942  19.999  0.00  0.00    +0.000 A 
ENDBRANCH  18  19
ENDBRANCH   1  18
TORSDOF 3
ENDMDL
MODEL 8
REMARK VINA RESULT:      -5.9      4.373      9.848
REMARK  Name = 
REMARK  4 active torsions:
REMARK  status: ('A' for Active; 'I' for Inactive)
REMARK    1  A    between atoms: C_1  and  C_2
REMARK    2  A    between atoms: N_4  and  C_5
REMARK    3  A    between atoms: N_4  and  C_19
REMARK    4  A    between atoms: N_10  and  C_11
REMARK                            x       y       z     vdW  Elec       q    Type
REMARK                         _______ _______ _______ _____ _____    ______ ____
ROOT
ATOM      1  C   UNL     1      -0.735  13.382  21.993  0.00  0.00    +0.000 C 
ATOM      2  C   UNL     1      -0.697  12.557  20.932  0.00  0.00    +0.000 C 
ATOM      3  S   UNL     1      -1.740  12.527  19.567  0.00  0.00    +0.000 S 
ATOM      4  C   UNL     1      -1.134  10.968  19.038  0.00  0.00    +0.000 C 
ATOM      5  S   UNL     1      -2.003  10.015  17.972  0.00  0.00    +0.000 S 
ATOM      6  N   UNL     1       0.041  10.680  19.717  0.00  0.00    +0.000 N 
ATOM      7  C   UNL     1       0.356  11.514  20.788  0.00  0.00    +0.000 C 
ATOM      8  O   UNL     1       1.323  11.450  21.535  0.00  0.00    +0.000 OA
ENDROOT
BRANCH   6   9
ATOM      9  C   UNL     1       0.920   9.631  19.339  0.00  0.00    +0.000 A 
ATOM     10  C   UNL     1       1.523   9.607  18.076  0.00  0.00    +0.000 A 
ATOM     11  C   UNL     1       2.389   8.564  17.734  0.00  0.00    +0.000 A 
ATOM     12  C   UNL     1       2.622   7.522  18.631  0.00  0.00    +0.000 A 
ATOM     13  C   UNL     1       2.004   7.527  19.879  0.00  0.00    +0.000 A 
ATOM     14  C   UNL     1       1.167   8.579  20.234  0.00  0.00    +0.000 A 
ENDBRANCH   6   9
BRANCH   1  18
ATOM     15  C   UNL     1      -0.924  16.072  20.820  0.00  0.00    +0.000 C 
ATOM     16  C   UNL     1      -1.614  15.675  22.114  0.00  0.00    +0.000 C 
ATOM     17  O   UNL     1      -2.104  16.549  22.830  0.00  0.00    +0.000 OA
ATOM     18  N   UNL     1      -1.745  14.284  22.344  0.00  0.00    +0.000 N 
BRANCH  18  19
ATOM     19  C   UNL     1      -3.026  13.798  22.824  0.00  0.00    +0.000 A 
ATOM     20  C   UNL     1      -3.130  13.066  24.020  0.00  0.00    +0.000 A 
ATOM     21  C   UNL     1      -4.366  12.618  24.495  0.00  0.00    +0.000 A 
ATOM     22  C   UNL     1      -5.526  12.881  23.777  0.00  0.00    +0.000 A 
ATOM     23  C   UNL     1      -5.449  13.597  22.585  0.00  0.00    +0.000 A 
ATOM     24  C   UNL     1      -4.212  14.057  22.116  0.00  0.00    +0.000 A 
ENDBRANCH  18  19
ENDBRANCH   1  18
TORSDOF 3
ENDMDL
MODEL 9
REMARK VINA RESULT:      -5.9      3.750      6.098
REMARK  Name = 
REMARK  4 active torsions:
REMARK  status: ('A' for Active; 'I' for Inactive)
REMARK    1  A    between atoms: C_1  and  C_2
REMARK    2  A    between atoms: N_4  and  C_5
REMARK    3  A    between atoms: N_4  and  C_19
REMARK    4  A    between atoms: N_10  and  C_11
REMARK                            x       y       z     vdW  Elec       q    Type
REMARK                         _______ _______ _______ _____ _____    ______ ____
ROOT
ATOM      1  C   UNL     1       0.495  11.442  19.566  0.00  0.00    +0.000 C 
ATOM      2  C   UNL     1       0.931  12.710  19.668  0.00  0.00    +0.000 C 
ATOM      3  S   UNL     1       2.235  13.317  20.608  0.00  0.00    +0.000 S 
ATOM      4  C   UNL     1       1.738  14.982  20.367  0.00  0.00    +0.000 C 
ATOM      5  S   UNL     1       2.275  16.203  21.377  0.00  0.00    +0.000 S 
ATOM      6  N   UNL     1       0.811  15.039  19.336  0.00  0.00    +0.000 N 
ATOM      7  C   UNL     1       0.307  13.818  18.891  0.00  0.00    +0.000 C 
ATOM      8  O   UNL     1      -0.520  13.618  18.012  0.00  0.00    +0.000 OA
ENDROOT
BRANCH   6   9
ATOM      9  C   UNL     1       0.410  16.251  18.716  0.00  0.00    +0.000 A 
ATOM     10  C   UNL     1      -0.881  16.764  18.888  0.00  0.00    +0.000 A 
ATOM     11  C   UNL     1      -1.245  17.963  18.269  0.00  0.00    +0.000 A 
ATOM     12  C   UNL     1      -0.340  18.631  17.444  0.00  0.00    +0.000 A 
ATOM     13  C   UNL     1       0.937  18.111  17.248  0.00  0.00    +0.000 A 
ATOM     14  C   UNL     1       1.312  16.936  17.888  0.00  0.00    +0.000 A 
ENDBRANCH   6   9
BRANCH   1  18
ATOM     15  C   UNL     1      -0.792  10.829  22.139  0.00  0.00    +0.000 C 
ATOM     16  C   UNL     1       0.561  10.273  21.727  0.00  0.00    +0.000 C 
ATOM     17  O   UNL     1       1.264   9.710  22.568  0.00  0.00    +0.000 OA
ATOM     18  N   UNL     1       0.864  10.342  20.346  0.00  0.00    +0.000 N 
BRANCH  18  19
ATOM     19  C   UNL     1       1.446   9.166  19.724  0.00  0.00    +0.000 A 
ATOM     20  C   UNL     1       1.638   7.975  20.446  0.00  0.00    +0.000 A 
ATOM     21  C   UNL     1       2.176   6.835  19.841  0.00  0.00    +0.000 A 
ATOM     22  C   UNL     1       2.548   6.865  18.502  0.00  0.00    +0.000 A 
ATOM     23  C   UNL     1       2.376   8.036  17.768  0.00  0.00    +0.000 A 
ATOM     24  C   UNL     1       1.824   9.174  18.370  0.00  0.00    +0.000 A 
ENDBRANCH  18  19
ENDBRANCH   1  18
TORSDOF 3
ENDMDL
