MODEL 1
REMARK VINA RESULT:      -6.4      0.000      0.000
REMARK  Name = 
REMARK  4 active torsions:
REMARK  status: ('A' for Active; 'I' for Inactive)
REMARK    1  A    between atoms: C_1  and  N_2
REMARK    2  A    between atoms: N_2  and  C_3
REMARK    3  A    between atoms: C_3  and  C_4
REMARK    4  A    between atoms: N_12  and  C_13
REMARK                            x       y       z     vdW  Elec       q    Type
REMARK                         _______ _______ _______ _____ _____    ______ ____
ROOT
ATOM      1  C   UNL     1       0.956  10.818  18.582  0.00  0.00    +0.000 C 
ATOM      2  N   UNL     1      -0.344  11.040  19.195  0.00  0.00    +0.000 N 
ATOM      3  C   UNL     1      -0.426  12.105  20.071  0.00  0.00    +0.000 C 
ATOM      4  O   UNL     1       0.545  12.818  20.325  0.00  0.00    +0.000 OA
ATOM      5  N   UNL     1      -1.638  12.304  20.670  0.00  0.00    +0.000 N 
ATOM      6  H   UNL     1      -2.462  12.019  20.162  0.00  0.00    +0.000 HD
ENDROOT
BRANCH   5   7
ATOM      7  C   UNL     1      -1.825  13.394  21.633  0.00  0.00    +0.000 C 
ATOM      8  C   UNL     1      -1.623  12.897  23.080  0.00  0.00    +0.000 C 
ATOM      9  C   UNL     1      -2.801  12.060  23.592  0.00  0.00    +0.000 C 
ATOM     10  C   UNL     1      -4.135  12.776  23.384  0.00  0.00    +0.000 C 
ATOM     11  N   UNL     1      -4.239  13.155  21.986  0.00  0.00    +0.000 N 
ATOM     12  C   UNL     1      -5.328  12.806  21.234  0.00  0.00    +0.000 A 
ATOM     13  N   UNL     1      -6.298  12.068  21.799  0.00  0.00    +0.000 NA
ATOM     14  C   UNL     1      -7.363  11.736  21.046  0.00  0.00    +0.000 A 
ATOM     15  C   UNL     1      -7.505  12.107  19.736  0.00  0.00    +0.000 A 
ATOM     16  C   UNL     1      -6.467  12.845  19.231  0.00  0.00    +0.000 A 
ATOM     17  N   UNL     1      -5.379  13.186  19.947  0.00  0.00    +0.000 NA
ATOM     18  C   UNL     1      -3.211  14.054  21.475  0.00  0.00    +0.000 C 
ENDBRANCH   5   7
BRANCH   2  19
ATOM     19  C   UNL     1      -1.398  10.061  18.938  0.00  0.00    +0.000 C 
BRANCH  19  20
ATOM     20  C   UNL     1      -2.243  10.374  17.724  0.00  0.00    +0.000 A 
ATOM     21  C   UNL     1      -1.975   9.800  16.477  0.00  0.00    +0.000 A 
ATOM     22  C   UNL     1      -2.827  10.069  15.415  0.00  0.00    +0.000 A 
ATOM     23  N   UNL     1      -3.920  10.855  15.508  0.00  0.00    +0.000 NA
ATOM     24  C   UNL     1      -4.161  11.404  16.716  0.00  0.00    +0.000 A 
ATOM     25  C   UNL     1      -3.367  11.197  17.835  0.00  0.00    +0.000 A 
ENDBRANCH  19  20
ENDBRANCH   2  19
TORSDOF 3
ENDMDL
MODEL 2
REMARK VINA RESULT:      -6.1      0.911      1.318
REMARK  Name = 
REMARK  4 active torsions:
REMARK  status: ('A' for Active; 'I' for Inactive)
REMARK    1  A    between atoms: C_1  and  N_2
REMARK    2  A    between atoms: N_2  and  C_3
REMARK    3  A    between atoms: C_3  and  C_4
REMARK    4  A    between atoms: N_12  and  C_13
REMARK                            x       y       z     vdW  Elec       q    Type
REMARK                         _______ _______ _______ _____ _____    ______ ____
ROOT
ATOM      1  C   UNL     1       0.534  12.647  18.580  0.00  0.00    +0.000 C 
ATOM      2  N   UNL     1      -0.624  12.353  19.408  0.00  0.00    +0.000 N 
ATOM      3  C   UNL     1      -0.991  13.337  20.307  0.00  0.00    +0.000 C 
ATOM      4  O   UNL     1      -0.369  14.395  20.406  0.00  0.00    +0.000 OA
ATOM      5  N   UNL     1      -2.063  13.058  21.106  0.00  0.00    +0.000 N 
ATOM      6  H   UNL     1      -2.770  12.437  20.740  0.00  0.00    +0.000 HD
ENDROOT
BRANCH   5   7
ATOM      7  C   UNL     1      -2.521  14.026  22.108  0.00  0.00    +0.000 C 
ATOM      8  C   UNL     1      -2.348  13.470  23.536  0.00  0.00    +0.000 C 
ATOM      9  C   UNL     1      -3.392  12.405  23.891  0.00  0.00    +0.000 C 
ATOM     10  C   UNL     1      -4.813  12.889  23.603  0.00  0.00    +0.000 C 
ATOM     11  N   UNL     1      -4.872  13.343  22.225  0.00  0.00    +0.000 N 
ATOM     12  C   UNL     1      -5.816  12.865  21.359  0.00  0.00    +0.000 A 
ATOM     13  N   UNL     1      -6.679  11.929  21.790  0.00  0.00    +0.000 NA
ATOM     14  C   UNL     1      -7.603  11.471  20.925  0.00  0.00    +0.000 A 
ATOM     15  C   UNL     1      -7.705  11.904  19.631  0.00  0.00    +0.000 A 
ATOM     16  C   UNL     1      -6.781  12.848  19.265  0.00  0.00    +0.000 A 
ATOM     17  N   UNL     1      -5.833  13.321  20.095  0.00  0.00    +0.000 NA
ATOM     18  C   UNL     1      -3.986  14.443  21.862  0.00  0.00    +0.000 C 
ENDBRANCH   5   7
BRANCH   2  19
ATOM     19  C   UNL     1      -1.213  11.019  19.315  0.00  0.00    +0.000 C 
BRANCH  19  20
ATOM     20  C   UNL     1      -2.171  10.851  18.157  0.00  0.00    +0.000 A 
ATOM     21  C   UNL     1      -3.398  11.521  18.117  0.00  0.00    +0.000 A 
ATOM     22  C   UNL     1      -4.204  11.383  16.996  0.00  0.00    +0.000 A 
ATOM     23  N   UNL     1      -3.875  10.639  15.920  0.00  0.00    +0.000 NA
ATOM     24  C   UNL     1      -2.691   9.996  15.976  0.00  0.00    +0.000 A 
ATOM     25  C   UNL     1      -1.818  10.069  17.053  0.00  0.00    +0.000 A 
ENDBRANCH  19  20
ENDBRANCH   2  19
TORSDOF 3
ENDMDL
MODEL 3
REMARK VINA RESULT:      -6.0      2.175      3.752
REMARK  Name = 
REMARK  4 active torsions:
REMARK  status: ('A' for Active; 'I' for Inactive)
REMARK    1  A    between atoms: C_1  and  N_2
REMARK    2  A    between atoms: N_2  and  C_3
REMARK    3  A    between atoms: C_3  and  C_4
REMARK    4  A    between atoms: N_12  and  C_13
REMARK                            x       y       z     vdW  Elec       q    Type
REMARK                         _______ _______ _______ _____ _____    ______ ____
ROOT
ATOM      1  C   UNL     1      -1.365  15.087  21.191  0.00  0.00    +0.000 C 
ATOM      2  N   UNL     1      -2.479  14.191  21.458  0.00  0.00    +0.000 N 
ATOM      3  C   UNL     1      -3.708  14.793  21.648  0.00  0.00    +0.000 C 
ATOM      4  O   UNL     1      -3.851  16.016  21.602  0.00  0.00    +0.000 OA
ATOM      5  N   UNL     1      -4.755  13.960  21.924  0.00  0.00    +0.000 N 
ATOM      6  H   UNL     1      -4.718  13.023  21.548  0.00  0.00    +0.000 HD
ENDROOT
BRANCH   5   7
ATOM      7  C   UNL     1      -6.097  14.499  22.163  0.00  0.00    +0.000 C 
ATOM      8  C   UNL     1      -6.488  14.375  23.650  0.00  0.00    +0.000 C 
ATOM      9  C   UNL     1      -6.846  12.939  24.054  0.00  0.00    +0.000 C 
ATOM     10  C   UNL     1      -7.879  12.327  23.108  0.00  0.00    +0.000 C 
ATOM     11  N   UNL     1      -7.388  12.458  21.747  0.00  0.00    +0.000 N 
ATOM     12  C   UNL     1      -7.302  11.375  20.916  0.00  0.00    +0.000 A 
ATOM     13  N   UNL     1      -7.646  10.165  21.388  0.00  0.00    +0.000 NA
ATOM     14  C   UNL     1      -7.557   9.110  20.557  0.00  0.00    +0.000 A 
ATOM     15  C   UNL     1      -7.131   9.206  19.260  0.00  0.00    +0.000 A 
ATOM     16  C   UNL     1      -6.787  10.471  18.860  0.00  0.00    +0.000 A 
ATOM     17  N   UNL     1      -6.848  11.548  19.664  0.00  0.00    +0.000 NA
ATOM     18  C   UNL     1      -7.150  13.813  21.267  0.00  0.00    +0.000 C 
ENDBRANCH   5   7
BRANCH   2  19
ATOM     19  C   UNL     1      -2.190  12.769  21.627  0.00  0.00    +0.000 C 
BRANCH  19  20
ATOM     20  C   UNL     1      -1.902  12.043  20.333  0.00  0.00    +0.000 A 
ATOM     21  C   UNL     1      -0.761  11.250  20.174  0.00  0.00    +0.000 A 
ATOM     22  C   UNL     1      -0.585  10.551  18.989  0.00  0.00    +0.000 A 
ATOM     23  N   UNL     1      -1.461  10.579  17.963  0.00  0.00    +0.000 NA
ATOM     24  C   UNL     1      -2.554  11.351  18.129  0.00  0.00    +0.000 A 
ATOM     25  C   UNL     1      -2.816  12.089  19.276  0.00  0.00    +0.000 A 
ENDBRANCH  19  20
ENDBRANCH   2  19
TORSDOF 3
ENDMDL
MODEL 4
REMARK VINA RESULT:      -5.9      2.582      5.042
REMARK  Name = 
REMARK  4 active torsions:
REMARK  status: ('A' for Active; 'I' for Inactive)
REMARK    1  A    between atoms: C_1  and  N_2
REMARK    2  A    between atoms: N_2  and  C_3
REMARK    3  A    between atoms: C_3  and  C_4
REMARK    4  A    between atoms: N_12  and  C_13
REMARK                            x       y       z     vdW  Elec       q    Type
REMARK                         _______ _______ _______ _____ _____    ______ ____
ROOT
ATOM      1  C   UNL     1      -6.970   9.255  19.464  0.00  0.00    +0.000 C 
ATOM      2  N   UNL     1      -6.833  10.698  19.568  0.00  0.00    +0.000 N 
ATOM      3  C   UNL     1      -7.213  11.258  20.773  0.00  0.00    +0.000 C 
ATOM      4  O   UNL     1      -7.650  10.576  21.700  0.00  0.00    +0.000 OA
ATOM      5  N   UNL     1      -7.111  12.617  20.869  0.00  0.00    +0.000 N 
ATOM      6  H   UNL     1      -6.397  13.072  20.318  0.00  0.00    +0.000 HD
ENDROOT
BRANCH   5   7
ATOM      7  C   UNL     1      -7.509  13.311  22.098  0.00  0.00    +0.000 C 
ATOM      8  C   UNL     1      -7.916  14.770  21.803  0.00  0.00    +0.000 C 
ATOM      9  C   UNL     1      -6.714  15.678  21.518  0.00  0.00    +0.000 C 
ATOM     10  C   UNL     1      -5.646  15.561  22.606  0.00  0.00    +0.000 C 
ATOM     11  N   UNL     1      -5.307  14.157  22.765  0.00  0.00    +0.000 N 
ATOM     12  C   UNL     1      -4.010  13.728  22.696  0.00  0.00    +0.000 A 
ATOM     13  N   UNL     1      -3.042  14.623  22.439  0.00  0.00    +0.000 NA
ATOM     14  C   UNL     1      -1.771  14.183  22.377  0.00  0.00    +0.000 A 
ATOM     15  C   UNL     1      -1.417  12.874  22.556  0.00  0.00    +0.000 A 
ATOM     16  C   UNL     1      -2.462  12.023  22.800  0.00  0.00    +0.000 A 
ATOM     17  N   UNL     1      -3.747  12.420  22.856  0.00  0.00    +0.000 NA
ATOM     18  C   UNL     1      -6.390  13.265  23.160  0.00  0.00    +0.000 C 
ENDBRANCH   5   7
BRANCH   2  19
ATOM     19  C   UNL     1      -6.435  11.437  18.371  0.00  0.00    +0.000 C 
BRANCH  19  20
ATOM     20  C   UNL     1      -4.941  11.473  18.141  0.00  0.00    +0.000 A 
ATOM     21  C   UNL     1      -4.376  11.072  16.927  0.00  0.00    +0.000 A 
ATOM     22  C   UNL     1      -3.006  11.194  16.748  0.00  0.00    +0.000 A 
ATOM     23  N   UNL     1      -2.167  11.690  17.682  0.00  0.00    +0.000 NA
ATOM     24  C   UNL     1      -2.727  12.069  18.848  0.00  0.00    +0.000 A 
ATOM     25  C   UNL     1      -4.085  11.982  19.122  0.00  0.00    +0.000 A 
ENDBRANCH  19  20
ENDBRANCH   2  19
TORSDOF 3
ENDMDL
MODEL 5
REMARK VINA RESULT:      -5.9      1.586      2.065
REMARK  Name = 
REMARK  4 active torsions:
REMARK  status: ('A' for Active; 'I' for Inactive)
REMARK    1  A    between atoms: C_1  and  N_2
REMARK    2  A    between atoms: N_2  and  C_3
REMARK    3  A    between atoms: C_3  and  C_4
REMARK    4  A    between atoms: N_12  and  C_13
REMARK                            x       y       z     vdW  Elec       q    Type
REMARK                         _______ _______ _______ _____ _____    ______ ____
ROOT
ATOM      1  C   UNL     1      -0.223  14.483  19.142  0.00  0.00    +0.000 C 
ATOM      2  N   UNL     1      -1.035  13.759  20.106  0.00  0.00    +0.000 N 
ATOM      3  C   UNL     1      -1.784  14.534  20.971  0.00  0.00    +0.000 C 
ATOM      4  O   UNL     1      -1.757  15.765  20.933  0.00  0.00    +0.000 OA
ATOM      5  N   UNL     1      -2.530  13.862  21.896  0.00  0.00    +0.000 N 
ATOM      6  H   UNL     1      -2.861  12.941  21.649  0.00  0.00    +0.000 HD
ENDROOT
BRANCH   5   7
ATOM      7  C   UNL     1      -3.343  14.592  22.874  0.00  0.00    +0.000 C 
ATOM      8  C   UNL     1      -3.254  13.937  24.268  0.00  0.00    +0.000 C 
ATOM      9  C   UNL     1      -4.059  12.636  24.368  0.00  0.00    +0.000 C 
ATOM     10  C   UNL     1      -5.497  12.822  23.883  0.00  0.00    +0.000 C 
ATOM     11  N   UNL     1      -5.459  13.398  22.549  0.00  0.00    +0.000 N 
ATOM     12  C   UNL     1      -6.128  12.818  21.507  0.00  0.00    +0.000 A 
ATOM     13  N   UNL     1      -6.800  11.675  21.721  0.00  0.00    +0.000 NA
ATOM     14  C   UNL     1      -7.454  11.119  20.684  0.00  0.00    +0.000 A 
ATOM     15  C   UNL     1      -7.466  11.655  19.425  0.00  0.00    +0.000 A 
ATOM     16  C   UNL     1      -6.746  12.813  19.286  0.00  0.00    +0.000 A 
ATOM     17  N   UNL     1      -6.067  13.392  20.294  0.00  0.00    +0.000 NA
ATOM     18  C   UNL     1      -4.814  14.699  22.418  0.00  0.00    +0.000 C 
ENDBRANCH   5   7
BRANCH   2  19
ATOM     19  C   UNL     1      -0.897  12.305  20.165  0.00  0.00    +0.000 C 
BRANCH  19  20
ATOM     20  C   UNL     1      -1.649  11.573  19.077  0.00  0.00    +0.000 A 
ATOM     21  C   UNL     1      -1.027  10.611  18.276  0.00  0.00    +0.000 A 
ATOM     22  C   UNL     1      -1.784   9.920  17.340  0.00  0.00    +0.000 A 
ATOM     23  N   UNL     1      -3.107  10.114  17.154  0.00  0.00    +0.000 NA
ATOM     24  C   UNL     1      -3.691  11.048  17.930  0.00  0.00    +0.000 A 
ATOM     25  C   UNL     1      -3.017  11.791  18.890  0.00  0.00    +0.000 A 
ENDBRANCH  19  20
ENDBRANCH   2  19
TORSDOF 3
ENDMDL
MODEL 6
REMARK VINA RESULT:      -5.9      2.140      4.774
REMARK  Name = 
REMARK  4 active torsions:
REMARK  status: ('A' for Active; 'I' for Inactive)
REMARK    1  A    between atoms: C_1  and  N_2
REMARK    2  A    between atoms: N_2  and  C_3
REMARK    3  A    between atoms: C_3  and  C_4
REMARK    4  A    between atoms: N_12  and  C_13
REMARK                            x       y       z     vdW  Elec       q    Type
REMARK                         _______ _______ _______ _____ _____    ______ ____
ROOT
ATOM      1  C   UNL     1      -2.201  10.376  17.031  0.00  0.00    +0.000 C 
ATOM      2  N   UNL     1      -2.701  11.339  17.998  0.00  0.00    +0.000 N 
ATOM      3  C   UNL     1      -4.073  11.383  18.156  0.00  0.00    +0.000 C 
ATOM      4  O   UNL     1      -4.828  10.656  17.510  0.00  0.00    +0.000 OA
ATOM      5  N   UNL     1      -4.551  12.304  19.044  0.00  0.00    +0.000 N 
ATOM      6  H   UNL     1      -3.958  12.556  19.822  0.00  0.00    +0.000 HD
ENDROOT
BRANCH   5   7
ATOM      7  C   UNL     1      -5.993  12.446  19.270  0.00  0.00    +0.000 C 
ATOM      8  C   UNL     1      -6.534  13.732  18.609  0.00  0.00    +0.000 C 
ATOM      9  C   UNL     1      -6.151  15.003  19.377  0.00  0.00    +0.000 C 
ATOM     10  C   UNL     1      -6.506  14.895  20.860  0.00  0.00    +0.000 C 
ATOM     11  N   UNL     1      -5.910  13.679  21.386  0.00  0.00    +0.000 N 
ATOM     12  C   UNL     1      -5.111  13.703  22.496  0.00  0.00    +0.000 A 
ATOM     13  N   UNL     1      -4.848  14.883  23.083  0.00  0.00    +0.000 NA
ATOM     14  C   UNL     1      -4.061  14.888  24.175  0.00  0.00    +0.000 A 
ATOM     15  C   UNL     1      -3.513  13.757  24.714  0.00  0.00    +0.000 A 
ATOM     16  C   UNL     1      -3.817  12.597  24.051  0.00  0.00    +0.000 A 
ATOM     17  N   UNL     1      -4.587  12.551  22.948  0.00  0.00    +0.000 NA
ATOM     18  C   UNL     1      -6.334  12.426  20.775  0.00  0.00    +0.000 C 
ENDBRANCH   5   7
BRANCH   2  19
ATOM     19  C   UNL     1      -1.740  12.252  18.615  0.00  0.00    +0.000 C 
BRANCH  19  20
ATOM     20  C   UNL     1      -1.063  11.691  19.844  0.00  0.00    +0.000 A 
ATOM     21  C   UNL     1       0.069  10.875  19.750  0.00  0.00    +0.000 A 
ATOM     22  C   UNL     1       0.690  10.447  20.914  0.00  0.00    +0.000 A 
ATOM     23  N   UNL     1       0.272  10.777  22.154  0.00  0.00    +0.000 NA
ATOM     24  C   UNL     1      -0.822  11.560  22.228  0.00  0.00    +0.000 A 
ATOM     25  C   UNL     1      -1.514  12.035  21.122  0.00  0.00    +0.000 A 
ENDBRANCH  19  20
ENDBRANCH   2  19
TORSDOF 3
ENDMDL
MODEL 7
REMARK VINA RESULT:      -5.9      2.989      4.650
REMARK  Name = 
REMARK  4 active torsions:
REMARK  status: ('A' for Active; 'I' for Inactive)
REMARK    1  A    between atoms: C_1  and  N_2
REMARK    2  A    between atoms: N_2  and  C_3
REMARK    3  A    between atoms: C_3  and  C_4
REMARK    4  A    between atoms: N_12  and  C_13
REMARK                            x       y       z     vdW  Elec       q    Type
REMARK                         _______ _______ _______ _____ _____    ______ ____
ROOT
ATOM      1  C   UNL     1      -0.795  14.069  22.860  0.00  0.00    +0.000 C 
ATOM      2  N   UNL     1      -2.011  13.614  22.205  0.00  0.00    +0.000 N 
ATOM      3  C   UNL     1      -3.173  14.271  22.561  0.00  0.00    +0.000 C 
ATOM      4  O   UNL     1      -3.179  15.183  23.389  0.00  0.00    +0.000 OA
ATOM      5  N   UNL     1      -4.323  13.832  21.969  0.00  0.00    +0.000 N 
ATOM      6  H   UNL     1      -4.249  13.427  21.047  0.00  0.00    +0.000 HD
ENDROOT
BRANCH   5   7
ATOM      7  C   UNL     1      -5.613  14.449  22.293  0.00  0.00    +0.000 C 
ATOM      8  C   UNL     1      -5.958  14.261  23.786  0.00  0.00    +0.000 C 
ATOM      9  C   UNL     1      -6.403  12.833  24.119  0.00  0.00    +0.000 C 
ATOM     10  C   UNL     1      -7.512  12.353  23.182  0.00  0.00    +0.000 C 
ATOM     11  N   UNL     1      -7.062  12.532  21.812  0.00  0.00    +0.000 N 
ATOM     12  C   UNL     1      -7.085  11.498  20.917  0.00  0.00    +0.000 A 
ATOM     13  N   UNL     1      -7.498  10.288  21.331  0.00  0.00    +0.000 NA
ATOM     14  C   UNL     1      -7.516   9.282  20.437  0.00  0.00    +0.000 A 
ATOM     15  C   UNL     1      -7.131   9.428  19.132  0.00  0.00    +0.000 A 
ATOM     16  C   UNL     1      -6.711  10.687  18.792  0.00  0.00    +0.000 A 
ATOM     17  N   UNL     1      -6.665  11.715  19.660  0.00  0.00    +0.000 NA
ATOM     18  C   UNL     1      -6.744  13.894  21.402  0.00  0.00    +0.000 C 
ENDBRANCH   5   7
BRANCH   2  19
ATOM     19  C   UNL     1      -1.925  12.438  21.341  0.00  0.00    +0.000 C 
BRANCH  19  20
ATOM     20  C   UNL     1      -0.915  11.411  21.801  0.00  0.00    +0.000 A 
ATOM     21  C   UNL     1      -1.091  10.689  22.985  0.00  0.00    +0.000 A 
ATOM     22  C   UNL     1      -0.168   9.709  23.320  0.00  0.00    +0.000 A 
ATOM     23  N   UNL     1       0.904   9.396  22.563  0.00  0.00    +0.000 NA
ATOM     24  C   UNL     1       1.062  10.104  21.427  0.00  0.00    +0.000 A 
ATOM     25  C   UNL     1       0.195  11.104  21.009  0.00  0.00    +0.000 A 
ENDBRANCH  19  20
ENDBRANCH   2  19
TORSDOF 3
ENDMDL
MODEL 8
REMARK VINA RESULT:      -5.9      2.047      5.221
REMARK  Name = 
REMARK  4 active torsions:
REMARK  status: ('A' for Active; 'I' for Inactive)
REMARK    1  A    between atoms: C_1  and  N_2
REMARK    2  A    between atoms: N_2  and  C_3
REMARK    3  A    between atoms: C_3  and  C_4
REMARK    4  A    between atoms: N_12  and  C_13
REMARK                            x       y       z     vdW  Elec       q    Type
REMARK                         _______ _______ _______ _____ _____    ______ ____
ROOT
ATOM      1  C   UNL     1      -1.575  14.072  23.828  0.00  0.00    +0.000 C 
ATOM      2  N   UNL     1      -2.484  13.148  23.168  0.00  0.00    +0.000 N 
ATOM      3  C   UNL     1      -3.488  13.723  22.412  0.00  0.00    +0.000 C 
ATOM      4  O   UNL     1      -3.610  14.945  22.310  0.00  0.00    +0.000 OA
ATOM      5  N   UNL     1      -4.361  12.863  21.810  0.00  0.00    +0.000 N 
ATOM      6  H   UNL     1      -4.016  11.948  21.556  0.00  0.00    +0.000 HD
ENDROOT
BRANCH   5   7
ATOM      7  C   UNL     1      -5.474  13.371  21.002  0.00  0.00    +0.000 C 
ATOM      8  C   UNL     1      -6.773  12.592  21.295  0.00  0.00    +0.000 C 
ATOM      9  C   UNL     1      -6.782  11.192  20.670  0.00  0.00    +0.000 C 
ATOM     10  C   UNL     1      -6.430  11.235  19.183  0.00  0.00    +0.000 C 
ATOM     11  N   UNL     1      -5.173  11.947  19.031  0.00  0.00    +0.000 N 
ATOM     12  C   UNL     1      -4.122  11.396  18.349  0.00  0.00    +0.000 A 
ATOM     13  N   UNL     1      -4.253  10.157  17.846  0.00  0.00    +0.000 NA
ATOM     14  C   UNL     1      -3.210   9.631  17.176  0.00  0.00    +0.000 A 
ATOM     15  C   UNL     1      -2.026  10.290  16.986  0.00  0.00    +0.000 A 
ATOM     16  C   UNL     1      -1.969  11.542  17.541  0.00  0.00    +0.000 A 
ATOM     17  N   UNL     1      -2.983  12.097  18.230  0.00  0.00    +0.000 NA
ATOM     18  C   UNL     1      -5.145  13.328  19.495  0.00  0.00    +0.000 C 
ENDBRANCH   5   7
BRANCH   2  19
ATOM     19  C   UNL     1      -2.343  11.723  23.458  0.00  0.00    +0.000 C 
BRANCH  19  20
ATOM     20  C   UNL     1      -1.246  11.043  22.671  0.00  0.00    +0.000 A 
ATOM     21  C   UNL     1      -0.888  11.474  21.390  0.00  0.00    +0.000 A 
ATOM     22  C   UNL     1       0.174  10.856  20.744  0.00  0.00    +0.000 A 
ATOM     23  N   UNL     1       0.902   9.856  21.282  0.00  0.00    +0.000 NA
ATOM     24  C   UNL     1       0.541   9.449  22.516  0.00  0.00    +0.000 A 
ATOM     25  C   UNL     1      -0.507  10.002  23.240  0.00  0.00    +0.000 A 
ENDBRANCH  19  20
ENDBRANCH   2  19
TORSDOF 3
ENDMDL
MODEL 9
REMARK VINA RESULT:      -5.9      1.912      3.743
REMARK  Name = 
REMARK  4 active torsions:
REMARK  status: ('A' for Active; 'I' for Inactive)
REMARK    1  A    between atoms: C_1  and  N_2
REMARK    2  A    between atoms: N_2  and  C_3
REMARK    3  A    between atoms: C_3  and  C_4
REMARK    4  A    between atoms: N_12  and  C_13
REMARK                            x       y       z     vdW  Elec       q    Type
REMARK                         _______ _______ _______ _____ _____    ______ ____
ROOT
ATOM      1  C   UNL     1      -2.538   9.936  16.048  0.00  0.00    +0.000 C 
ATOM      2  N   UNL     1      -2.610  10.164  17.483  0.00  0.00    +0.000 N 
ATOM      3  C   UNL     1      -1.404  10.370  18.125  0.00  0.00    +0.000 C 
ATOM      4  O   UNL     1      -0.331  10.354  17.520  0.00  0.00    +0.000 OA
ATOM      5  N   UNL     1      -1.462  10.560  19.476  0.00  0.00    +0.000 N 
ATOM      6  H   UNL     1      -2.299  10.980  19.854  0.00  0.00    +0.000 HD
ENDROOT
BRANCH   5   7
ATOM      7  C   UNL     1      -0.237  10.766  20.255  0.00  0.00    +0.000 C 
ATOM      8  C   UNL     1       0.200   9.463  20.957  0.00  0.00    +0.000 C 
ATOM      9  C   UNL     1      -0.674   9.118  22.169  0.00  0.00    +0.000 C 
ATOM     10  C   UNL     1      -0.804  10.302  23.127  0.00  0.00    +0.000 C 
ATOM     11  N   UNL     1      -1.264  11.454  22.371  0.00  0.00    +0.000 N 
ATOM     12  C   UNL     1      -2.365  12.166  22.761  0.00  0.00    +0.000 A 
ATOM     13  N   UNL     1      -3.050  11.762  23.844  0.00  0.00    +0.000 NA
ATOM     14  C   UNL     1      -4.130  12.475  24.215  0.00  0.00    +0.000 A 
ATOM     15  C   UNL     1      -4.568  13.584  23.543  0.00  0.00    +0.000 A 
ATOM     16  C   UNL     1      -3.824  13.922  22.444  0.00  0.00    +0.000 A 
ATOM     17  N   UNL     1      -2.747  13.227  22.032  0.00  0.00    +0.000 NA
ATOM     18  C   UNL     1      -0.406  11.905  21.283  0.00  0.00    +0.000 C 
ENDBRANCH   5   7
BRANCH   2  19
ATOM     19  C   UNL     1      -3.912  10.031  18.133  0.00  0.00    +0.000 C 
BRANCH  19  20
ATOM     20  C   UNL     1      -4.722  11.307  18.152  0.00  0.00    +0.000 A 
ATOM     21  C   UNL     1      -5.399  11.763  17.017  0.00  0.00    +0.000 A 
ATOM     22  C   UNL     1      -6.184  12.903  17.113  0.00  0.00    +0.000 A 
ATOM     23  N   UNL     1      -6.347  13.610  18.251  0.00  0.00    +0.000 NA
ATOM     24  C   UNL     1      -5.684  13.160  19.335  0.00  0.00    +0.000 A 
ATOM     25  C   UNL     1      -4.874  12.032  19.337  0.00  0.00    +0.000 A 
ENDBRANCH  19  20
ENDBRANCH   2  19
TORSDOF 3
ENDMDL
