MODEL 1
REMARK VINA RESULT:      -7.4      0.000      0.000
REMARK  Name = 
REMARK  11 active torsions:
REMARK  status: ('A' for Active; 'I' for Inactive)
REMARK    1  A    between atoms: C_1  and  C_2
REMARK    2  A    between atoms: C_2  and  C_3
REMARK    3  A    between atoms: C_3  and  C_4
REMARK    4  A    between atoms: C_4  and  C_5
REMARK    5  A    between atoms: C_5  and  C_6
REMARK    6  A    between atoms: C_6  and  C_7
REMARK    7  A    between atoms: C_8  and  C_9
REMARK    8  A    between atoms: C_12  and  C_13
REMARK    9  A    between atoms: C_18  and  C_19
REMARK   10  A    between atoms: N_23  and  C_24
REMARK   11  A    between atoms: C_24  and  C_25
REMARK                            x       y       z     vdW  Elec       q    Type
REMARK                         _______ _______ _______ _____ _____    ______ ____
ROOT
ATOM      1  C   UNL     1       0.438  11.357  18.824  0.00  0.00    +0.000 C 
ATOM      2  C   UNL     1      -0.966  11.571  18.230  0.00  0.00    +0.000 C 
ATOM      3  C   UNL     1      -1.631  10.550  17.354  0.00  0.00    +0.000 C 
ATOM      4  C   UNL     1      -2.962  10.366  17.406  0.00  0.00    +0.000 C 
ATOM      5  C   UNL     1      -3.881  11.138  18.327  0.00  0.00    +0.000 C 
ATOM      6  C   UNL     1      -3.203  12.302  19.102  0.00  0.00    +0.000 C 
ATOM      7  C   UNL     1      -4.060  12.700  20.301  0.00  0.00    +0.000 C 
ATOM      8  C   UNL     1      -1.804  11.839  19.492  0.00  0.00    +0.000 C 
ATOM      9  C   UNL     1      -0.854  12.694  20.305  0.00  0.00    +0.000 C 
ATOM     10  O   UNL     1      -1.152  13.420  21.237  0.00  0.00    +0.000 OA
ATOM     11  N   UNL     1       0.442  12.334  19.915  0.00  0.00    +0.000 N 
ENDROOT
BRANCH   1  15
ATOM     12  C   UNL     1       1.640   7.455  20.249  0.00  0.00    +0.000 A 
ATOM     13  C   UNL     1       0.759   8.233  21.006  0.00  0.00    +0.000 A 
ATOM     14  C   UNL     1       0.303   9.457  20.528  0.00  0.00    +0.000 A 
ATOM     15  C   UNL     1       0.741   9.950  19.291  0.00  0.00    +0.000 A 
ATOM     16  C   UNL     1       1.553   9.127  18.509  0.00  0.00    +0.000 A 
ATOM     17  F   UNL     1       1.959   9.545  17.301  0.00  0.00    +0.000 F 
ATOM     18  C   UNL     1       2.005   7.896  18.973  0.00  0.00    +0.000 A 
BRANCH  12  20
ATOM     19  C   UNL     1       1.702   5.067  20.928  0.00  0.00    +0.000 C 
ATOM     20  C   UNL     1       2.290   6.266  20.805  0.00  0.00    +0.000 C 
BRANCH  19  21
ATOM     21  C   UNL     1       2.372   3.896  21.572  0.00  0.00    +0.000 C 
BRANCH  21  22
ATOM     22  C   UNL     1       2.005   2.620  20.826  0.00  0.00    +0.000 C 
BRANCH  22  23
ATOM     23  C   UNL     1       1.028   2.921  19.698  0.00  0.00    +0.000 C 
BRANCH  23  24
ATOM     24  C   UNL     1       1.642   2.562  18.349  0.00  0.00    +0.000 C 
BRANCH  24  26
ATOM     25  C   UNL     1       3.255   4.381  17.736  0.00  0.00    +0.000 C 
ATOM     26  C   UNL     1       1.867   3.810  17.503  0.00  0.00    +0.000 C 
ENDBRANCH  24  26
ENDBRANCH  23  24
ENDBRANCH  22  23
ENDBRANCH  21  22
ENDBRANCH  19  21
ENDBRANCH  12  20
ENDBRANCH   1  15
BRANCH  11  27
ATOM     27  C   UNL     1       1.604  12.563  20.756  0.00  0.00    +0.000 C 
BRANCH  27  28
ATOM     28  C   UNL     1       2.462  13.724  20.339  0.00  0.00    +0.000 A 
ATOM     29  C   UNL     1       3.580  14.083  21.103  0.00  0.00    +0.000 A 
ATOM     30  C   UNL     1       4.431  15.101  20.675  0.00  0.00    +0.000 A 
ATOM     31  C   UNL     1       4.168  15.777  19.486  0.00  0.00    +0.000 A 
ATOM     32  C   UNL     1       3.048  15.441  18.727  0.00  0.00    +0.000 A 
ATOM     33  C   UNL     1       2.194  14.421  19.153  0.00  0.00    +0.000 A 
ENDBRANCH  27  28
ENDBRANCH  11  27
TORSDOF 9
ENDMDL
MODEL 2
REMARK VINA RESULT:      -7.2      1.926      3.274
REMARK  Name = 
REMARK  11 active torsions:
REMARK  status: ('A' for Active; 'I' for Inactive)
REMARK    1  A    between atoms: C_1  and  C_2
REMARK    2  A    between atoms: C_2  and  C_3
REMARK    3  A    between atoms: C_3  and  C_4
REMARK    4  A    between atoms: C_4  and  C_5
REMARK    5  A    between atoms: C_5  and  C_6
REMARK    6  A    between atoms: C_6  and  C_7
REMARK    7  A    between atoms: C_8  and  C_9
REMARK    8  A    between atoms: C_12  and  C_13
REMARK    9  A    between atoms: C_18  and  C_19
REMARK   10  A    between atoms: N_23  and  C_24
REMARK   11  A    between atoms: C_24  and  C_25
REMARK                            x       y       z     vdW  Elec       q    Type
REMARK                         _______ _______ _______ _____ _____    ______ ____
ROOT
ATOM      1  C   UNL     1      -0.837  13.644  20.489  0.00  0.00    +0.000 C 
ATOM      2  C   UNL     1      -2.295  13.815  20.951  0.00  0.00    +0.000 C 
ATOM      3  C   UNL     1      -3.415  12.982  20.399  0.00  0.00    +0.000 C 
ATOM      4  C   UNL     1      -4.443  12.612  21.183  0.00  0.00    +0.000 C 
ATOM      5  C   UNL     1      -4.560  12.979  22.646  0.00  0.00    +0.000 C 
ATOM      6  C   UNL     1      -3.483  13.977  23.157  0.00  0.00    +0.000 C 
ATOM      7  C   UNL     1      -3.400  13.921  24.680  0.00  0.00    +0.000 C 
ATOM      8  C   UNL     1      -2.168  13.622  22.472  0.00  0.00    +0.000 C 
ATOM      9  C   UNL     1      -0.871  14.351  22.757  0.00  0.00    +0.000 C 
ATOM     10  O   UNL     1      -0.493  14.756  23.843  0.00  0.00    +0.000 OA
ATOM     11  N   UNL     1      -0.109  14.288  21.585  0.00  0.00    +0.000 N 
ENDROOT
BRANCH   1  15
ATOM     12  C   UNL     1       0.759   9.705  19.692  0.00  0.00    +0.000 A 
ATOM     13  C   UNL     1       0.555  10.121  21.011  0.00  0.00    +0.000 A 
ATOM     14  C   UNL     1      -0.028  11.355  21.285  0.00  0.00    +0.000 A 
ATOM     15  C   UNL     1      -0.394  12.218  20.243  0.00  0.00    +0.000 A 
ATOM     16  C   UNL     1      -0.262  11.757  18.932  0.00  0.00    +0.000 A 
ATOM     17  F   UNL     1      -0.641  12.537  17.909  0.00  0.00    +0.000 F 
ATOM     18  C   UNL     1       0.309  10.520  18.649  0.00  0.00    +0.000 A 
BRANCH  12  20
ATOM     19  C   UNL     1       2.311   8.375  18.282  0.00  0.00    +0.000 C 
ATOM     20  C   UNL     1       1.545   8.510  19.374  0.00  0.00    +0.000 C 
BRANCH  19  21
ATOM     21  C   UNL     1       3.038   7.111  17.951  0.00  0.00    +0.000 C 
BRANCH  21  22
ATOM     22  C   UNL     1       2.542   5.983  18.846  0.00  0.00    +0.000 C 
BRANCH  22  23
ATOM     23  C   UNL     1       1.865   4.900  18.017  0.00  0.00    +0.000 C 
BRANCH  23  24
ATOM     24  C   UNL     1       1.726   3.616  18.827  0.00  0.00    +0.000 C 
BRANCH  24  26
ATOM     25  C   UNL     1       1.409   2.963  21.227  0.00  0.00    +0.000 C 
ATOM     26  C   UNL     1       0.924   3.859  20.100  0.00  0.00    +0.000 C 
ENDBRANCH  24  26
ENDBRANCH  23  24
ENDBRANCH  22  23
ENDBRANCH  21  22
ENDBRANCH  19  21
ENDBRANCH  12  20
ENDBRANCH   1  15
BRANCH  11  27
ATOM     27  C   UNL     1       1.335  14.441  21.580  0.00  0.00    +0.000 C 
BRANCH  27  28
ATOM     28  C   UNL     1       1.934  14.705  20.227  0.00  0.00    +0.000 A 
ATOM     29  C   UNL     1       1.704  15.927  19.582  0.00  0.00    +0.000 A 
ATOM     30  C   UNL     1       2.328  16.215  18.369  0.00  0.00    +0.000 A 
ATOM     31  C   UNL     1       3.180  15.280  17.784  0.00  0.00    +0.000 A 
ATOM     32  C   UNL     1       3.402  14.054  18.408  0.00  0.00    +0.000 A 
ATOM     33  C   UNL     1       2.779  13.764  19.624  0.00  0.00    +0.000 A 
ENDBRANCH  27  28
ENDBRANCH  11  27
TORSDOF 9
ENDMDL
MODEL 3
REMARK VINA RESULT:      -7.1      1.934      3.131
REMARK  Name = 
REMARK  11 active torsions:
REMARK  status: ('A' for Active; 'I' for Inactive)
REMARK    1  A    between atoms: C_1  and  C_2
REMARK    2  A    between atoms: C_2  and  C_3
REMARK    3  A    between atoms: C_3  and  C_4
REMARK    4  A    between atoms: C_4  and  C_5
REMARK    5  A    between atoms: C_5  and  C_6
REMARK    6  A    between atoms: C_6  and  C_7
REMARK    7  A    between atoms: C_8  and  C_9
REMARK    8  A    between atoms: C_12  and  C_13
REMARK    9  A    between atoms: C_18  and  C_19
REMARK   10  A    between atoms: N_23  and  C_24
REMARK   11  A    between atoms: C_24  and  C_25
REMARK                            x       y       z     vdW  Elec       q    Type
REMARK                         _______ _______ _______ _____ _____    ______ ____
ROOT
ATOM      1  C   UNL     1      -0.698  13.452  20.720  0.00  0.00    +0.000 C 
ATOM      2  C   UNL     1      -2.148  13.741  21.144  0.00  0.00    +0.000 C 
ATOM      3  C   UNL     1      -3.300  12.884  20.706  0.00  0.00    +0.000 C 
ATOM      4  C   UNL     1      -4.342  12.666  21.526  0.00  0.00    +0.000 C 
ATOM      5  C   UNL     1      -4.446  13.237  22.923  0.00  0.00    +0.000 C 
ATOM      6  C   UNL     1      -3.331  14.254  23.298  0.00  0.00    +0.000 C 
ATOM      7  C   UNL     1      -3.253  14.407  24.814  0.00  0.00    +0.000 C 
ATOM      8  C   UNL     1      -2.030  13.757  22.678  0.00  0.00    +0.000 C 
ATOM      9  C   UNL     1      -0.706  14.468  22.867  0.00  0.00    +0.000 C 
ATOM     10  O   UNL     1      -0.314  15.005  23.888  0.00  0.00    +0.000 OA
ATOM     11  N   UNL     1       0.054  14.213  21.720  0.00  0.00    +0.000 N 
ENDROOT
BRANCH   1  15
ATOM     12  C   UNL     1       0.761   9.382  20.597  0.00  0.00    +0.000 A 
ATOM     13  C   UNL     1       0.217   9.894  21.780  0.00  0.00    +0.000 A 
ATOM     14  C   UNL     1      -0.325  11.174  21.817  0.00  0.00    +0.000 A 
ATOM     15  C   UNL     1      -0.310  11.990  20.676  0.00  0.00    +0.000 A 
ATOM     16  C   UNL     1       0.159  11.438  19.483  0.00  0.00    +0.000 A 
ATOM     17  F   UNL     1       0.150  12.173  18.360  0.00  0.00    +0.000 F 
ATOM     18  C   UNL     1       0.693  10.154  19.434  0.00  0.00    +0.000 A 
BRANCH  12  20
ATOM     19  C   UNL     1       2.111   7.618  19.488  0.00  0.00    +0.000 C 
ATOM     20  C   UNL     1       1.514   8.126  20.575  0.00  0.00    +0.000 C 
BRANCH  19  21
ATOM     21  C   UNL     1       2.804   6.294  19.485  0.00  0.00    +0.000 C 
BRANCH  21  22
ATOM     22  C   UNL     1       3.402   6.029  18.110  0.00  0.00    +0.000 C 
BRANCH  22  23
ATOM     23  C   UNL     1       3.005   4.647  17.610  0.00  0.00    +0.000 C 
BRANCH  23  24
ATOM     24  C   UNL     1       1.545   4.359  17.940  0.00  0.00    +0.000 C 
BRANCH  24  26
ATOM     25  C   UNL     1       0.828   3.156  20.020  0.00  0.00    +0.000 C 
ATOM     26  C   UNL     1       1.397   3.003  18.620  0.00  0.00    +0.000 C 
ENDBRANCH  24  26
ENDBRANCH  23  24
ENDBRANCH  22  23
ENDBRANCH  21  22
ENDBRANCH  19  21
ENDBRANCH  12  20
ENDBRANCH   1  15
BRANCH  11  27
ATOM     27  C   UNL     1       1.503  14.308  21.703  0.00  0.00    +0.000 C 
BRANCH  27  28
ATOM     28  C   UNL     1       2.092  14.687  20.374  0.00  0.00    +0.000 A 
ATOM     29  C   UNL     1       2.873  13.766  19.662  0.00  0.00    +0.000 A 
ATOM     30  C   UNL     1       3.348  14.078  18.389  0.00  0.00    +0.000 A 
ATOM     31  C   UNL     1       3.058  15.315  17.819  0.00  0.00    +0.000 A 
ATOM     32  C   UNL     1       2.298  16.247  18.526  0.00  0.00    +0.000 A 
ATOM     33  C   UNL     1       1.819  15.937  19.801  0.00  0.00    +0.000 A 
ENDBRANCH  27  28
ENDBRANCH  11  27
TORSDOF 9
ENDMDL
MODEL 4
REMARK VINA RESULT:      -7.1      7.138      9.556
REMARK  Name = 
REMARK  11 active torsions:
REMARK  status: ('A' for Active; 'I' for Inactive)
REMARK    1  A    between atoms: C_1  and  C_2
REMARK    2  A    between atoms: C_2  and  C_3
REMARK    3  A    between atoms: C_3  and  C_4
REMARK    4  A    between atoms: C_4  and  C_5
REMARK    5  A    between atoms: C_5  and  C_6
REMARK    6  A    between atoms: C_6  and  C_7
REMARK    7  A    between atoms: C_8  and  C_9
REMARK    8  A    between atoms: C_12  and  C_13
REMARK    9  A    between atoms: C_18  and  C_19
REMARK   10  A    between atoms: N_23  and  C_24
REMARK   11  A    between atoms: C_24  and  C_25
REMARK                            x       y       z     vdW  Elec       q    Type
REMARK                         _______ _______ _______ _____ _____    ______ ____
ROOT
ATOM      1  C   UNL     1       9.870  13.842  20.471  0.00  0.00    +0.000 C 
ATOM      2  C   UNL     1      10.796  14.894  19.835  0.00  0.00    +0.000 C 
ATOM      3  C   UNL     1      11.976  14.518  18.987  0.00  0.00    +0.000 C 
ATOM      4  C   UNL     1      12.333  15.277  17.937  0.00  0.00    +0.000 C 
ATOM      5  C   UNL     1      11.602  16.534  17.520  0.00  0.00    +0.000 C 
ATOM      6  C   UNL     1      10.491  16.999  18.503  0.00  0.00    +0.000 C 
ATOM      7  C   UNL     1       9.537  17.959  17.796  0.00  0.00    +0.000 C 
ATOM      8  C   UNL     1       9.799  15.751  19.037  0.00  0.00    +0.000 C 
ATOM      9  C   UNL     1       8.624  15.809  19.992  0.00  0.00    +0.000 C 
ATOM     10  O   UNL     1       7.712  16.616  19.968  0.00  0.00    +0.000 OA
ATOM     11  N   UNL     1       8.682  14.646  20.768  0.00  0.00    +0.000 N 
ENDROOT
BRANCH   1  15
ATOM     12  C   UNL     1       8.706  10.336  18.222  0.00  0.00    +0.000 A 
ATOM     13  C   UNL     1       8.520  11.610  17.675  0.00  0.00    +0.000 A 
ATOM     14  C   UNL     1       8.957  12.744  18.351  0.00  0.00    +0.000 A 
ATOM     15  C   UNL     1       9.566  12.636  19.610  0.00  0.00    +0.000 A 
ATOM     16  C   UNL     1       9.820  11.356  20.107  0.00  0.00    +0.000 A 
ATOM     17  F   UNL     1      10.439  11.210  21.288  0.00  0.00    +0.000 F 
ATOM     18  C   UNL     1       9.397  10.215  19.431  0.00  0.00    +0.000 A 
BRANCH  12  20
ATOM     19  C   UNL     1       8.103   7.928  18.192  0.00  0.00    +0.000 C 
ATOM     20  C   UNL     1       8.084   9.147  17.635  0.00  0.00    +0.000 C 
BRANCH  19  21
ATOM     21  C   UNL     1       7.525   6.721  17.525  0.00  0.00    +0.000 C 
BRANCH  21  22
ATOM     22  C   UNL     1       6.054   6.961  17.212  0.00  0.00    +0.000 C 
BRANCH  22  23
ATOM     23  C   UNL     1       5.390   5.674  16.743  0.00  0.00    +0.000 C 
BRANCH  23  24
ATOM     24  C   UNL     1       5.505   5.535  15.229  0.00  0.00    +0.000 C 
BRANCH  24  26
ATOM     25  C   UNL     1       5.958   3.820  13.456  0.00  0.00    +0.000 C 
ATOM     26  C   UNL     1       6.309   4.294  14.856  0.00  0.00    +0.000 C 
ENDBRANCH  24  26
ENDBRANCH  23  24
ENDBRANCH  22  23
ENDBRANCH  21  22
ENDBRANCH  19  21
ENDBRANCH  12  20
ENDBRANCH   1  15
BRANCH  11  27
ATOM     27  C   UNL     1       7.521  14.101  21.451  0.00  0.00    +0.000 C 
BRANCH  27  28
ATOM     28  C   UNL     1       7.691  13.918  22.932  0.00  0.00    +0.000 A 
ATOM     29  C   UNL     1       6.996  14.741  23.828  0.00  0.00    +0.000 A 
ATOM     30  C   UNL     1       7.079  14.519  25.202  0.00  0.00    +0.000 A 
ATOM     31  C   UNL     1       7.866  13.480  25.695  0.00  0.00    +0.000 A 
ATOM     32  C   UNL     1       8.577  12.667  24.814  0.00  0.00    +0.000 A 
ATOM     33  C   UNL     1       8.495  12.886  23.437  0.00  0.00    +0.000 A 
ENDBRANCH  27  28
ENDBRANCH  11  27
TORSDOF 9
ENDMDL
MODEL 5
REMARK VINA RESULT:      -7.0      0.989      1.475
REMARK  Name = 
REMARK  11 active torsions:
REMARK  status: ('A' for Active; 'I' for Inactive)
REMARK    1  A    between atoms: C_1  and  C_2
REMARK    2  A    between atoms: C_2  and  C_3
REMARK    3  A    between atoms: C_3  and  C_4
REMARK    4  A    between atoms: C_4  and  C_5
REMARK    5  A    between atoms: C_5  and  C_6
REMARK    6  A    between atoms: C_6  and  C_7
REMARK    7  A    between atoms: C_8  and  C_9
REMARK    8  A    between atoms: C_12  and  C_13
REMARK    9  A    between atoms: C_18  and  C_19
REMARK   10  A    between atoms: N_23  and  C_24
REMARK   11  A    between atoms: C_24  and  C_25
REMARK                            x       y       z     vdW  Elec       q    Type
REMARK                         _______ _______ _______ _____ _____    ______ ____
ROOT
ATOM      1  C   UNL     1       0.237  12.057  18.950  0.00  0.00    +0.000 C 
ATOM      2  C   UNL     1      -1.235  12.493  18.848  0.00  0.00    +0.000 C 
ATOM      3  C   UNL     1      -2.314  11.569  18.364  0.00  0.00    +0.000 C 
ATOM      4  C   UNL     1      -3.552  11.632  18.884  0.00  0.00    +0.000 C 
ATOM      5  C   UNL     1      -3.959  12.599  19.975  0.00  0.00    +0.000 C 
ATOM      6  C   UNL     1      -2.881  13.656  20.345  0.00  0.00    +0.000 C 
ATOM      7  C   UNL     1      -3.188  14.257  21.714  0.00  0.00    +0.000 C 
ATOM      8  C   UNL     1      -1.523  12.966  20.284  0.00  0.00    +0.000 C 
ATOM      9  C   UNL     1      -0.228  13.672  20.630  0.00  0.00    +0.000 C 
ATOM     10  O   UNL     1      -0.063  14.482  21.525  0.00  0.00    +0.000 OA
ATOM     11  N   UNL     1       0.775  13.067  19.864  0.00  0.00    +0.000 N 
ENDROOT
BRANCH   1  15
ATOM     12  C   UNL     1       1.227   8.119  20.439  0.00  0.00    +0.000 A 
ATOM     13  C   UNL     1       0.335   8.929  21.148  0.00  0.00    +0.000 A 
ATOM     14  C   UNL     1      -0.053  10.168  20.647  0.00  0.00    +0.000 A 
ATOM     15  C   UNL     1       0.466  10.641  19.433  0.00  0.00    +0.000 A 
ATOM     16  C   UNL     1       1.289   9.788  18.695  0.00  0.00    +0.000 A 
ATOM     17  F   UNL     1       1.771  10.189  17.509  0.00  0.00    +0.000 F 
ATOM     18  C   UNL     1       1.673   8.543  19.184  0.00  0.00    +0.000 A 
BRANCH  12  20
ATOM     19  C   UNL     1       1.810   5.706  20.439  0.00  0.00    +0.000 C 
ATOM     20  C   UNL     1       1.805   6.909  21.029  0.00  0.00    +0.000 C 
BRANCH  19  21
ATOM     21  C   UNL     1       2.341   4.477  21.105  0.00  0.00    +0.000 C 
BRANCH  21  22
ATOM     22  C   UNL     1       1.340   3.338  20.955  0.00  0.00    +0.000 C 
BRANCH  22  23
ATOM     23  C   UNL     1       0.672   3.390  19.588  0.00  0.00    +0.000 C 
BRANCH  23  24
ATOM     24  C   UNL     1       1.031   2.153  18.771  0.00  0.00    +0.000 C 
BRANCH  24  26
ATOM     25  C   UNL     1       2.480   3.631  17.357  0.00  0.00    +0.000 C 
ATOM     26  C   UNL     1       2.393   2.314  18.108  0.00  0.00    +0.000 C 
ENDBRANCH  24  26
ENDBRANCH  23  24
ENDBRANCH  22  23
ENDBRANCH  21  22
ENDBRANCH  19  21
ENDBRANCH  12  20
ENDBRANCH   1  15
BRANCH  11  27
ATOM     27  C   UNL     1       2.180  13.120  20.231  0.00  0.00    +0.000 C 
BRANCH  27  28
ATOM     28  C   UNL     1       2.959  14.225  19.575  0.00  0.00    +0.000 A 
ATOM     29  C   UNL     1       2.852  14.438  18.194  0.00  0.00    +0.000 A 
ATOM     30  C   UNL     1       3.501  15.515  17.592  0.00  0.00    +0.000 A 
ATOM     31  C   UNL     1       4.271  16.384  18.362  0.00  0.00    +0.000 A 
ATOM     32  C   UNL     1       4.400  16.172  19.734  0.00  0.00    +0.000 A 
ATOM     33  C   UNL     1       3.750  15.094  20.339  0.00  0.00    +0.000 A 
ENDBRANCH  27  28
ENDBRANCH  11  27
TORSDOF 9
ENDMDL
MODEL 6
REMARK VINA RESULT:      -7.0      6.162      9.447
REMARK  Name = 
REMARK  11 active torsions:
REMARK  status: ('A' for Active; 'I' for Inactive)
REMARK    1  A    between atoms: C_1  and  C_2
REMARK    2  A    between atoms: C_2  and  C_3
REMARK    3  A    between atoms: C_3  and  C_4
REMARK    4  A    between atoms: C_4  and  C_5
REMARK    5  A    between atoms: C_5  and  C_6
REMARK    6  A    between atoms: C_6  and  C_7
REMARK    7  A    between atoms: C_8  and  C_9
REMARK    8  A    between atoms: C_12  and  C_13
REMARK    9  A    between atoms: C_18  and  C_19
REMARK   10  A    between atoms: N_23  and  C_24
REMARK   11  A    between atoms: C_24  and  C_25
REMARK                            x       y       z     vdW  Elec       q    Type
REMARK                         _______ _______ _______ _____ _____    ______ ____
ROOT
ATOM      1  C   UNL     1       9.651  13.964  20.693  0.00  0.00    +0.000 C 
ATOM      2  C   UNL     1      10.626  15.014  20.132  0.00  0.00    +0.000 C 
ATOM      3  C   UNL     1      11.883  14.636  19.406  0.00  0.00    +0.000 C 
ATOM      4  C   UNL     1      12.333  15.382  18.382  0.00  0.00    +0.000 C 
ATOM      5  C   UNL     1      11.635  16.625  17.877  0.00  0.00    +0.000 C 
ATOM      6  C   UNL     1      10.432  17.096  18.742  0.00  0.00    +0.000 C 
ATOM      7  C   UNL     1       9.542  18.035  17.932  0.00  0.00    +0.000 C 
ATOM      8  C   UNL     1       9.702  15.849  19.228  0.00  0.00    +0.000 C 
ATOM      9  C   UNL     1       8.441  15.910  20.066  0.00  0.00    +0.000 C 
ATOM     10  O   UNL     1       7.529  16.709  19.942  0.00  0.00    +0.000 OA
ATOM     11  N   UNL     1       8.434  14.760  20.863  0.00  0.00    +0.000 N 
ENDROOT
BRANCH   1  15
ATOM     12  C   UNL     1       8.731  10.416  18.397  0.00  0.00    +0.000 A 
ATOM     13  C   UNL     1       8.610  11.679  17.809  0.00  0.00    +0.000 A 
ATOM     14  C   UNL     1       8.972  12.826  18.508  0.00  0.00    +0.000 A 
ATOM     15  C   UNL     1       9.440  12.741  19.827  0.00  0.00    +0.000 A 
ATOM     16  C   UNL     1       9.636  11.471  20.372  0.00  0.00    +0.000 A 
ATOM     17  F   UNL     1      10.122  11.348  21.617  0.00  0.00    +0.000 F 
ATOM     18  C   UNL     1       9.287  10.318  19.677  0.00  0.00    +0.000 A 
BRANCH  12  20
ATOM     19  C   UNL     1       8.140   8.005  18.342  0.00  0.00    +0.000 C 
ATOM     20  C   UNL     1       8.175   9.216  17.768  0.00  0.00    +0.000 C 
BRANCH  19  21
ATOM     21  C   UNL     1       7.635   6.787  17.639  0.00  0.00    +0.000 C 
BRANCH  21  22
ATOM     22  C   UNL     1       6.295   7.089  16.983  0.00  0.00    +0.000 C 
BRANCH  22  23
ATOM     23  C   UNL     1       5.285   5.994  17.299  0.00  0.00    +0.000 C 
BRANCH  23  24
ATOM     24  C   UNL     1       5.895   4.961  18.240  0.00  0.00    +0.000 C 
BRANCH  24  26
ATOM     25  C   UNL     1       3.669   5.458  19.282  0.00  0.00    +0.000 C 
ATOM     26  C   UNL     1       4.946   4.644  19.390  0.00  0.00    +0.000 C 
ENDBRANCH  24  26
ENDBRANCH  23  24
ENDBRANCH  22  23
ENDBRANCH  21  22
ENDBRANCH  19  21
ENDBRANCH  12  20
ENDBRANCH   1  15
BRANCH  11  27
ATOM     27  C   UNL     1       7.217  14.216  21.441  0.00  0.00    +0.000 C 
BRANCH  27  28
ATOM     28  C   UNL     1       7.396  13.562  22.781  0.00  0.00    +0.000 A 
ATOM     29  C   UNL     1       6.731  12.364  23.075  0.00  0.00    +0.000 A 
ATOM     30  C   UNL     1       6.961  11.705  24.282  0.00  0.00    +0.000 A 
ATOM     31  C   UNL     1       7.850  12.241  25.211  0.00  0.00    +0.000 A 
ATOM     32  C   UNL     1       8.503  13.442  24.938  0.00  0.00    +0.000 A 
ATOM     33  C   UNL     1       8.275  14.104  23.729  0.00  0.00    +0.000 A 
ENDBRANCH  27  28
ENDBRANCH  11  27
TORSDOF 9
ENDMDL
MODEL 7
REMARK VINA RESULT:      -6.9      2.686      3.983
REMARK  Name = 
REMARK  11 active torsions:
REMARK  status: ('A' for Active; 'I' for Inactive)
REMARK    1  A    between atoms: C_1  and  C_2
REMARK    2  A    between atoms: C_2  and  C_3
REMARK    3  A    between atoms: C_3  and  C_4
REMARK    4  A    between atoms: C_4  and  C_5
REMARK    5  A    between atoms: C_5  and  C_6
REMARK    6  A    between atoms: C_6  and  C_7
REMARK    7  A    between atoms: C_8  and  C_9
REMARK    8  A    between atoms: C_12  and  C_13
REMARK    9  A    between atoms: C_18  and  C_19
REMARK   10  A    between atoms: N_23  and  C_24
REMARK   11  A    between atoms: C_24  and  C_25
REMARK                            x       y       z     vdW  Elec       q    Type
REMARK                         _______ _______ _______ _____ _____    ______ ____
ROOT
ATOM      1  C   UNL     1      -1.492  13.268  21.180  0.00  0.00    +0.000 C 
ATOM      2  C   UNL     1      -2.557  13.669  22.216  0.00  0.00    +0.000 C 
ATOM      3  C   UNL     1      -3.658  12.741  22.637  0.00  0.00    +0.000 C 
ATOM      4  C   UNL     1      -4.112  12.748  23.902  0.00  0.00    +0.000 C 
ATOM      5  C   UNL     1      -3.570  13.654  24.986  0.00  0.00    +0.000 C 
ATOM      6  C   UNL     1      -2.552  14.721  24.495  0.00  0.00    +0.000 C 
ATOM      7  C   UNL     1      -1.743  15.252  25.676  0.00  0.00    +0.000 C 
ATOM      8  C   UNL     1      -1.688  14.071  23.421  0.00  0.00    +0.000 C 
ATOM      9  C   UNL     1      -0.546  14.794  22.737  0.00  0.00    +0.000 C 
ATOM     10  O   UNL     1       0.237  15.567  23.261  0.00  0.00    +0.000 OA
ATOM     11  N   UNL     1      -0.439  14.250  21.452  0.00  0.00    +0.000 N 
ENDROOT
BRANCH   1  15
ATOM     12  C   UNL     1       0.226   9.301  21.294  0.00  0.00    +0.000 A 
ATOM     13  C   UNL     1       0.049  10.019  22.480  0.00  0.00    +0.000 A 
ATOM     14  C   UNL     1      -0.570  11.265  22.471  0.00  0.00    +0.000 A 
ATOM     15  C   UNL     1      -1.003  11.839  21.268  0.00  0.00    +0.000 A 
ATOM     16  C   UNL     1      -0.896  11.077  20.103  0.00  0.00    +0.000 A 
ATOM     17  F   UNL     1      -1.338  11.574  18.938  0.00  0.00    +0.000 F 
ATOM     18  C   UNL     1      -0.289   9.825  20.104  0.00  0.00    +0.000 A 
BRANCH  12  20
ATOM     19  C   UNL     1       1.703   7.663  20.154  0.00  0.00    +0.000 C 
ATOM     20  C   UNL     1       1.046   8.088  21.242  0.00  0.00    +0.000 C 
BRANCH  19  21
ATOM     21  C   UNL     1       2.467   6.378  20.116  0.00  0.00    +0.000 C 
BRANCH  21  22
ATOM     22  C   UNL     1       3.001   6.139  18.710  0.00  0.00    +0.000 C 
BRANCH  22  23
ATOM     23  C   UNL     1       2.089   5.189  17.945  0.00  0.00    +0.000 C 
BRANCH  23  24
ATOM     24  C   UNL     1       2.374   3.744  18.336  0.00  0.00    +0.000 C 
BRANCH  24  26
ATOM     25  C   UNL     1       1.011   3.032  20.316  0.00  0.00    +0.000 C 
ATOM     26  C   UNL     1       1.102   3.043  18.800  0.00  0.00    +0.000 C 
ENDBRANCH  24  26
ENDBRANCH  23  24
ENDBRANCH  22  23
ENDBRANCH  21  22
ENDBRANCH  19  21
ENDBRANCH  12  20
ENDBRANCH   1  15
BRANCH  11  27
ATOM     27  C   UNL     1       0.782  14.324  20.669  0.00  0.00    +0.000 C 
BRANCH  27  28
ATOM     28  C   UNL     1       0.806  15.423  19.645  0.00  0.00    +0.000 A 
ATOM     29  C   UNL     1      -0.392  15.913  19.109  0.00  0.00    +0.000 A 
ATOM     30  C   UNL     1      -0.383  16.992  18.227  0.00  0.00    +0.000 A 
ATOM     31  C   UNL     1       0.824  17.585  17.863  0.00  0.00    +0.000 A 
ATOM     32  C   UNL     1       2.024  17.094  18.374  0.00  0.00    +0.000 A 
ATOM     33  C   UNL     1       2.018  16.014  19.260  0.00  0.00    +0.000 A 
ENDBRANCH  27  28
ENDBRANCH  11  27
TORSDOF 9
ENDMDL
MODEL 8
REMARK VINA RESULT:      -6.8      1.968      2.997
REMARK  Name = 
REMARK  11 active torsions:
REMARK  status: ('A' for Active; 'I' for Inactive)
REMARK    1  A    between atoms: C_1  and  C_2
REMARK    2  A    between atoms: C_2  and  C_3
REMARK    3  A    between atoms: C_3  and  C_4
REMARK    4  A    between atoms: C_4  and  C_5
REMARK    5  A    between atoms: C_5  and  C_6
REMARK    6  A    between atoms: C_6  and  C_7
REMARK    7  A    between atoms: C_8  and  C_9
REMARK    8  A    between atoms: C_12  and  C_13
REMARK    9  A    between atoms: C_18  and  C_19
REMARK   10  A    between atoms: N_23  and  C_24
REMARK   11  A    between atoms: C_24  and  C_25
REMARK                            x       y       z     vdW  Elec       q    Type
REMARK                         _______ _______ _______ _____ _____    ______ ____
ROOT
ATOM      1  C   UNL     1      -0.632  13.244  20.570  0.00  0.00    +0.000 C 
ATOM      2  C   UNL     1      -1.990  13.686  21.144  0.00  0.00    +0.000 C 
ATOM      3  C   UNL     1      -3.230  12.853  21.002  0.00  0.00    +0.000 C 
ATOM      4  C   UNL     1      -4.149  12.823  21.983  0.00  0.00    +0.000 C 
ATOM      5  C   UNL     1      -4.020  13.590  23.281  0.00  0.00    +0.000 C 
ATOM      6  C   UNL     1      -2.818  14.574  23.341  0.00  0.00    +0.000 C 
ATOM      7  C   UNL     1      -2.510  14.934  24.792  0.00  0.00    +0.000 C 
ATOM      8  C   UNL     1      -1.647  13.910  22.627  0.00  0.00    +0.000 C 
ATOM      9  C   UNL     1      -0.278  14.551  22.522  0.00  0.00    +0.000 C 
ATOM     10  O   UNL     1       0.284  15.200  23.388  0.00  0.00    +0.000 OA
ATOM     11  N   UNL     1       0.292  14.087  21.332  0.00  0.00    +0.000 N 
ENDROOT
BRANCH   1  15
ATOM     12  C   UNL     1       0.611   9.113  20.875  0.00  0.00    +0.000 A 
ATOM     13  C   UNL     1       0.199   9.805  22.018  0.00  0.00    +0.000 A 
ATOM     14  C   UNL     1      -0.275  11.109  21.928  0.00  0.00    +0.000 A 
ATOM     15  C   UNL     1      -0.321  11.768  20.691  0.00  0.00    +0.000 A 
ATOM     16  C   UNL     1       0.013  11.040  19.548  0.00  0.00    +0.000 A 
ATOM     17  F   UNL     1      -0.060  11.623  18.342  0.00  0.00    +0.000 F 
ATOM     18  C   UNL     1       0.477   9.731  19.628  0.00  0.00    +0.000 A 
BRANCH  12  20
ATOM     19  C   UNL     1       1.977   7.257  19.953  0.00  0.00    +0.000 C 
ATOM     20  C   UNL     1       1.296   7.822  20.960  0.00  0.00    +0.000 C 
BRANCH  19  21
ATOM     21  C   UNL     1       2.599   5.901  20.052  0.00  0.00    +0.000 C 
BRANCH  21  22
ATOM     22  C   UNL     1       1.691   4.976  20.853  0.00  0.00    +0.000 C 
BRANCH  22  23
ATOM     23  C   UNL     1       1.050   3.937  19.944  0.00  0.00    +0.000 C 
BRANCH  23  24
ATOM     24  C   UNL     1       1.678   2.567  20.173  0.00  0.00    +0.000 C 
BRANCH  24  26
ATOM     25  C   UNL     1       2.085   2.967  17.732  0.00  0.00    +0.000 C 
ATOM     26  C   UNL     1       2.412   2.088  18.926  0.00  0.00    +0.000 C 
ENDBRANCH  24  26
ENDBRANCH  23  24
ENDBRANCH  22  23
ENDBRANCH  21  22
ENDBRANCH  19  21
ENDBRANCH  12  20
ENDBRANCH   1  15
BRANCH  11  27
ATOM     27  C   UNL     1       1.726  14.084  21.100  0.00  0.00    +0.000 C 
BRANCH  27  28
ATOM     28  C   UNL     1       2.178  14.934  19.946  0.00  0.00    +0.000 A 
ATOM     29  C   UNL     1       3.160  14.462  19.066  0.00  0.00    +0.000 A 
ATOM     30  C   UNL     1       3.520  15.206  17.943  0.00  0.00    +0.000 A 
ATOM     31  C   UNL     1       2.911  16.434  17.695  0.00  0.00    +0.000 A 
ATOM     32  C   UNL     1       1.946  16.923  18.574  0.00  0.00    +0.000 A 
ATOM     33  C   UNL     1       1.582  16.178  19.699  0.00  0.00    +0.000 A 
ENDBRANCH  27  28
ENDBRANCH  11  27
TORSDOF 9
ENDMDL
MODEL 9
REMARK VINA RESULT:      -6.8      1.415      1.811
REMARK  Name = 
REMARK  11 active torsions:
REMARK  status: ('A' for Active; 'I' for Inactive)
REMARK    1  A    between atoms: C_1  and  C_2
REMARK    2  A    between atoms: C_2  and  C_3
REMARK    3  A    between atoms: C_3  and  C_4
REMARK    4  A    between atoms: C_4  and  C_5
REMARK    5  A    between atoms: C_5  and  C_6
REMARK    6  A    between atoms: C_6  and  C_7
REMARK    7  A    between atoms: C_8  and  C_9
REMARK    8  A    between atoms: C_12  and  C_13
REMARK    9  A    between atoms: C_18  and  C_19
REMARK   10  A    between atoms: N_23  and  C_24
REMARK   11  A    between atoms: C_24  and  C_25
REMARK                            x       y       z     vdW  Elec       q    Type
REMARK                         _______ _______ _______ _____ _____    ______ ____
ROOT
ATOM      1  C   UNL     1       0.007  11.606  18.289  0.00  0.00    +0.000 C 
ATOM      2  C   UNL     1      -1.429  11.397  17.775  0.00  0.00    +0.000 C 
ATOM      3  C   UNL     1      -1.888  10.098  17.179  0.00  0.00    +0.000 C 
ATOM      4  C   UNL     1      -3.145   9.664  17.372  0.00  0.00    +0.000 C 
ATOM      5  C   UNL     1      -4.178  10.412  18.185  0.00  0.00    +0.000 C 
ATOM      6  C   UNL     1      -3.741  11.829  18.652  0.00  0.00    +0.000 C 
ATOM      7  C   UNL     1      -4.622  12.292  19.809  0.00  0.00    +0.000 C 
ATOM      8  C   UNL     1      -2.263  11.754  19.018  0.00  0.00    +0.000 C 
ATOM      9  C   UNL     1      -1.492  12.939  19.563  0.00  0.00    +0.000 C 
ATOM     10  O   UNL     1      -1.908  13.772  20.349  0.00  0.00    +0.000 OA
ATOM     11  N   UNL     1      -0.163  12.775  19.155  0.00  0.00    +0.000 N 
ENDROOT
BRANCH   1  15
ATOM     12  C   UNL     1       1.455   8.041  20.262  0.00  0.00    +0.000 A 
ATOM     13  C   UNL     1       1.976   8.411  19.019  0.00  0.00    +0.000 A 
ATOM     14  C   UNL     1       1.577   9.593  18.404  0.00  0.00    +0.000 A 
ATOM     15  C   UNL     1       0.621  10.424  19.006  0.00  0.00    +0.000 A 
ATOM     16  C   UNL     1       0.172  10.087  20.284  0.00  0.00    +0.000 A 
ATOM     17  F   UNL     1      -0.711  10.879  20.911  0.00  0.00    +0.000 F 
ATOM     18  C   UNL     1       0.575   8.912  20.911  0.00  0.00    +0.000 A 
BRANCH  12  20
ATOM     19  C   UNL     1       1.442   5.559  20.215  0.00  0.00    +0.000 C 
ATOM     20  C   UNL     1       1.702   6.717  20.838  0.00  0.00    +0.000 C 
BRANCH  19  21
ATOM     21  C   UNL     1       1.634   4.226  20.865  0.00  0.00    +0.000 C 
BRANCH  21  22
ATOM     22  C   UNL     1       1.121   3.127  19.944  0.00  0.00    +0.000 C 
BRANCH  22  23
ATOM     23  C   UNL     1       1.321   3.513  18.485  0.00  0.00    +0.000 C 
BRANCH  23  24
ATOM     24  C   UNL     1       2.320   2.575  17.817  0.00  0.00    +0.000 C 
BRANCH  24  26
ATOM     25  C   UNL     1       4.441   3.712  18.521  0.00  0.00    +0.000 C 
ATOM     26  C   UNL     1       3.554   3.338  17.347  0.00  0.00    +0.000 C 
ENDBRANCH  24  26
ENDBRANCH  23  24
ENDBRANCH  22  23
ENDBRANCH  21  22
ENDBRANCH  19  21
ENDBRANCH  12  20
ENDBRANCH   1  15
BRANCH  11  27
ATOM     27  C   UNL     1       0.950  13.410  19.837  0.00  0.00    +0.000 C 
BRANCH  27  28
ATOM     28  C   UNL     1       1.672  14.450  19.028  0.00  0.00    +0.000 A 
ATOM     29  C   UNL     1       1.161  15.751  18.937  0.00  0.00    +0.000 A 
ATOM     30  C   UNL     1       1.871  16.744  18.263  0.00  0.00    +0.000 A 
ATOM     31  C   UNL     1       3.093  16.444  17.665  0.00  0.00    +0.000 A 
ATOM     32  C   UNL     1       3.602  15.149  17.733  0.00  0.00    +0.000 A 
ATOM     33  C   UNL     1       2.894  14.152  18.409  0.00  0.00    +0.000 A 
ENDBRANCH  27  28
ENDBRANCH  11  27
TORSDOF 9
ENDMDL
