MODEL 1
REMARK VINA RESULT:      -7.9      0.000      0.000
REMARK  Name = 
REMARK  6 active torsions:
REMARK  status: ('A' for Active; 'I' for Inactive)
REMARK    1  A    between atoms: C_2  and  C_3
REMARK    2  A    between atoms: C_6  and  C_7
REMARK    3  A    between atoms: C_9  and  C_10
REMARK    4  A    between atoms: C_17  and  C_18
REMARK    5  A    between atoms: N_20  and  C_21
REMARK    6  A    between atoms: C_21  and  C_22
REMARK                            x       y       z     vdW  Elec       q    Type
REMARK                         _______ _______ _______ _____ _____    ______ ____
ROOT
ATOM      1  C   UNL     1       5.815   5.156  17.912  0.00  0.00    +0.000 A 
ATOM      2  S   UNL     1       5.214   4.430  19.363  0.00  0.00    +0.000 S 
ATOM      3  C   UNL     1       4.279   3.332  18.441  0.00  0.00    +0.000 A 
ATOM      4  N   UNL     1       4.416   3.455  17.138  0.00  0.00    +0.000 NA
ATOM      5  C   UNL     1       5.283   4.495  16.809  0.00  0.00    +0.000 A 
ENDROOT
BRANCH   1   9
ATOM      6  C   UNL     1       8.294   8.615  18.358  0.00  0.00    +0.000 A 
ATOM      7  C   UNL     1       7.252   8.619  17.427  0.00  0.00    +0.000 A 
ATOM      8  C   UNL     1       6.489   7.466  17.230  0.00  0.00    +0.000 A 
ATOM      9  C   UNL     1       6.736   6.300  17.970  0.00  0.00    +0.000 A 
ATOM     10  C   UNL     1       7.818   6.295  18.858  0.00  0.00    +0.000 A 
ATOM     11  C   UNL     1       8.583   7.444  19.063  0.00  0.00    +0.000 A 
BRANCH   6  13
ATOM     12  N   UNL     1       9.660  10.781  18.809  0.00  0.00    +0.000 NA
ATOM     13  C   UNL     1       9.042   9.803  18.605  0.00  0.00    +0.000 C 
ENDBRANCH   6  13
ENDBRANCH   1   9
BRANCH   3  14
ATOM     14  C   UNL     1       3.378   2.308  19.118  0.00  0.00    +0.000 C 
ATOM     15  C   UNL     1       3.129   2.673  20.593  0.00  0.00    +0.000 C 
ATOM     16  C   UNL     1       2.268   3.930  20.749  0.00  0.00    +0.000 C 
ATOM     17  C   UNL     1       0.952   3.811  19.984  0.00  0.00    +0.000 C 
ATOM     18  C   UNL     1       1.149   3.408  18.523  0.00  0.00    +0.000 C 
ATOM     19  C   UNL     1       2.030   2.165  18.389  0.00  0.00    +0.000 C 
ENDBRANCH   3  14
BRANCH   5  20
ATOM     20  C   UNL     1       5.563   4.845  15.405  0.00  0.00    +0.000 C 
ATOM     21  O   UNL     1       4.953   5.718  14.792  0.00  0.00    +0.000 OA
ATOM     22  N   UNL     1       6.597   4.162  14.802  0.00  0.00    +0.000 N 
ATOM     23  H   UNL     1       7.068   3.431  15.322  0.00  0.00    +0.000 HD
BRANCH  22  24
ATOM     24  C   UNL     1       6.943   4.484  13.435  0.00  0.00    +0.000 C 
BRANCH  24  25
ATOM     25  C   UNL     1       6.517   3.443  12.440  0.00  0.00    +0.000 A 
ATOM     26  C   UNL     1       7.436   2.586  11.820  0.00  0.00    +0.000 A 
ATOM     27  C   UNL     1       6.986   1.607  10.938  0.00  0.00    +0.000 A 
ATOM     28  C   UNL     1       5.625   1.514  10.703  0.00  0.00    +0.000 A 
ATOM     29  N   UNL     1       4.706   2.317  11.281  0.00  0.00    +0.000 NA
ATOM     30  C   UNL     1       5.173   3.260  12.132  0.00  0.00    +0.000 A 
ENDBRANCH  24  25
ENDBRANCH  22  24
ENDBRANCH   5  20
TORSDOF 6
ENDMDL
MODEL 2
REMARK VINA RESULT:      -7.8      7.348     10.256
REMARK  Name = 
REMARK  6 active torsions:
REMARK  status: ('A' for Active; 'I' for Inactive)
REMARK    1  A    between atoms: C_2  and  C_3
REMARK    2  A    between atoms: C_6  and  C_7
REMARK    3  A    between atoms: C_9  and  C_10
REMARK    4  A    between atoms: C_17  and  C_18
REMARK    5  A    between atoms: N_20  and  C_21
REMARK    6  A    between atoms: C_21  and  C_22
REMARK                            x       y       z     vdW  Elec       q    Type
REMARK                         _______ _______ _______ _____ _____    ______ ____
ROOT
ATOM      1  C   UNL     1       1.595   9.136  19.365  0.00  0.00    +0.000 A 
ATOM      2  S   UNL     1       2.283   8.077  18.182  0.00  0.00    +0.000 S 
ATOM      3  C   UNL     1       2.536   6.882  19.381  0.00  0.00    +0.000 A 
ATOM      4  N   UNL     1       2.111   7.212  20.581  0.00  0.00    +0.000 NA
ATOM      5  C   UNL     1       1.575   8.498  20.602  0.00  0.00    +0.000 A 
ENDROOT
BRANCH   1   9
ATOM      6  C   UNL     1       0.264  13.139  18.648  0.00  0.00    +0.000 A 
ATOM      7  C   UNL     1      -0.659  12.092  18.675  0.00  0.00    +0.000 A 
ATOM      8  C   UNL     1      -0.218  10.776  18.836  0.00  0.00    +0.000 A 
ATOM      9  C   UNL     1       1.145  10.486  18.995  0.00  0.00    +0.000 A 
ATOM     10  C   UNL     1       2.062  11.540  18.910  0.00  0.00    +0.000 A 
ATOM     11  C   UNL     1       1.629  12.857  18.752  0.00  0.00    +0.000 A 
BRANCH   6  13
ATOM     12  N   UNL     1      -0.547  15.602  18.449  0.00  0.00    +0.000 NA
ATOM     13  C   UNL     1      -0.182  14.489  18.539  0.00  0.00    +0.000 C 
ENDBRANCH   6  13
ENDBRANCH   1   9
BRANCH   3  14
ATOM     14  C   UNL     1       3.197   5.554  19.037  0.00  0.00    +0.000 C 
ATOM     15  C   UNL     1       2.969   4.514  20.149  0.00  0.00    +0.000 C 
ATOM     16  C   UNL     1       1.508   4.068  20.245  0.00  0.00    +0.000 C 
ATOM     17  C   UNL     1       0.983   3.560  18.903  0.00  0.00    +0.000 C 
ATOM     18  C   UNL     1       1.226   4.545  17.760  0.00  0.00    +0.000 C 
ATOM     19  C   UNL     1       2.686   4.995  17.697  0.00  0.00    +0.000 C 
ENDBRANCH   3  14
BRANCH   5  20
ATOM     20  C   UNL     1       1.068   9.099  21.848  0.00  0.00    +0.000 C 
ATOM     21  O   UNL     1       1.790   9.399  22.796  0.00  0.00    +0.000 OA
ATOM     22  N   UNL     1      -0.285   9.358  21.892  0.00  0.00    +0.000 N 
ATOM     23  H   UNL     1      -0.861   9.079  21.107  0.00  0.00    +0.000 HD
BRANCH  22  24
ATOM     24  C   UNL     1      -0.839   9.978  23.076  0.00  0.00    +0.000 C 
BRANCH  24  25
ATOM     25  C   UNL     1      -1.277  11.399  22.868  0.00  0.00    +0.000 A 
ATOM     26  C   UNL     1      -0.450  12.352  22.261  0.00  0.00    +0.000 A 
ATOM     27  C   UNL     1      -0.920  13.646  22.051  0.00  0.00    +0.000 A 
ATOM     28  C   UNL     1      -2.209  13.948  22.455  0.00  0.00    +0.000 A 
ATOM     29  N   UNL     1      -3.040  13.059  23.041  0.00  0.00    +0.000 NA
ATOM     30  C   UNL     1      -2.555  11.811  23.233  0.00  0.00    +0.000 A 
ENDBRANCH  24  25
ENDBRANCH  22  24
ENDBRANCH   5  20
TORSDOF 6
ENDMDL
MODEL 3
REMARK VINA RESULT:      -7.4      0.916      1.141
REMARK  Name = 
REMARK  6 active torsions:
REMARK  status: ('A' for Active; 'I' for Inactive)
REMARK    1  A    between atoms: C_2  and  C_3
REMARK    2  A    between atoms: C_6  and  C_7
REMARK    3  A    between atoms: C_9  and  C_10
REMARK    4  A    between atoms: C_17  and  C_18
REMARK    5  A    between atoms: N_20  and  C_21
REMARK    6  A    between atoms: C_21  and  C_22
REMARK                            x       y       z     vdW  Elec       q    Type
REMARK                         _______ _______ _______ _____ _____    ______ ____
ROOT
ATOM      1  C   UNL     1       6.039   5.149  17.814  0.00  0.00    +0.000 A 
ATOM      2  S   UNL     1       5.119   4.569  19.160  0.00  0.00    +0.000 S 
ATOM      3  C   UNL     1       4.429   3.350  18.178  0.00  0.00    +0.000 A 
ATOM      4  N   UNL     1       4.866   3.333  16.937  0.00  0.00    +0.000 NA
ATOM      5  C   UNL     1       5.781   4.355  16.700  0.00  0.00    +0.000 A 
ENDROOT
BRANCH   1   9
ATOM      6  C   UNL     1       8.370   8.676  18.481  0.00  0.00    +0.000 A 
ATOM      7  C   UNL     1       7.397   8.662  17.479  0.00  0.00    +0.000 A 
ATOM      8  C   UNL     1       6.687   7.489  17.212  0.00  0.00    +0.000 A 
ATOM      9  C   UNL     1       6.917   6.321  17.952  0.00  0.00    +0.000 A 
ATOM     10  C   UNL     1       7.934   6.335  18.915  0.00  0.00    +0.000 A 
ATOM     11  C   UNL     1       8.646   7.503  19.189  0.00  0.00    +0.000 A 
BRANCH   6  13
ATOM     12  N   UNL     1       9.627  10.878  19.056  0.00  0.00    +0.000 NA
ATOM     13  C   UNL     1       9.060   9.882  18.796  0.00  0.00    +0.000 C 
ENDBRANCH   6  13
ENDBRANCH   1   9
BRANCH   3  14
ATOM     14  C   UNL     1       3.399   2.379  18.741  0.00  0.00    +0.000 C 
ATOM     15  C   UNL     1       3.169   2.622  20.244  0.00  0.00    +0.000 C 
ATOM     16  C   UNL     1       2.462   3.951  20.522  0.00  0.00    +0.000 C 
ATOM     17  C   UNL     1       1.156   4.071  19.740  0.00  0.00    +0.000 C 
ATOM     18  C   UNL     1       1.330   3.797  18.247  0.00  0.00    +0.000 C 
ATOM     19  C   UNL     1       2.058   2.476  17.992  0.00  0.00    +0.000 C 
ENDBRANCH   3  14
BRANCH   5  20
ATOM     20  C   UNL     1       6.379   4.557  15.368  0.00  0.00    +0.000 C 
ATOM     21  O   UNL     1       7.586   4.691  15.183  0.00  0.00    +0.000 OA
ATOM     22  N   UNL     1       5.506   4.547  14.302  0.00  0.00    +0.000 N 
ATOM     23  H   UNL     1       4.514   4.459  14.484  0.00  0.00    +0.000 HD
BRANCH  22  24
ATOM     24  C   UNL     1       6.036   4.707  12.965  0.00  0.00    +0.000 C 
BRANCH  24  25
ATOM     25  C   UNL     1       6.206   3.414  12.221  0.00  0.00    +0.000 A 
ATOM     26  C   UNL     1       5.117   2.602  11.881  0.00  0.00    +0.000 A 
ATOM     27  C   UNL     1       5.324   1.434  11.152  0.00  0.00    +0.000 A 
ATOM     28  C   UNL     1       6.619   1.113  10.784  0.00  0.00    +0.000 A 
ATOM     29  N   UNL     1       7.695   1.869  11.088  0.00  0.00    +0.000 NA
ATOM     30  C   UNL     1       7.464   2.997  11.798  0.00  0.00    +0.000 A 
ENDBRANCH  24  25
ENDBRANCH  22  24
ENDBRANCH   5  20
TORSDOF 6
ENDMDL
MODEL 4
REMARK VINA RESULT:      -7.4      1.022      1.503
REMARK  Name = 
REMARK  6 active torsions:
REMARK  status: ('A' for Active; 'I' for Inactive)
REMARK    1  A    between atoms: C_2  and  C_3
REMARK    2  A    between atoms: C_6  and  C_7
REMARK    3  A    between atoms: C_9  and  C_10
REMARK    4  A    between atoms: C_17  and  C_18
REMARK    5  A    between atoms: N_20  and  C_21
REMARK    6  A    between atoms: C_21  and  C_22
REMARK                            x       y       z     vdW  Elec       q    Type
REMARK                         _______ _______ _______ _____ _____    ______ ____
ROOT
ATOM      1  C   UNL     1       5.621   6.001  17.512  0.00  0.00    +0.000 A 
ATOM      2  S   UNL     1       4.212   5.959  18.514  0.00  0.00    +0.000 S 
ATOM      3  C   UNL     1       3.571   4.676  17.581  0.00  0.00    +0.000 A 
ATOM      4  N   UNL     1       4.352   4.265  16.605  0.00  0.00    +0.000 NA
ATOM      5  C   UNL     1       5.527   5.010  16.539  0.00  0.00    +0.000 A 
ENDROOT
BRANCH   1   9
ATOM      6  C   UNL     1       8.525   8.984  18.498  0.00  0.00    +0.000 A 
ATOM      7  C   UNL     1       7.511   9.274  17.582  0.00  0.00    +0.000 A 
ATOM      8  C   UNL     1       6.607   8.279  17.205  0.00  0.00    +0.000 A 
ATOM      9  C   UNL     1       6.684   6.989  17.749  0.00  0.00    +0.000 A 
ATOM     10  C   UNL     1       7.739   6.699  18.623  0.00  0.00    +0.000 A 
ATOM     11  C   UNL     1       8.645   7.689  19.006  0.00  0.00    +0.000 A 
BRANCH   6  13
ATOM     12  N   UNL     1      10.155  10.853  19.283  0.00  0.00    +0.000 NA
ATOM     13  C   UNL     1       9.418  10.008  18.930  0.00  0.00    +0.000 C 
ENDBRANCH   6  13
ENDBRANCH   1   9
BRANCH   3  14
ATOM     14  C   UNL     1       2.203   4.084  17.896  0.00  0.00    +0.000 C 
ATOM     15  C   UNL     1       2.222   2.549  17.782  0.00  0.00    +0.000 C 
ATOM     16  C   UNL     1       3.058   1.888  18.881  0.00  0.00    +0.000 C 
ATOM     17  C   UNL     1       2.612   2.330  20.273  0.00  0.00    +0.000 C 
ATOM     18  C   UNL     1       2.539   3.849  20.419  0.00  0.00    +0.000 C 
ATOM     19  C   UNL     1       1.718   4.490  19.299  0.00  0.00    +0.000 C 
ENDBRANCH   3  14
BRANCH   5  20
ATOM     20  C   UNL     1       6.540   4.754  15.499  0.00  0.00    +0.000 C 
ATOM     21  O   UNL     1       7.680   4.370  15.747  0.00  0.00    +0.000 OA
ATOM     22  N   UNL     1       6.130   4.928  14.195  0.00  0.00    +0.000 N 
ATOM     23  H   UNL     1       5.192   5.268  14.019  0.00  0.00    +0.000 HD
BRANCH  22  24
ATOM     24  C   UNL     1       7.069   4.661  13.127  0.00  0.00    +0.000 C 
BRANCH  24  25
ATOM     25  C   UNL     1       6.699   3.482  12.274  0.00  0.00    +0.000 A 
ATOM     26  C   UNL     1       7.665   2.660  11.681  0.00  0.00    +0.000 A 
ATOM     27  C   UNL     1       7.270   1.552  10.935  0.00  0.00    +0.000 A 
ATOM     28  C   UNL     1       5.915   1.300  10.805  0.00  0.00    +0.000 A 
ATOM     29  N   UNL     1       4.952   2.065  11.363  0.00  0.00    +0.000 NA
ATOM     30  C   UNL     1       5.366   3.134  12.080  0.00  0.00    +0.000 A 
ENDBRANCH  24  25
ENDBRANCH  22  24
ENDBRANCH   5  20
TORSDOF 6
ENDMDL
MODEL 5
REMARK VINA RESULT:      -7.3      9.085     11.903
REMARK  Name = 
REMARK  6 active torsions:
REMARK  status: ('A' for Active; 'I' for Inactive)
REMARK    1  A    between atoms: C_2  and  C_3
REMARK    2  A    between atoms: C_6  and  C_7
REMARK    3  A    between atoms: C_9  and  C_10
REMARK    4  A    between atoms: C_17  and  C_18
REMARK    5  A    between atoms: N_20  and  C_21
REMARK    6  A    between atoms: C_21  and  C_22
REMARK                            x       y       z     vdW  Elec       q    Type
REMARK                         _______ _______ _______ _____ _____    ______ ____
ROOT
ATOM      1  C   UNL     1       0.598  11.440  18.897  0.00  0.00    +0.000 A 
ATOM      2  S   UNL     1       1.652  12.732  19.359  0.00  0.00    +0.000 S 
ATOM      3  C   UNL     1       0.473  13.879  18.886  0.00  0.00    +0.000 A 
ATOM      4  N   UNL     1      -0.651  13.358  18.445  0.00  0.00    +0.000 NA
ATOM      5  C   UNL     1      -0.604  11.966  18.434  0.00  0.00    +0.000 A 
ENDROOT
BRANCH   1   9
ATOM      6  C   UNL     1       2.181   7.489  19.345  0.00  0.00    +0.000 A 
ATOM      7  C   UNL     1       2.193   8.107  18.092  0.00  0.00    +0.000 A 
ATOM      8  C   UNL     1       1.611   9.367  17.931  0.00  0.00    +0.000 A 
ATOM      9  C   UNL     1       1.029  10.039  19.015  0.00  0.00    +0.000 A 
ATOM     10  C   UNL     1       0.976   9.383  20.251  0.00  0.00    +0.000 A 
ATOM     11  C   UNL     1       1.558   8.126  20.422  0.00  0.00    +0.000 A 
BRANCH   6  13
ATOM     12  N   UNL     1       3.349   5.190  19.683  0.00  0.00    +0.000 NA
ATOM     13  C   UNL     1       2.821   6.229  19.531  0.00  0.00    +0.000 C 
ENDBRANCH   6  13
ENDBRANCH   1   9
BRANCH   3  14
ATOM     14  C   UNL     1       0.746  15.373  18.992  0.00  0.00    +0.000 C 
ATOM     15  C   UNL     1      -0.563  16.182  18.953  0.00  0.00    +0.000 C 
ATOM     16  C   UNL     1      -1.417  15.978  20.206  0.00  0.00    +0.000 C 
ATOM     17  C   UNL     1      -0.630  16.271  21.481  0.00  0.00    +0.000 C 
ATOM     18  C   UNL     1       0.699  15.519  21.544  0.00  0.00    +0.000 C 
ATOM     19  C   UNL     1       1.527  15.719  20.273  0.00  0.00    +0.000 C 
ENDBRANCH   3  14
BRANCH   5  20
ATOM     20  C   UNL     1      -1.739  11.163  17.943  0.00  0.00    +0.000 C 
ATOM     21  O   UNL     1      -1.930   9.994  18.270  0.00  0.00    +0.000 OA
ATOM     22  N   UNL     1      -2.627  11.810  17.111  0.00  0.00    +0.000 N 
ATOM     23  H   UNL     1      -2.433  12.766  16.839  0.00  0.00    +0.000 HD
BRANCH  22  24
ATOM     24  C   UNL     1      -3.780  11.085  16.623  0.00  0.00    +0.000 C 
BRANCH  24  25
ATOM     25  C   UNL     1      -5.058  11.430  17.331  0.00  0.00    +0.000 A 
ATOM     26  C   UNL     1      -5.549  10.663  18.396  0.00  0.00    +0.000 A 
ATOM     27  C   UNL     1      -6.716  11.050  19.049  0.00  0.00    +0.000 A 
ATOM     28  C   UNL     1      -7.359  12.197  18.616  0.00  0.00    +0.000 A 
ATOM     29  N   UNL     1      -6.918  12.965  17.596  0.00  0.00    +0.000 NA
ATOM     30  C   UNL     1      -5.783  12.563  16.980  0.00  0.00    +0.000 A 
ENDBRANCH  24  25
ENDBRANCH  22  24
ENDBRANCH   5  20
TORSDOF 6
ENDMDL
MODEL 6
REMARK VINA RESULT:      -7.3      0.765      1.174
REMARK  Name = 
REMARK  6 active torsions:
REMARK  status: ('A' for Active; 'I' for Inactive)
REMARK    1  A    between atoms: C_2  and  C_3
REMARK    2  A    between atoms: C_6  and  C_7
REMARK    3  A    between atoms: C_9  and  C_10
REMARK    4  A    between atoms: C_17  and  C_18
REMARK    5  A    between atoms: N_20  and  C_21
REMARK    6  A    between atoms: C_21  and  C_22
REMARK                            x       y       z     vdW  Elec       q    Type
REMARK                         _______ _______ _______ _____ _____    ______ ____
ROOT
ATOM      1  C   UNL     1       5.875   5.257  17.951  0.00  0.00    +0.000 A 
ATOM      2  S   UNL     1       4.837   4.676  19.208  0.00  0.00    +0.000 S 
ATOM      3  C   UNL     1       4.406   3.328  18.246  0.00  0.00    +0.000 A 
ATOM      4  N   UNL     1       5.009   3.273  17.078  0.00  0.00    +0.000 NA
ATOM      5  C   UNL     1       5.849   4.367  16.881  0.00  0.00    +0.000 A 
ENDROOT
BRANCH   1   9
ATOM      6  C   UNL     1       8.207   8.841  18.102  0.00  0.00    +0.000 A 
ATOM      7  C   UNL     1       8.604   7.720  18.834  0.00  0.00    +0.000 A 
ATOM      8  C   UNL     1       7.805   6.574  18.843  0.00  0.00    +0.000 A 
ATOM      9  C   UNL     1       6.612   6.519  18.108  0.00  0.00    +0.000 A 
ATOM     10  C   UNL     1       6.200   7.670  17.424  0.00  0.00    +0.000 A 
ATOM     11  C   UNL     1       6.994   8.817  17.408  0.00  0.00    +0.000 A 
BRANCH   6  13
ATOM     12  N   UNL     1       9.732  10.945  17.991  0.00  0.00    +0.000 NA
ATOM     13  C   UNL     1       9.043   9.995  18.043  0.00  0.00    +0.000 C 
ENDBRANCH   6  13
ENDBRANCH   1   9
BRANCH   3  14
ATOM     14  C   UNL     1       3.404   2.296  18.746  0.00  0.00    +0.000 C 
ATOM     15  C   UNL     1       3.123   2.476  20.249  0.00  0.00    +0.000 C 
ATOM     16  C   UNL     1       2.353   3.764  20.552  0.00  0.00    +0.000 C 
ATOM     17  C   UNL     1       1.064   3.857  19.739  0.00  0.00    +0.000 C 
ATOM     18  C   UNL     1       1.290   3.643  18.242  0.00  0.00    +0.000 C 
ATOM     19  C   UNL     1       2.080   2.363  17.964  0.00  0.00    +0.000 C 
ENDBRANCH   3  14
BRANCH   5  20
ATOM     20  C   UNL     1       6.603   4.540  15.627  0.00  0.00    +0.000 C 
ATOM     21  O   UNL     1       7.829   4.603  15.579  0.00  0.00    +0.000 OA
ATOM     22  N   UNL     1       5.856   4.586  14.469  0.00  0.00    +0.000 N 
ATOM     23  H   UNL     1       4.846   4.556  14.538  0.00  0.00    +0.000 HD
BRANCH  22  24
ATOM     24  C   UNL     1       6.541   4.721  13.202  0.00  0.00    +0.000 C 
BRANCH  24  25
ATOM     25  C   UNL     1       6.417   3.517  12.315  0.00  0.00    +0.000 A 
ATOM     26  C   UNL     1       7.538   2.855  11.797  0.00  0.00    +0.000 A 
ATOM     27  C   UNL     1       7.372   1.716  11.015  0.00  0.00    +0.000 A 
ATOM     28  C   UNL     1       6.084   1.270  10.773  0.00  0.00    +0.000 A 
ATOM     29  N   UNL     1       4.977   1.875  11.255  0.00  0.00    +0.000 NA
ATOM     30  C   UNL     1       5.170   2.981  12.010  0.00  0.00    +0.000 A 
ENDBRANCH  24  25
ENDBRANCH  22  24
ENDBRANCH   5  20
TORSDOF 6
ENDMDL
MODEL 7
REMARK VINA RESULT:      -7.2      8.939     11.847
REMARK  Name = 
REMARK  6 active torsions:
REMARK  status: ('A' for Active; 'I' for Inactive)
REMARK    1  A    between atoms: C_2  and  C_3
REMARK    2  A    between atoms: C_6  and  C_7
REMARK    3  A    between atoms: C_9  and  C_10
REMARK    4  A    between atoms: C_17  and  C_18
REMARK    5  A    between atoms: N_20  and  C_21
REMARK    6  A    between atoms: C_21  and  C_22
REMARK                            x       y       z     vdW  Elec       q    Type
REMARK                         _______ _______ _______ _____ _____    ______ ____
ROOT
ATOM      1  C   UNL     1       0.552  11.318  19.475  0.00  0.00    +0.000 A 
ATOM      2  S   UNL     1       1.493  12.480  20.345  0.00  0.00    +0.000 S 
ATOM      3  C   UNL     1       0.259  13.649  20.142  0.00  0.00    +0.000 A 
ATOM      4  N   UNL     1      -0.806  13.215  19.504  0.00  0.00    +0.000 NA
ATOM      5  C   UNL     1      -0.662  11.889  19.104  0.00  0.00    +0.000 A 
ENDROOT
BRANCH   1   9
ATOM      6  C   UNL     1       2.394   7.505  18.857  0.00  0.00    +0.000 A 
ATOM      7  C   UNL     1       2.309   8.417  17.802  0.00  0.00    +0.000 A 
ATOM      8  C   UNL     1       1.643   9.632  17.983  0.00  0.00    +0.000 A 
ATOM      9  C   UNL     1       1.073   9.967  19.220  0.00  0.00    +0.000 A 
ATOM     10  C   UNL     1       1.119   9.019  20.250  0.00  0.00    +0.000 A 
ATOM     11  C   UNL     1       1.784   7.804  20.078  0.00  0.00    +0.000 A 
BRANCH   6  13
ATOM     12  N   UNL     1       3.714   5.283  18.564  0.00  0.00    +0.000 NA
ATOM     13  C   UNL     1       3.118   6.288  18.698  0.00  0.00    +0.000 C 
ENDBRANCH   6  13
ENDBRANCH   1   9
BRANCH   3  14
ATOM     14  C   UNL     1       0.423  15.064  20.681  0.00  0.00    +0.000 C 
ATOM     15  C   UNL     1       1.845  15.595  20.426  0.00  0.00    +0.000 C 
ATOM     16  C   UNL     1       2.123  15.841  18.941  0.00  0.00    +0.000 C 
ATOM     17  C   UNL     1       1.075  16.758  18.315  0.00  0.00    +0.000 C 
ATOM     18  C   UNL     1      -0.356  16.291  18.578  0.00  0.00    +0.000 C 
ATOM     19  C   UNL     1      -0.605  16.029  20.064  0.00  0.00    +0.000 C 
ENDBRANCH   3  14
BRANCH   5  20
ATOM     20  C   UNL     1      -1.716  11.199  18.339  0.00  0.00    +0.000 C 
ATOM     21  O   UNL     1      -1.929   9.991  18.419  0.00  0.00    +0.000 OA
ATOM     22  N   UNL     1      -2.504  11.994  17.536  0.00  0.00    +0.000 N 
ATOM     23  H   UNL     1      -2.293  12.983  17.469  0.00  0.00    +0.000 HD
BRANCH  22  24
ATOM     24  C   UNL     1      -3.578  11.381  16.784  0.00  0.00    +0.000 C 
BRANCH  24  25
ATOM     25  C   UNL     1      -4.936  11.584  17.391  0.00  0.00    +0.000 A 
ATOM     26  C   UNL     1      -5.793  12.609  16.971  0.00  0.00    +0.000 A 
ATOM     27  C   UNL     1      -7.061  12.727  17.534  0.00  0.00    +0.000 A 
ATOM     28  C   UNL     1      -7.434  11.813  18.504  0.00  0.00    +0.000 A 
ATOM     29  N   UNL     1      -6.640  10.809  18.935  0.00  0.00    +0.000 NA
ATOM     30  C   UNL     1      -5.414  10.721  18.371  0.00  0.00    +0.000 A 
ENDBRANCH  24  25
ENDBRANCH  22  24
ENDBRANCH   5  20
TORSDOF 6
ENDMDL
MODEL 8
REMARK VINA RESULT:      -7.1      7.345     10.392
REMARK  Name = 
REMARK  6 active torsions:
REMARK  status: ('A' for Active; 'I' for Inactive)
REMARK    1  A    between atoms: C_2  and  C_3
REMARK    2  A    between atoms: C_6  and  C_7
REMARK    3  A    between atoms: C_9  and  C_10
REMARK    4  A    between atoms: C_17  and  C_18
REMARK    5  A    between atoms: N_20  and  C_21
REMARK    6  A    between atoms: C_21  and  C_22
REMARK                            x       y       z     vdW  Elec       q    Type
REMARK                         _______ _______ _______ _____ _____    ______ ____
ROOT
ATOM      1  C   UNL     1       1.465   9.156  19.144  0.00  0.00    +0.000 A 
ATOM      2  S   UNL     1       2.004   8.095  17.888  0.00  0.00    +0.000 S 
ATOM      3  C   UNL     1       2.245   6.844  19.032  0.00  0.00    +0.000 A 
ATOM      4  N   UNL     1       1.919   7.161  20.266  0.00  0.00    +0.000 NA
ATOM      5  C   UNL     1       1.477   8.478  20.360  0.00  0.00    +0.000 A 
ENDROOT
BRANCH   1   9
ATOM      6  C   UNL     1       0.342  13.253  18.635  0.00  0.00    +0.000 A 
ATOM      7  C   UNL     1      -0.630  12.252  18.578  0.00  0.00    +0.000 A 
ATOM      8  C   UNL     1      -0.254  10.910  18.670  0.00  0.00    +0.000 A 
ATOM      9  C   UNL     1       1.088  10.545  18.844  0.00  0.00    +0.000 A 
ATOM     10  C   UNL     1       2.056  11.557  18.845  0.00  0.00    +0.000 A 
ATOM     11  C   UNL     1       1.689  12.901  18.756  0.00  0.00    +0.000 A 
BRANCH   6  13
ATOM     12  N   UNL     1      -0.353  15.759  18.565  0.00  0.00    +0.000 NA
ATOM     13  C   UNL     1      -0.037  14.627  18.597  0.00  0.00    +0.000 C 
ENDBRANCH   6  13
ENDBRANCH   1   9
BRANCH   3  14
ATOM     14  C   UNL     1       2.790   5.487  18.606  0.00  0.00    +0.000 C 
ATOM     15  C   UNL     1       3.340   5.534  17.169  0.00  0.00    +0.000 C 
ATOM     16  C   UNL     1       4.610   6.380  17.053  0.00  0.00    +0.000 C 
ATOM     17  C   UNL     1       5.685   5.923  18.036  0.00  0.00    +0.000 C 
ATOM     18  C   UNL     1       5.172   5.822  19.472  0.00  0.00    +0.000 C 
ATOM     19  C   UNL     1       3.891   4.992  19.562  0.00  0.00    +0.000 C 
ENDBRANCH   3  14
BRANCH   5  20
ATOM     20  C   UNL     1       1.090   9.068  21.654  0.00  0.00    +0.000 C 
ATOM     21  O   UNL     1       1.899   9.364  22.530  0.00  0.00    +0.000 OA
ATOM     22  N   UNL     1      -0.253   9.323  21.829  0.00  0.00    +0.000 N 
ATOM     23  H   UNL     1      -0.902   9.048  21.100  0.00  0.00    +0.000 HD
BRANCH  22  24
ATOM     24  C   UNL     1      -0.692   9.933  23.065  0.00  0.00    +0.000 C 
BRANCH  24  25
ATOM     25  C   UNL     1      -1.190  11.340  22.904  0.00  0.00    +0.000 A 
ATOM     26  C   UNL     1      -0.448  12.319  22.232  0.00  0.00    +0.000 A 
ATOM     27  C   UNL     1      -0.973  13.599  22.071  0.00  0.00    +0.000 A 
ATOM     28  C   UNL     1      -2.230  13.860  22.589  0.00  0.00    +0.000 A 
ATOM     29  N   UNL     1      -2.979  12.945  23.240  0.00  0.00    +0.000 NA
ATOM     30  C   UNL     1      -2.442  11.711  23.383  0.00  0.00    +0.000 A 
ENDBRANCH  24  25
ENDBRANCH  22  24
ENDBRANCH   5  20
TORSDOF 6
ENDMDL
MODEL 9
REMARK VINA RESULT:      -7.0      9.026     11.954
REMARK  Name = 
REMARK  6 active torsions:
REMARK  status: ('A' for Active; 'I' for Inactive)
REMARK    1  A    between atoms: C_2  and  C_3
REMARK    2  A    between atoms: C_6  and  C_7
REMARK    3  A    between atoms: C_9  and  C_10
REMARK    4  A    between atoms: C_17  and  C_18
REMARK    5  A    between atoms: N_20  and  C_21
REMARK    6  A    between atoms: C_21  and  C_22
REMARK                            x       y       z     vdW  Elec       q    Type
REMARK                         _______ _______ _______ _____ _____    ______ ____
ROOT
ATOM      1  C   UNL     1       0.628  11.607  19.476  0.00  0.00    +0.000 A 
ATOM      2  S   UNL     1       1.475  12.868  20.304  0.00  0.00    +0.000 S 
ATOM      3  C   UNL     1       0.139  13.918  20.097  0.00  0.00    +0.000 A 
ATOM      4  N   UNL     1      -0.894  13.377  19.487  0.00  0.00    +0.000 NA
ATOM      5  C   UNL     1      -0.639  12.059  19.115  0.00  0.00    +0.000 A 
ENDROOT
BRANCH   1   9
ATOM      6  C   UNL     1       2.153   7.693  18.664  0.00  0.00    +0.000 A 
ATOM      7  C   UNL     1       1.671   8.002  19.937  0.00  0.00    +0.000 A 
ATOM      8  C   UNL     1       1.240   9.300  20.223  0.00  0.00    +0.000 A 
ATOM      9  C   UNL     1       1.263  10.302  19.242  0.00  0.00    +0.000 A 
ATOM     10  C   UNL     1       1.801   9.990  17.988  0.00  0.00    +0.000 A 
ATOM     11  C   UNL     1       2.230   8.695  17.693  0.00  0.00    +0.000 A 
BRANCH   6  13
ATOM     12  N   UNL     1       2.863   5.258  18.088  0.00  0.00    +0.000 NA
ATOM     13  C   UNL     1       2.543   6.358  18.347  0.00  0.00    +0.000 C 
ENDBRANCH   6  13
ENDBRANCH   1   9
BRANCH   3  14
ATOM     14  C   UNL     1       0.185  15.354  20.601  0.00  0.00    +0.000 C 
ATOM     15  C   UNL     1       1.604  15.940  20.484  0.00  0.00    +0.000 C 
ATOM     16  C   UNL     1       2.032  16.154  19.029  0.00  0.00    +0.000 C 
ATOM     17  C   UNL     1       1.022  17.004  18.262  0.00  0.00    +0.000 C 
ATOM     18  C   UNL     1      -0.409  16.482  18.385  0.00  0.00    +0.000 C 
ATOM     19  C   UNL     1      -0.808  16.254  19.844  0.00  0.00    +0.000 C 
ENDBRANCH   3  14
BRANCH   5  20
ATOM     20  C   UNL     1      -1.638  11.260  18.383  0.00  0.00    +0.000 C 
ATOM     21  O   UNL     1      -1.779  10.050  18.537  0.00  0.00    +0.000 OA
ATOM     22  N   UNL     1      -2.463  11.956  17.526  0.00  0.00    +0.000 N 
ATOM     23  H   UNL     1      -2.310  12.950  17.400  0.00  0.00    +0.000 HD
BRANCH  22  24
ATOM     24  C   UNL     1      -3.487  11.234  16.803  0.00  0.00    +0.000 C 
BRANCH  24  25
ATOM     25  C   UNL     1      -4.871  11.431  17.352  0.00  0.00    +0.000 A 
ATOM     26  C   UNL     1      -5.416  10.579  18.321  0.00  0.00    +0.000 A 
ATOM     27  C   UNL     1      -6.687  10.830  18.831  0.00  0.00    +0.000 A 
ATOM     28  C   UNL     1      -7.376  11.932  18.354  0.00  0.00    +0.000 A 
ATOM     29  N   UNL     1      -6.887  12.780  17.424  0.00  0.00    +0.000 NA
ATOM     30  C   UNL     1      -5.650  12.509  16.947  0.00  0.00    +0.000 A 
ENDBRANCH  24  25
ENDBRANCH  22  24
ENDBRANCH   5  20
TORSDOF 6
ENDMDL
