MODEL 1
REMARK VINA RESULT:      -5.8      0.000      0.000
REMARK  Name = 
REMARK  20 active torsions:
REMARK  status: ('A' for Active; 'I' for Inactive)
REMARK    1  A    between atoms: C_1  and  C_2
REMARK    2  A    between atoms: C_2  and  C_3
REMARK    3  A    between atoms: C_3  and  C_4
REMARK    4  A    between atoms: C_4  and  C_5
REMARK    5  A    between atoms: C_5  and  C_6
REMARK    6  A    between atoms: C_6  and  C_7
REMARK    7  A    between atoms: C_7  and  C_8
REMARK    8  A    between atoms: C_8  and  C_9
REMARK    9  A    between atoms: C_9  and  C_10
REMARK   10  A    between atoms: C_10  and  C_11
REMARK   11  A    between atoms: C_11  and  C_12
REMARK   12  A    between atoms: C_12  and  C_13
REMARK   13  A    between atoms: C_13  and  C_14
REMARK   14  A    between atoms: C_15  and  C_16
REMARK   15  A    between atoms: C_16  and  O_17
REMARK   16  A    between atoms: C_16  and  C_18
REMARK   17  A    between atoms: C_18  and  C_19
REMARK   18  A    between atoms: C_18  and  N_21
REMARK   19  A    between atoms: C_19  and  O_20
REMARK   20  A    between atoms: C_22  and  C_23
REMARK                            x       y       z     vdW  Elec       q    Type
REMARK                         _______ _______ _______ _____ _____    ______ ____
ROOT
ATOM      1  C   UNK A   1       7.429   7.266  17.590  0.00  0.00    +0.000 C 
ATOM      2  C   UNK A   1       7.732   6.332  18.504  0.00  0.00    +0.000 C 
ENDROOT
BRANCH   2   3
ATOM      3  C   UNK A   1       7.246   4.913  18.412  0.00  0.00    +0.000 C 
BRANCH   3   4
ATOM      4  O   UNK A   1       8.247   4.164  17.706  0.00  0.00    +0.000 OA
ATOM      5  H   UNK A   1       8.385   3.315  18.168  0.00  0.00    +0.000 HD
ENDBRANCH   3   4
BRANCH   3   6
ATOM      6  C   UNK A   1       5.884   4.748  17.690  0.00  0.00    +0.000 C 
BRANCH   6   7
ATOM      7  N   UNK A   1       6.081   4.104  16.370  0.00  0.00    +0.000 N 
ATOM      8  C   UNK A   0       5.929   4.764  15.172  0.00  0.00    +0.000 C 
ATOM      9  C   UNK A   0       6.207   3.912  13.957  0.00  0.00    +0.000 C 
ATOM     10  O   UNK A   0       5.582   5.936  15.066  0.00  0.00    +0.000 OA
ATOM     11  H   UNK A   1       6.610   3.241  16.377  0.00  0.00    +0.000 HD
ENDBRANCH   6   7
BRANCH   6  12
ATOM     12  C   UNK A   1       4.852   3.958  18.527  0.00  0.00    +0.000 C 
BRANCH  12  13
ATOM     13  O   UNK A   1       3.848   4.805  19.089  0.00  0.00    +0.000 OA
ATOM     14  H   UNK A   1       3.093   4.819  18.476  0.00  0.00    +0.000 HD
ENDBRANCH  12  13
ENDBRANCH   6  12
ENDBRANCH   3   6
ENDBRANCH   2   3
BRANCH   1  15
ATOM     15  C   UNK A   1       7.825   8.710  17.690  0.00  0.00    +0.000 C 
BRANCH  15  16
ATOM     16  C   UNK A   1       8.897   8.905  18.757  0.00  0.00    +0.000 C 
BRANCH  16  17
ATOM     17  C   UNK A   1       9.053  10.381  19.106  0.00  0.00    +0.000 C 
BRANCH  17  18
ATOM     18  C   UNK A   1       9.782  11.121  17.992  0.00  0.00    +0.000 C 
BRANCH  18  19
ATOM     19  C   UNK A   1      11.142  11.609  18.475  0.00  0.00    +0.000 C 
BRANCH  19  20
ATOM     20  C   UNK A   1      11.111  13.107  18.744  0.00  0.00    +0.000 C 
BRANCH  20  21
ATOM     21  C   UNK A   1      11.028  13.374  20.241  0.00  0.00    +0.000 C 
BRANCH  21  22
ATOM     22  C   UNK A   1       9.825  14.248  20.568  0.00  0.00    +0.000 C 
BRANCH  22  23
ATOM     23  C   UNK A   1       9.952  14.822  21.974  0.00  0.00    +0.000 C 
BRANCH  23  24
ATOM     24  C   UNK A   1       9.006  14.111  22.936  0.00  0.00    +0.000 C 
BRANCH  24  25
ATOM     25  C   UNK A   1       7.924  13.359  22.168  0.00  0.00    +0.000 C 
BRANCH  25  27
ATOM     26  C   UNK A   1       8.232  11.698  24.022  0.00  0.00    +0.000 C 
ATOM     27  C   UNK A   1       7.901  11.884  22.551  0.00  0.00    +0.000 C 
ENDBRANCH  25  27
ENDBRANCH  24  25
ENDBRANCH  23  24
ENDBRANCH  22  23
ENDBRANCH  21  22
ENDBRANCH  20  21
ENDBRANCH  19  20
ENDBRANCH  18  19
ENDBRANCH  17  18
ENDBRANCH  16  17
ENDBRANCH  15  16
ENDBRANCH   1  15
TORSDOF 18
ENDMDL
MODEL 2
REMARK VINA RESULT:      -5.8      5.490      7.788
REMARK  Name = 
REMARK  20 active torsions:
REMARK  status: ('A' for Active; 'I' for Inactive)
REMARK    1  A    between atoms: C_1  and  C_2
REMARK    2  A    between atoms: C_2  and  C_3
REMARK    3  A    between atoms: C_3  and  C_4
REMARK    4  A    between atoms: C_4  and  C_5
REMARK    5  A    between atoms: C_5  and  C_6
REMARK    6  A    between atoms: C_6  and  C_7
REMARK    7  A    between atoms: C_7  and  C_8
REMARK    8  A    between atoms: C_8  and  C_9
REMARK    9  A    between atoms: C_9  and  C_10
REMARK   10  A    between atoms: C_10  and  C_11
REMARK   11  A    between atoms: C_11  and  C_12
REMARK   12  A    between atoms: C_12  and  C_13
REMARK   13  A    between atoms: C_13  and  C_14
REMARK   14  A    between atoms: C_15  and  C_16
REMARK   15  A    between atoms: C_16  and  O_17
REMARK   16  A    between atoms: C_16  and  C_18
REMARK   17  A    between atoms: C_18  and  C_19
REMARK   18  A    between atoms: C_18  and  N_21
REMARK   19  A    between atoms: C_19  and  O_20
REMARK   20  A    between atoms: C_22  and  C_23
REMARK                            x       y       z     vdW  Elec       q    Type
REMARK                         _______ _______ _______ _____ _____    ______ ____
ROOT
ATOM      1  C   UNK A   1       2.537   2.801  17.418  0.00  0.00    +0.000 C 
ATOM      2  C   UNK A   1       3.281   3.864  17.077  0.00  0.00    +0.000 C 
ENDROOT
BRANCH   2   3
ATOM      3  C   UNK A   1       4.557   3.747  16.291  0.00  0.00    +0.000 C 
BRANCH   3   4
ATOM      4  O   UNK A   1       5.439   2.892  17.034  0.00  0.00    +0.000 OA
ATOM      5  H   UNK A   1       6.360   3.142  16.830  0.00  0.00    +0.000 HD
ENDBRANCH   3   4
BRANCH   3   6
ATOM      6  C   UNK A   1       5.268   5.099  16.020  0.00  0.00    +0.000 C 
BRANCH   6   7
ATOM      7  N   UNK A   1       5.938   5.579  17.252  0.00  0.00    +0.000 N 
ATOM      8  C   UNK A   0       7.216   5.217  17.611  0.00  0.00    +0.000 C 
ATOM      9  C   UNK A   0       7.700   5.850  18.894  0.00  0.00    +0.000 C 
ATOM     10  O   UNK A   0       7.920   4.437  16.977  0.00  0.00    +0.000 OA
ATOM     11  H   UNK A   1       5.538   6.407  17.676  0.00  0.00    +0.000 HD
ENDBRANCH   6   7
BRANCH   6  12
ATOM     12  C   UNK A   1       6.278   5.022  14.852  0.00  0.00    +0.000 C 
BRANCH  12  13
ATOM     13  O   UNK A   1       6.500   3.681  14.415  0.00  0.00    +0.000 OA
ATOM     14  H   UNK A   1       5.869   3.491  13.700  0.00  0.00    +0.000 HD
ENDBRANCH  12  13
ENDBRANCH   6  12
ENDBRANCH   3   6
ENDBRANCH   2   3
BRANCH   1  15
ATOM     15  C   UNK A   1       1.304   2.869  18.271  0.00  0.00    +0.000 C 
BRANCH  15  16
ATOM     16  C   UNK A   1       1.659   2.746  19.749  0.00  0.00    +0.000 C 
BRANCH  16  17
ATOM     17  C   UNK A   1       0.904   3.780  20.577  0.00  0.00    +0.000 C 
BRANCH  17  18
ATOM     18  C   UNK A   1       1.451   5.178  20.316  0.00  0.00    +0.000 C 
BRANCH  18  19
ATOM     19  C   UNK A   1       2.974   5.167  20.325  0.00  0.00    +0.000 C 
BRANCH  19  20
ATOM     20  C   UNK A   1       3.526   6.345  19.534  0.00  0.00    +0.000 C 
BRANCH  20  21
ATOM     21  C   UNK A   1       2.436   6.950  18.658  0.00  0.00    +0.000 C 
BRANCH  21  22
ATOM     22  C   UNK A   1       3.009   8.032  17.753  0.00  0.00    +0.000 C 
BRANCH  22  23
ATOM     23  C   UNK A   1       2.161   9.295  17.831  0.00  0.00    +0.000 C 
BRANCH  23  24
ATOM     24  C   UNK A   1       0.727   8.961  18.228  0.00  0.00    +0.000 C 
BRANCH  24  25
ATOM     25  C   UNK A   1       0.212   9.955  19.264  0.00  0.00    +0.000 C 
BRANCH  25  27
ATOM     26  C   UNK A   1       0.270   8.654  21.407  0.00  0.00    +0.000 C 
ATOM     27  C   UNK A   1       0.916   9.769  20.604  0.00  0.00    +0.000 C 
ENDBRANCH  25  27
ENDBRANCH  24  25
ENDBRANCH  23  24
ENDBRANCH  22  23
ENDBRANCH  21  22
ENDBRANCH  20  21
ENDBRANCH  19  20
ENDBRANCH  18  19
ENDBRANCH  17  18
ENDBRANCH  16  17
ENDBRANCH  15  16
ENDBRANCH   1  15
TORSDOF 18
ENDMDL
MODEL 3
REMARK VINA RESULT:      -5.8      5.409      7.963
REMARK  Name = 
REMARK  20 active torsions:
REMARK  status: ('A' for Active; 'I' for Inactive)
REMARK    1  A    between atoms: C_1  and  C_2
REMARK    2  A    between atoms: C_2  and  C_3
REMARK    3  A    between atoms: C_3  and  C_4
REMARK    4  A    between atoms: C_4  and  C_5
REMARK    5  A    between atoms: C_5  and  C_6
REMARK    6  A    between atoms: C_6  and  C_7
REMARK    7  A    between atoms: C_7  and  C_8
REMARK    8  A    between atoms: C_8  and  C_9
REMARK    9  A    between atoms: C_9  and  C_10
REMARK   10  A    between atoms: C_10  and  C_11
REMARK   11  A    between atoms: C_11  and  C_12
REMARK   12  A    between atoms: C_12  and  C_13
REMARK   13  A    between atoms: C_13  and  C_14
REMARK   14  A    between atoms: C_15  and  C_16
REMARK   15  A    between atoms: C_16  and  O_17
REMARK   16  A    between atoms: C_16  and  C_18
REMARK   17  A    between atoms: C_18  and  C_19
REMARK   18  A    between atoms: C_18  and  N_21
REMARK   19  A    between atoms: C_19  and  O_20
REMARK   20  A    between atoms: C_22  and  C_23
REMARK                            x       y       z     vdW  Elec       q    Type
REMARK                         _______ _______ _______ _____ _____    ______ ____
ROOT
ATOM      1  C   UNK A   1       4.492   3.668  17.593  0.00  0.00    +0.000 C 
ATOM      2  C   UNK A   1       4.226   4.786  16.901  0.00  0.00    +0.000 C 
ENDROOT
BRANCH   2   3
ATOM      3  C   UNK A   1       5.134   5.984  16.907  0.00  0.00    +0.000 C 
BRANCH   3   4
ATOM      4  O   UNK A   1       4.789   6.787  15.768  0.00  0.00    +0.000 OA
ATOM      5  H   UNK A   1       5.567   6.845  15.181  0.00  0.00    +0.000 HD
ENDBRANCH   3   4
BRANCH   3   6
ATOM      6  C   UNK A   1       6.646   5.641  16.848  0.00  0.00    +0.000 C 
BRANCH   6   7
ATOM      7  N   UNK A   1       7.141   5.755  15.455  0.00  0.00    +0.000 N 
ATOM      8  C   UNK A   0       7.016   4.752  14.521  0.00  0.00    +0.000 C 
ATOM      9  C   UNK A   0       7.570   5.102  13.161  0.00  0.00    +0.000 C 
ATOM     10  O   UNK A   0       6.521   3.652  14.746  0.00  0.00    +0.000 OA
ATOM     11  H   UNK A   1       7.315   6.696  15.126  0.00  0.00    +0.000 HD
ENDBRANCH   6   7
BRANCH   6  12
ATOM     12  C   UNK A   1       7.497   6.517  17.795  0.00  0.00    +0.000 C 
BRANCH  12  13
ATOM     13  O   UNK A   1       7.789   7.798  17.233  0.00  0.00    +0.000 OA
ATOM     14  H   UNK A   1       8.623   7.724  16.738  0.00  0.00    +0.000 HD
ENDBRANCH  12  13
ENDBRANCH   6  12
ENDBRANCH   3   6
ENDBRANCH   2   3
BRANCH   1  15
ATOM     15  C   UNK A   1       3.572   2.486  17.678  0.00  0.00    +0.000 C 
BRANCH  15  16
ATOM     16  C   UNK A   1       2.315   2.832  18.470  0.00  0.00    +0.000 C 
BRANCH  16  17
ATOM     17  C   UNK A   1       2.609   2.872  19.965  0.00  0.00    +0.000 C 
BRANCH  17  18
ATOM     18  C   UNK A   1       1.401   3.390  20.735  0.00  0.00    +0.000 C 
BRANCH  18  19
ATOM     19  C   UNK A   1       1.092   4.828  20.340  0.00  0.00    +0.000 C 
BRANCH  19  20
ATOM     20  C   UNK A   1       2.346   5.689  20.419  0.00  0.00    +0.000 C 
BRANCH  20  21
ATOM     21  C   UNK A   1       2.032   7.120  20.003  0.00  0.00    +0.000 C 
BRANCH  21  22
ATOM     22  C   UNK A   1       2.491   7.381  18.575  0.00  0.00    +0.000 C 
BRANCH  22  23
ATOM     23  C   UNK A   1       1.890   8.680  18.053  0.00  0.00    +0.000 C 
BRANCH  23  24
ATOM     24  C   UNK A   1       1.119   9.401  19.152  0.00  0.00    +0.000 C 
BRANCH  24  25
ATOM     25  C   UNK A   1       0.792  10.830  18.729  0.00  0.00    +0.000 C 
BRANCH  25  27
ATOM     26  C   UNK A   1      -1.501  10.263  17.886  0.00  0.00    +0.000 C 
ATOM     27  C   UNK A   1      -0.700  11.115  18.856  0.00  0.00    +0.000 C 
ENDBRANCH  25  27
ENDBRANCH  24  25
ENDBRANCH  23  24
ENDBRANCH  22  23
ENDBRANCH  21  22
ENDBRANCH  20  21
ENDBRANCH  19  20
ENDBRANCH  18  19
ENDBRANCH  17  18
ENDBRANCH  16  17
ENDBRANCH  15  16
ENDBRANCH   1  15
TORSDOF 18
ENDMDL
MODEL 4
REMARK VINA RESULT:      -5.8      4.561      8.288
REMARK  Name = 
REMARK  20 active torsions:
REMARK  status: ('A' for Active; 'I' for Inactive)
REMARK    1  A    between atoms: C_1  and  C_2
REMARK    2  A    between atoms: C_2  and  C_3
REMARK    3  A    between atoms: C_3  and  C_4
REMARK    4  A    between atoms: C_4  and  C_5
REMARK    5  A    between atoms: C_5  and  C_6
REMARK    6  A    between atoms: C_6  and  C_7
REMARK    7  A    between atoms: C_7  and  C_8
REMARK    8  A    between atoms: C_8  and  C_9
REMARK    9  A    between atoms: C_9  and  C_10
REMARK   10  A    between atoms: C_10  and  C_11
REMARK   11  A    between atoms: C_11  and  C_12
REMARK   12  A    between atoms: C_12  and  C_13
REMARK   13  A    between atoms: C_13  and  C_14
REMARK   14  A    between atoms: C_15  and  C_16
REMARK   15  A    between atoms: C_16  and  O_17
REMARK   16  A    between atoms: C_16  and  C_18
REMARK   17  A    between atoms: C_18  and  C_19
REMARK   18  A    between atoms: C_18  and  N_21
REMARK   19  A    between atoms: C_19  and  O_20
REMARK   20  A    between atoms: C_22  and  C_23
REMARK                            x       y       z     vdW  Elec       q    Type
REMARK                         _______ _______ _______ _____ _____    ______ ____
ROOT
ATOM      1  C   UNK A   1       4.333   2.682  19.085  0.00  0.00    +0.000 C 
ATOM      2  C   UNK A   1       4.906   3.596  18.288  0.00  0.00    +0.000 C 
ENDROOT
BRANCH   2   3
ATOM      3  C   UNK A   1       5.995   4.520  18.758  0.00  0.00    +0.000 C 
BRANCH   3   4
ATOM      4  O   UNK A   1       5.438   5.343  19.794  0.00  0.00    +0.000 OA
ATOM      5  H   UNK A   1       6.156   5.873  20.189  0.00  0.00    +0.000 HD
ENDBRANCH   3   4
BRANCH   3   6
ATOM      6  C   UNK A   1       6.586   5.429  17.648  0.00  0.00    +0.000 C 
BRANCH   6   7
ATOM      7  N   UNK A   1       7.507   6.426  18.243  0.00  0.00    +0.000 N 
ATOM      8  C   UNK A   0       7.636   7.714  17.777  0.00  0.00    +0.000 C 
ATOM      9  C   UNK A   0       8.616   8.558  18.555  0.00  0.00    +0.000 C 
ATOM     10  O   UNK A   0       7.036   8.163  16.805  0.00  0.00    +0.000 OA
ATOM     11  H   UNK A   1       7.828   6.222  19.181  0.00  0.00    +0.000 HD
ENDBRANCH   6   7
BRANCH   6  12
ATOM     12  C   UNK A   1       7.301   4.630  16.535  0.00  0.00    +0.000 C 
BRANCH  12  13
ATOM     13  O   UNK A   1       7.412   5.373  15.321  0.00  0.00    +0.000 OA
ATOM     14  H   UNK A   1       7.914   6.184  15.511  0.00  0.00    +0.000 HD
ENDBRANCH  12  13
ENDBRANCH   6  12
ENDBRANCH   3   6
ENDBRANCH   2   3
BRANCH   1  15
ATOM     15  C   UNK A   1       3.189   1.800  18.677  0.00  0.00    +0.000 C 
BRANCH  15  16
ATOM     16  C   UNK A   1       1.916   2.618  18.485  0.00  0.00    +0.000 C 
BRANCH  16  17
ATOM     17  C   UNK A   1       1.266   2.935  19.827  0.00  0.00    +0.000 C 
BRANCH  17  18
ATOM     18  C   UNK A   1       1.286   4.435  20.091  0.00  0.00    +0.000 C 
BRANCH  18  19
ATOM     19  C   UNK A   1       1.715   5.192  18.841  0.00  0.00    +0.000 C 
BRANCH  19  20
ATOM     20  C   UNK A   1       2.293   6.552  19.208  0.00  0.00    +0.000 C 
BRANCH  20  21
ATOM     21  C   UNK A   1       2.648   7.333  17.949  0.00  0.00    +0.000 C 
BRANCH  21  22
ATOM     22  C   UNK A   1       1.900   8.659  17.908  0.00  0.00    +0.000 C 
BRANCH  22  23
ATOM     23  C   UNK A   1       1.555   9.118  19.319  0.00  0.00    +0.000 C 
BRANCH  23  24
ATOM     24  C   UNK A   1       0.236   9.883  19.333  0.00  0.00    +0.000 C 
BRANCH  24  25
ATOM     25  C   UNK A   1      -0.363   9.946  17.932  0.00  0.00    +0.000 C 
BRANCH  25  27
ATOM     26  C   UNK A   1      -2.851   9.755  17.681  0.00  0.00    +0.000 C 
ATOM     27  C   UNK A   1      -1.688  10.699  17.933  0.00  0.00    +0.000 C 
ENDBRANCH  25  27
ENDBRANCH  24  25
ENDBRANCH  23  24
ENDBRANCH  22  23
ENDBRANCH  21  22
ENDBRANCH  20  21
ENDBRANCH  19  20
ENDBRANCH  18  19
ENDBRANCH  17  18
ENDBRANCH  16  17
ENDBRANCH  15  16
ENDBRANCH   1  15
TORSDOF 18
ENDMDL
MODEL 5
REMARK VINA RESULT:      -5.7      6.443      8.600
REMARK  Name = 
REMARK  20 active torsions:
REMARK  status: ('A' for Active; 'I' for Inactive)
REMARK    1  A    between atoms: C_1  and  C_2
REMARK    2  A    between atoms: C_2  and  C_3
REMARK    3  A    between atoms: C_3  and  C_4
REMARK    4  A    between atoms: C_4  and  C_5
REMARK    5  A    between atoms: C_5  and  C_6
REMARK    6  A    between atoms: C_6  and  C_7
REMARK    7  A    between atoms: C_7  and  C_8
REMARK    8  A    between atoms: C_8  and  C_9
REMARK    9  A    between atoms: C_9  and  C_10
REMARK   10  A    between atoms: C_10  and  C_11
REMARK   11  A    between atoms: C_11  and  C_12
REMARK   12  A    between atoms: C_12  and  C_13
REMARK   13  A    between atoms: C_13  and  C_14
REMARK   14  A    between atoms: C_15  and  C_16
REMARK   15  A    between atoms: C_16  and  O_17
REMARK   16  A    between atoms: C_16  and  C_18
REMARK   17  A    between atoms: C_18  and  C_19
REMARK   18  A    between atoms: C_18  and  N_21
REMARK   19  A    between atoms: C_19  and  O_20
REMARK   20  A    between atoms: C_22  and  C_23
REMARK                            x       y       z     vdW  Elec       q    Type
REMARK                         _______ _______ _______ _____ _____    ______ ____
ROOT
ATOM      1  C   UNK A   1       4.376   4.340  16.294  0.00  0.00    +0.000 C 
ATOM      2  C   UNK A   1       5.550   3.880  15.834  0.00  0.00    +0.000 C 
ENDROOT
BRANCH   2   3
ATOM      3  C   UNK A   1       6.489   4.718  15.012  0.00  0.00    +0.000 C 
BRANCH   3   4
ATOM      4  O   UNK A   1       5.903   6.023  14.893  0.00  0.00    +0.000 OA
ATOM      5  H   UNK A   1       5.509   6.267  15.753  0.00  0.00    +0.000 HD
ENDBRANCH   3   4
BRANCH   3   6
ATOM      6  C   UNK A   1       6.774   4.157  13.594  0.00  0.00    +0.000 C 
BRANCH   6   7
ATOM      7  N   UNK A   1       5.515   4.078  12.815  0.00  0.00    +0.000 N 
ATOM      8  C   UNK A   0       5.249   3.084  11.901  0.00  0.00    +0.000 C 
ATOM      9  C   UNK A   0       3.893   3.192  11.247  0.00  0.00    +0.000 C 
ATOM     10  O   UNK A   0       6.032   2.185  11.607  0.00  0.00    +0.000 OA
ATOM     11  H   UNK A   1       4.737   4.611  13.182  0.00  0.00    +0.000 HD
ENDBRANCH   6   7
BRANCH   6  12
ATOM     12  C   UNK A   1       7.833   4.979  12.826  0.00  0.00    +0.000 C 
BRANCH  12  13
ATOM     13  O   UNK A   1       8.563   5.858  13.683  0.00  0.00    +0.000 OA
ATOM     14  H   UNK A   1       8.919   6.580  13.137  0.00  0.00    +0.000 HD
ENDBRANCH  12  13
ENDBRANCH   6  12
ENDBRANCH   3   6
ENDBRANCH   2   3
BRANCH   1  15
ATOM     15  C   UNK A   1       3.377   3.511  17.045  0.00  0.00    +0.000 C 
BRANCH  15  16
ATOM     16  C   UNK A   1       4.075   2.584  18.034  0.00  0.00    +0.000 C 
BRANCH  16  17
ATOM     17  C   UNK A   1       4.753   3.383  19.141  0.00  0.00    +0.000 C 
BRANCH  17  18
ATOM     18  C   UNK A   1       4.390   2.820  20.509  0.00  0.00    +0.000 C 
BRANCH  18  19
ATOM     19  C   UNK A   1       3.109   2.000  20.426  0.00  0.00    +0.000 C 
BRANCH  19  20
ATOM     20  C   UNK A   1       1.990   2.671  21.211  0.00  0.00    +0.000 C 
BRANCH  20  21
ATOM     21  C   UNK A   1       0.851   3.064  20.278  0.00  0.00    +0.000 C 
BRANCH  21  22
ATOM     22  C   UNK A   1       1.008   4.505  19.812  0.00  0.00    +0.000 C 
BRANCH  22  23
ATOM     23  C   UNK A   1       1.516   5.379  20.952  0.00  0.00    +0.000 C 
BRANCH  23  24
ATOM     24  C   UNK A   1       2.142   6.661  20.414  0.00  0.00    +0.000 C 
BRANCH  24  25
ATOM     25  C   UNK A   1       2.826   6.404  19.075  0.00  0.00    +0.000 C 
BRANCH  25  27
ATOM     26  C   UNK A   1       3.704   7.830  17.208  0.00  0.00    +0.000 C 
ATOM     27  C   UNK A   1       2.497   7.502  18.069  0.00  0.00    +0.000 C 
ENDBRANCH  25  27
ENDBRANCH  24  25
ENDBRANCH  23  24
ENDBRANCH  22  23
ENDBRANCH  21  22
ENDBRANCH  20  21
ENDBRANCH  19  20
ENDBRANCH  18  19
ENDBRANCH  17  18
ENDBRANCH  16  17
ENDBRANCH  15  16
ENDBRANCH   1  15
TORSDOF 18
ENDMDL
MODEL 6
REMARK VINA RESULT:      -5.7      4.468      9.586
REMARK  Name = 
REMARK  20 active torsions:
REMARK  status: ('A' for Active; 'I' for Inactive)
REMARK    1  A    between atoms: C_1  and  C_2
REMARK    2  A    between atoms: C_2  and  C_3
REMARK    3  A    between atoms: C_3  and  C_4
REMARK    4  A    between atoms: C_4  and  C_5
REMARK    5  A    between atoms: C_5  and  C_6
REMARK    6  A    between atoms: C_6  and  C_7
REMARK    7  A    between atoms: C_7  and  C_8
REMARK    8  A    between atoms: C_8  and  C_9
REMARK    9  A    between atoms: C_9  and  C_10
REMARK   10  A    between atoms: C_10  and  C_11
REMARK   11  A    between atoms: C_11  and  C_12
REMARK   12  A    between atoms: C_12  and  C_13
REMARK   13  A    between atoms: C_13  and  C_14
REMARK   14  A    between atoms: C_15  and  C_16
REMARK   15  A    between atoms: C_16  and  O_17
REMARK   16  A    between atoms: C_16  and  C_18
REMARK   17  A    between atoms: C_18  and  C_19
REMARK   18  A    between atoms: C_18  and  N_21
REMARK   19  A    between atoms: C_19  and  O_20
REMARK   20  A    between atoms: C_22  and  C_23
REMARK                            x       y       z     vdW  Elec       q    Type
REMARK                         _______ _______ _______ _____ _____    ______ ____
ROOT
ATOM      1  C   UNK A   1       8.415   9.359  17.845  0.00  0.00    +0.000 C 
ATOM      2  C   UNK A   1       9.050  10.340  18.505  0.00  0.00    +0.000 C 
ENDROOT
BRANCH   2   3
ATOM      3  C   UNK A   1       9.432  11.642  17.859  0.00  0.00    +0.000 C 
BRANCH   3   4
ATOM      4  O   UNK A   1      10.806  11.531  17.456  0.00  0.00    +0.000 OA
ATOM      5  H   UNK A   1      11.195  10.748  17.890  0.00  0.00    +0.000 HD
ENDBRANCH   3   4
BRANCH   3   6
ATOM      6  C   UNK A   1       9.270  12.883  18.775  0.00  0.00    +0.000 C 
BRANCH   6   7
ATOM      7  N   UNK A   1       9.428  12.493  20.196  0.00  0.00    +0.000 N 
ATOM      8  C   UNK A   0       8.685  13.035  21.220  0.00  0.00    +0.000 C 
ATOM      9  C   UNK A   0       9.000  12.465  22.581  0.00  0.00    +0.000 C 
ATOM     10  O   UNK A   0       7.845  13.918  21.074  0.00  0.00    +0.000 OA
ATOM     11  H   UNK A   1       9.895  11.610  20.359  0.00  0.00    +0.000 HD
ENDBRANCH   6   7
BRANCH   6  12
ATOM     12  C   UNK A   1      10.249  14.025  18.417  0.00  0.00    +0.000 C 
BRANCH  12  13
ATOM     13  O   UNK A   1      10.228  14.339  17.024  0.00  0.00    +0.000 OA
ATOM     14  H   UNK A   1       9.901  13.558  16.546  0.00  0.00    +0.000 HD
ENDBRANCH  12  13
ENDBRANCH   6  12
ENDBRANCH   3   6
ENDBRANCH   2   3
BRANCH   1  15
ATOM     15  C   UNK A   1       8.092   8.016  18.431  0.00  0.00    +0.000 C 
BRANCH  15  16
ATOM     16  C   UNK A   1       7.647   7.043  17.345  0.00  0.00    +0.000 C 
BRANCH  16  17
ATOM     17  C   UNK A   1       7.391   5.658  17.927  0.00  0.00    +0.000 C 
BRANCH  17  18
ATOM     18  C   UNK A   1       6.033   5.609  18.617  0.00  0.00    +0.000 C 
BRANCH  18  19
ATOM     19  C   UNK A   1       4.929   5.335  17.604  0.00  0.00    +0.000 C 
BRANCH  19  20
ATOM     20  C   UNK A   1       4.186   6.618  17.258  0.00  0.00    +0.000 C 
BRANCH  20  21
ATOM     21  C   UNK A   1       3.123   6.913  18.309  0.00  0.00    +0.000 C 
BRANCH  21  22
ATOM     22  C   UNK A   1       2.320   5.660  18.631  0.00  0.00    +0.000 C 
BRANCH  22  23
ATOM     23  C   UNK A   1       2.180   5.490  20.138  0.00  0.00    +0.000 C 
BRANCH  23  24
ATOM     24  C   UNK A   1       1.062   4.510  20.472  0.00  0.00    +0.000 C 
BRANCH  24  25
ATOM     25  C   UNK A   1       1.638   3.193  20.984  0.00  0.00    +0.000 C 
BRANCH  25  27
ATOM     26  C   UNK A   1       0.773   2.308  18.802  0.00  0.00    +0.000 C 
ATOM     27  C   UNK A   1       1.879   2.216  19.839  0.00  0.00    +0.000 C 
ENDBRANCH  25  27
ENDBRANCH  24  25
ENDBRANCH  23  24
ENDBRANCH  22  23
ENDBRANCH  21  22
ENDBRANCH  20  21
ENDBRANCH  19  20
ENDBRANCH  18  19
ENDBRANCH  17  18
ENDBRANCH  16  17
ENDBRANCH  15  16
ENDBRANCH   1  15
TORSDOF 18
ENDMDL
MODEL 7
REMARK VINA RESULT:      -5.7      5.674      7.490
REMARK  Name = 
REMARK  20 active torsions:
REMARK  status: ('A' for Active; 'I' for Inactive)
REMARK    1  A    between atoms: C_1  and  C_2
REMARK    2  A    between atoms: C_2  and  C_3
REMARK    3  A    between atoms: C_3  and  C_4
REMARK    4  A    between atoms: C_4  and  C_5
REMARK    5  A    between atoms: C_5  and  C_6
REMARK    6  A    between atoms: C_6  and  C_7
REMARK    7  A    between atoms: C_7  and  C_8
REMARK    8  A    between atoms: C_8  and  C_9
REMARK    9  A    between atoms: C_9  and  C_10
REMARK   10  A    between atoms: C_10  and  C_11
REMARK   11  A    between atoms: C_11  and  C_12
REMARK   12  A    between atoms: C_12  and  C_13
REMARK   13  A    between atoms: C_13  and  C_14
REMARK   14  A    between atoms: C_15  and  C_16
REMARK   15  A    between atoms: C_16  and  O_17
REMARK   16  A    between atoms: C_16  and  C_18
REMARK   17  A    between atoms: C_18  and  C_19
REMARK   18  A    between atoms: C_18  and  N_21
REMARK   19  A    between atoms: C_19  and  O_20
REMARK   20  A    between atoms: C_22  and  C_23
REMARK                            x       y       z     vdW  Elec       q    Type
REMARK                         _______ _______ _______ _____ _____    ______ ____
ROOT
ATOM      1  C   UNK A   1       3.102   2.696  18.269  0.00  0.00    +0.000 C 
ATOM      2  C   UNK A   1       3.884   3.777  18.129  0.00  0.00    +0.000 C 
ENDROOT
BRANCH   2   3
ATOM      3  C   UNK A   1       5.343   3.687  17.779  0.00  0.00    +0.000 C 
BRANCH   3   4
ATOM      4  O   UNK A   1       6.085   3.898  18.989  0.00  0.00    +0.000 OA
ATOM      5  H   UNK A   1       5.490   3.750  19.749  0.00  0.00    +0.000 HD
ENDBRANCH   3   4
BRANCH   3   6
ATOM      6  C   UNK A   1       5.809   4.712  16.711  0.00  0.00    +0.000 C 
BRANCH   6   7
ATOM      7  N   UNK A   1       5.686   4.127  15.355  0.00  0.00    +0.000 N 
ATOM      8  C   UNK A   0       6.539   4.428  14.318  0.00  0.00    +0.000 C 
ATOM      9  C   UNK A   0       6.236   3.693  13.035  0.00  0.00    +0.000 C 
ATOM     10  O   UNK A   0       7.462   5.234  14.391  0.00  0.00    +0.000 OA
ATOM     11  H   UNK A   1       5.133   3.282  15.289  0.00  0.00    +0.000 HD
ENDBRANCH   6   7
BRANCH   6  12
ATOM     12  C   UNK A   1       5.043   6.053  16.792  0.00  0.00    +0.000 C 
BRANCH  12  13
ATOM     13  O   UNK A   1       5.780   7.133  16.217  0.00  0.00    +0.000 OA
ATOM     14  H   UNK A   1       6.727   6.955  16.354  0.00  0.00    +0.000 HD
ENDBRANCH  12  13
ENDBRANCH   6  12
ENDBRANCH   3   6
ENDBRANCH   2   3
BRANCH   1  15
ATOM     15  C   UNK A   1       1.664   2.740  18.698  0.00  0.00    +0.000 C 
BRANCH  15  16
ATOM     16  C   UNK A   1       1.541   3.252  20.129  0.00  0.00    +0.000 C 
BRANCH  16  17
ATOM     17  C   UNK A   1       0.886   4.628  20.159  0.00  0.00    +0.000 C 
BRANCH  17  18
ATOM     18  C   UNK A   1       1.846   5.666  20.727  0.00  0.00    +0.000 C 
BRANCH  18  19
ATOM     19  C   UNK A   1       2.304   6.624  19.636  0.00  0.00    +0.000 C 
BRANCH  19  20
ATOM     20  C   UNK A   1       1.743   8.020  19.875  0.00  0.00    +0.000 C 
BRANCH  20  21
ATOM     21  C   UNK A   1       1.355   8.189  21.339  0.00  0.00    +0.000 C 
BRANCH  21  22
ATOM     22  C   UNK A   1       0.195   9.165  21.480  0.00  0.00    +0.000 C 
BRANCH  22  23
ATOM     23  C   UNK A   1      -0.262   9.649  20.109  0.00  0.00    +0.000 C 
BRANCH  23  24
ATOM     24  C   UNK A   1      -0.326  11.172  20.065  0.00  0.00    +0.000 C 
BRANCH  24  25
ATOM     25  C   UNK A   1       1.078  11.768  20.063  0.00  0.00    +0.000 C 
BRANCH  25  27
ATOM     26  C   UNK A   1       2.325  12.998  18.268  0.00  0.00    +0.000 C 
ATOM     27  C   UNK A   1       1.716  11.670  18.682  0.00  0.00    +0.000 C 
ENDBRANCH  25  27
ENDBRANCH  24  25
ENDBRANCH  23  24
ENDBRANCH  22  23
ENDBRANCH  21  22
ENDBRANCH  20  21
ENDBRANCH  19  20
ENDBRANCH  18  19
ENDBRANCH  17  18
ENDBRANCH  16  17
ENDBRANCH  15  16
ENDBRANCH   1  15
TORSDOF 18
ENDMDL
MODEL 8
REMARK VINA RESULT:      -5.7      5.469      8.053
REMARK  Name = 
REMARK  20 active torsions:
REMARK  status: ('A' for Active; 'I' for Inactive)
REMARK    1  A    between atoms: C_1  and  C_2
REMARK    2  A    between atoms: C_2  and  C_3
REMARK    3  A    between atoms: C_3  and  C_4
REMARK    4  A    between atoms: C_4  and  C_5
REMARK    5  A    between atoms: C_5  and  C_6
REMARK    6  A    between atoms: C_6  and  C_7
REMARK    7  A    between atoms: C_7  and  C_8
REMARK    8  A    between atoms: C_8  and  C_9
REMARK    9  A    between atoms: C_9  and  C_10
REMARK   10  A    between atoms: C_10  and  C_11
REMARK   11  A    between atoms: C_11  and  C_12
REMARK   12  A    between atoms: C_12  and  C_13
REMARK   13  A    between atoms: C_13  and  C_14
REMARK   14  A    between atoms: C_15  and  C_16
REMARK   15  A    between atoms: C_16  and  O_17
REMARK   16  A    between atoms: C_16  and  C_18
REMARK   17  A    between atoms: C_18  and  C_19
REMARK   18  A    between atoms: C_18  and  N_21
REMARK   19  A    between atoms: C_19  and  O_20
REMARK   20  A    between atoms: C_22  and  C_23
REMARK                            x       y       z     vdW  Elec       q    Type
REMARK                         _______ _______ _______ _____ _____    ______ ____
ROOT
ATOM      1  C   UNK A   1       3.893   3.988  17.867  0.00  0.00    +0.000 C 
ATOM      2  C   UNK A   1       4.120   5.176  17.286  0.00  0.00    +0.000 C 
ENDROOT
BRANCH   2   3
ATOM      3  C   UNK A   1       5.258   6.074  17.684  0.00  0.00    +0.000 C 
BRANCH   3   4
ATOM      4  O   UNK A   1       5.172   7.256  16.873  0.00  0.00    +0.000 OA
ATOM      5  H   UNK A   1       4.859   7.993  17.431  0.00  0.00    +0.000 HD
ENDBRANCH   3   4
BRANCH   3   6
ATOM      6  C   UNK A   1       6.663   5.441  17.513  0.00  0.00    +0.000 C 
BRANCH   6   7
ATOM      7  N   UNK A   1       7.122   5.588  16.111  0.00  0.00    +0.000 N 
ATOM      8  C   UNK A   0       6.925   4.631  15.143  0.00  0.00    +0.000 C 
ATOM      9  C   UNK A   0       7.455   5.011  13.781  0.00  0.00    +0.000 C 
ATOM     10  O   UNK A   0       6.386   3.546  15.340  0.00  0.00    +0.000 OA
ATOM     11  H   UNK A   1       7.331   6.534  15.815  0.00  0.00    +0.000 HD
ENDBRANCH   6   7
BRANCH   6  12
ATOM     12  C   UNK A   1       7.709   6.029  18.488  0.00  0.00    +0.000 C 
BRANCH  12  13
ATOM     13  O   UNK A   1       7.702   5.367  19.754  0.00  0.00    +0.000 OA
ATOM     14  H   UNK A   1       6.776   5.189  19.993  0.00  0.00    +0.000 HD
ENDBRANCH  12  13
ENDBRANCH   6  12
ENDBRANCH   3   6
ENDBRANCH   2   3
BRANCH   1  15
ATOM     15  C   UNK A   1       2.722   3.103  17.554  0.00  0.00    +0.000 C 
BRANCH  15  16
ATOM     16  C   UNK A   1       1.435   3.681  18.133  0.00  0.00    +0.000 C 
BRANCH  16  17
ATOM     17  C   UNK A   1       1.155   3.106  19.516  0.00  0.00    +0.000 C 
BRANCH  17  18
ATOM     18  C   UNK A   1       1.718   4.017  20.600  0.00  0.00    +0.000 C 
BRANCH  18  19
ATOM     19  C   UNK A   1       1.186   5.435  20.435  0.00  0.00    +0.000 C 
BRANCH  19  20
ATOM     20  C   UNK A   1       2.332   6.433  20.350  0.00  0.00    +0.000 C 
BRANCH  20  21
ATOM     21  C   UNK A   1       2.197   7.288  19.096  0.00  0.00    +0.000 C 
BRANCH  21  22
ATOM     22  C   UNK A   1       1.710   8.687  19.448  0.00  0.00    +0.000 C 
BRANCH  22  23
ATOM     23  C   UNK A   1       1.511   9.514  18.184  0.00  0.00    +0.000 C 
BRANCH  23  24
ATOM     24  C   UNK A   1       0.483  10.616  18.414  0.00  0.00    +0.000 C 
BRANCH  24  25
ATOM     25  C   UNK A   1      -0.753  10.060  19.113  0.00  0.00    +0.000 C 
BRANCH  25  27
ATOM     26  C   UNK A   1      -2.069  10.021  16.978  0.00  0.00    +0.000 C 
ATOM     27  C   UNK A   1      -2.031  10.512  18.415  0.00  0.00    +0.000 C 
ENDBRANCH  25  27
ENDBRANCH  24  25
ENDBRANCH  23  24
ENDBRANCH  22  23
ENDBRANCH  21  22
ENDBRANCH  20  21
ENDBRANCH  19  20
ENDBRANCH  18  19
ENDBRANCH  17  18
ENDBRANCH  16  17
ENDBRANCH  15  16
ENDBRANCH   1  15
TORSDOF 18
ENDMDL
MODEL 9
REMARK VINA RESULT:      -5.7      6.337     10.044
REMARK  Name = 
REMARK  20 active torsions:
REMARK  status: ('A' for Active; 'I' for Inactive)
REMARK    1  A    between atoms: C_1  and  C_2
REMARK    2  A    between atoms: C_2  and  C_3
REMARK    3  A    between atoms: C_3  and  C_4
REMARK    4  A    between atoms: C_4  and  C_5
REMARK    5  A    between atoms: C_5  and  C_6
REMARK    6  A    between atoms: C_6  and  C_7
REMARK    7  A    between atoms: C_7  and  C_8
REMARK    8  A    between atoms: C_8  and  C_9
REMARK    9  A    between atoms: C_9  and  C_10
REMARK   10  A    between atoms: C_10  and  C_11
REMARK   11  A    between atoms: C_11  and  C_12
REMARK   12  A    between atoms: C_12  and  C_13
REMARK   13  A    between atoms: C_13  and  C_14
REMARK   14  A    between atoms: C_15  and  C_16
REMARK   15  A    between atoms: C_16  and  O_17
REMARK   16  A    between atoms: C_16  and  C_18
REMARK   17  A    between atoms: C_18  and  C_19
REMARK   18  A    between atoms: C_18  and  N_21
REMARK   19  A    between atoms: C_19  and  O_20
REMARK   20  A    between atoms: C_22  and  C_23
REMARK                            x       y       z     vdW  Elec       q    Type
REMARK                         _______ _______ _______ _____ _____    ______ ____
ROOT
ATOM      1  C   UNK A   1       1.928   7.432  19.746  0.00  0.00    +0.000 C 
ATOM      2  C   UNK A   1       2.117   8.107  18.602  0.00  0.00    +0.000 C 
ENDROOT
BRANCH   2   3
ATOM      3  C   UNK A   1       1.329   9.334  18.240  0.00  0.00    +0.000 C 
BRANCH   3   4
ATOM      4  O   UNK A   1       2.102  10.070  17.279  0.00  0.00    +0.000 OA
ATOM      5  H   UNK A   1       1.575  10.832  16.974  0.00  0.00    +0.000 HD
ENDBRANCH   3   4
BRANCH   3   6
ATOM      6  C   UNK A   1       0.996  10.259  19.440  0.00  0.00    +0.000 C 
BRANCH   6   7
ATOM      7  N   UNK A   1       1.177  11.679  19.056  0.00  0.00    +0.000 N 
ATOM      8  C   UNK A   0       1.600  12.654  19.930  0.00  0.00    +0.000 C 
ATOM      9  C   UNK A   0       1.737  14.023  19.309  0.00  0.00    +0.000 C 
ATOM     10  O   UNK A   0       1.836  12.464  21.119  0.00  0.00    +0.000 OA
ATOM     11  H   UNK A   1       1.258  11.858  18.063  0.00  0.00    +0.000 HD
ENDBRANCH   6   7
BRANCH   6  12
ATOM     12  C   UNK A   1      -0.427  10.028  19.999  0.00  0.00    +0.000 C 
BRANCH  12  13
ATOM     13  O   UNK A   1      -0.433   9.877  21.419  0.00  0.00    +0.000 OA
ATOM     14  H   UNK A   1      -1.331  10.074  21.736  0.00  0.00    +0.000 HD
ENDBRANCH  12  13
ENDBRANCH   6  12
ENDBRANCH   3   6
ENDBRANCH   2   3
BRANCH   1  15
ATOM     15  C   UNK A   1       2.636   6.158  20.105  0.00  0.00    +0.000 C 
BRANCH  15  16
ATOM     16  C   UNK A   1       1.684   5.183  20.789  0.00  0.00    +0.000 C 
BRANCH  16  17
ATOM     17  C   UNK A   1       1.925   3.758  20.303  0.00  0.00    +0.000 C 
BRANCH  17  18
ATOM     18  C   UNK A   1       1.012   3.429  19.129  0.00  0.00    +0.000 C 
BRANCH  18  19
ATOM     19  C   UNK A   1       1.670   3.825  17.814  0.00  0.00    +0.000 C 
BRANCH  19  20
ATOM     20  C   UNK A   1       2.797   2.863  17.465  0.00  0.00    +0.000 C 
BRANCH  20  21
ATOM     21  C   UNK A   1       4.143   3.570  17.554  0.00  0.00    +0.000 C 
BRANCH  21  22
ATOM     22  C   UNK A   1       4.018   5.024  17.116  0.00  0.00    +0.000 C 
BRANCH  22  23
ATOM     23  C   UNK A   1       5.259   5.809  17.521  0.00  0.00    +0.000 C 
BRANCH  23  24
ATOM     24  C   UNK A   1       6.407   5.546  16.553  0.00  0.00    +0.000 C 
BRANCH  24  25
ATOM     25  C   UNK A   1       5.908   5.561  15.112  0.00  0.00    +0.000 C 
BRANCH  25  27
ATOM     26  C   UNK A   1       5.836   3.682  13.453  0.00  0.00    +0.000 C 
ATOM     27  C   UNK A   1       6.733   4.626  14.234  0.00  0.00    +0.000 C 
ENDBRANCH  25  27
ENDBRANCH  24  25
ENDBRANCH  23  24
ENDBRANCH  22  23
ENDBRANCH  21  22
ENDBRANCH  20  21
ENDBRANCH  19  20
ENDBRANCH  18  19
ENDBRANCH  17  18
ENDBRANCH  16  17
ENDBRANCH  15  16
ENDBRANCH   1  15
TORSDOF 18
ENDMDL
