MODEL 1
REMARK VINA RESULT:      -7.0      0.000      0.000
REMARK  Name = 
REMARK  9 active torsions:
REMARK  status: ('A' for Active; 'I' for Inactive)
REMARK    1  A    between atoms: C_1  and  O_2
REMARK    2  A    between atoms: O_2  and  C_3
REMARK    3  A    between atoms: C_6  and  C_7
REMARK    4  A    between atoms: C_7  and  N_8
REMARK    5  A    between atoms: N_8  and  C_9
REMARK    6  A    between atoms: C_9  and  C_10
REMARK    7  A    between atoms: C_10  and  C_11
REMARK    8  A    between atoms: C_21  and  O_22
REMARK    9  A    between atoms: O_22  and  C_23
REMARK                            x       y       z     vdW  Elec       q    Type
REMARK                         _______ _______ _______ _____ _____    ______ ____
ROOT
ATOM      1  N   UNL     1       4.085   7.383  17.911  0.00  0.00    +0.000 NA
ATOM      2  H   UNL     1       4.235   6.863  18.780  0.00  0.00    +0.000 HD
ENDROOT
BRANCH   1   3
ATOM      3  C   UNL     1       2.632   7.601  17.760  0.00  0.00    +0.000 C 
BRANCH   3   7
ATOM      4  C   UNL     1       0.831   9.836  21.078  0.00  0.00    +0.000 A 
ATOM      5  C   UNL     1       1.311   8.527  21.279  0.00  0.00    +0.000 A 
ATOM      6  C   UNL     1       1.863   7.779  20.226  0.00  0.00    +0.000 A 
ATOM      7  C   UNL     1       1.915   8.295  18.919  0.00  0.00    +0.000 A 
ATOM      8  C   UNL     1       1.379   9.594  18.733  0.00  0.00    +0.000 A 
ATOM      9  C   UNL     1       0.820  10.340  19.775  0.00  0.00    +0.000 A 
BRANCH   4  11
ATOM     10  C   UNL     1      -0.438   9.878  23.093  0.00  0.00    +0.000 C 
ATOM     11  O   UNL     1       0.326  10.579  22.112  0.00  0.00    +0.000 OA
ENDBRANCH   4  11
BRANCH   9  12
ATOM     12  O   UNL     1       0.368  11.576  19.344  0.00  0.00    +0.000 OA
ATOM     13  C   UNL     1       1.266  12.683  19.305  0.00  0.00    +0.000 C 
ENDBRANCH   9  12
ENDBRANCH   3   7
ENDBRANCH   1   3
BRANCH   1  14
ATOM     14  C   UNL     1       4.636   6.583  16.773  0.00  0.00    +0.000 C 
BRANCH  14  15
ATOM     15  C   UNL     1       4.235   5.099  16.870  0.00  0.00    +0.000 C 
BRANCH  15  16
ATOM     16  C   UNL     1       4.160   4.432  18.232  0.00  0.00    +0.000 A 
ATOM     17  C   UNL     1       5.285   3.975  18.900  0.00  0.00    +0.000 A 
ATOM     18  N   UNL     1       4.876   2.932  19.682  0.00  0.00    +0.000 N 
ATOM     19  C   UNL     1       3.561   3.122  20.016  0.00  0.00    +0.000 A 
ATOM     20  C   UNL     1       2.809   2.516  21.034  0.00  0.00    +0.000 A 
ATOM     21  C   UNL     1       1.489   2.928  21.178  0.00  0.00    +0.000 A 
ATOM     22  C   UNL     1       0.929   3.818  20.268  0.00  0.00    +0.000 A 
ATOM     23  C   UNL     1       1.683   4.348  19.194  0.00  0.00    +0.000 A 
ATOM     24  C   UNL     1       3.054   4.045  19.088  0.00  0.00    +0.000 A 
ATOM     25  H   UNL     1       5.464   2.187  20.029  0.00  0.00    +0.000 HD
ENDBRANCH  15  16
ENDBRANCH  14  15
ENDBRANCH   1  14
TORSDOF 7
ENDMDL
MODEL 2
REMARK VINA RESULT:      -6.9      3.305      4.145
REMARK  Name = 
REMARK  9 active torsions:
REMARK  status: ('A' for Active; 'I' for Inactive)
REMARK    1  A    between atoms: C_1  and  O_2
REMARK    2  A    between atoms: O_2  and  C_3
REMARK    3  A    between atoms: C_6  and  C_7
REMARK    4  A    between atoms: C_7  and  N_8
REMARK    5  A    between atoms: N_8  and  C_9
REMARK    6  A    between atoms: C_9  and  C_10
REMARK    7  A    between atoms: C_10  and  C_11
REMARK    8  A    between atoms: C_21  and  O_22
REMARK    9  A    between atoms: O_22  and  C_23
REMARK                            x       y       z     vdW  Elec       q    Type
REMARK                         _______ _______ _______ _____ _____    ______ ____
ROOT
ATOM      1  N   UNL     1       1.647  10.038  17.867  0.00  0.00    +0.000 NA
ATOM      2  H   UNL     1       2.346  10.731  18.147  0.00  0.00    +0.000 HD
ENDROOT
BRANCH   1   3
ATOM      3  C   UNL     1       0.652   9.935  18.954  0.00  0.00    +0.000 C 
BRANCH   3   7
ATOM      4  C   UNL     1      -3.320  11.317  17.706  0.00  0.00    +0.000 A 
ATOM      5  C   UNL     1      -2.723  11.830  18.875  0.00  0.00    +0.000 A 
ATOM      6  C   UNL     1      -1.466  11.380  19.312  0.00  0.00    +0.000 A 
ATOM      7  C   UNL     1      -0.777  10.367  18.623  0.00  0.00    +0.000 A 
ATOM      8  C   UNL     1      -1.423   9.833  17.480  0.00  0.00    +0.000 A 
ATOM      9  C   UNL     1      -2.677  10.269  17.043  0.00  0.00    +0.000 A 
BRANCH   4  11
ATOM     10  C   UNL     1      -5.571  11.897  18.229  0.00  0.00    +0.000 C 
ATOM     11  O   UNL     1      -4.529  11.782  17.259  0.00  0.00    +0.000 OA
ENDBRANCH   4  11
BRANCH   9  12
ATOM     12  O   UNL     1      -3.095   9.597  15.907  0.00  0.00    +0.000 OA
ATOM     13  C   UNL     1      -3.000  10.234  14.634  0.00  0.00    +0.000 C 
ENDBRANCH   9  12
ENDBRANCH   3   7
ENDBRANCH   1   3
BRANCH   1  14
ATOM     14  C   UNL     1       2.337   8.730  17.635  0.00  0.00    +0.000 C 
BRANCH  14  15
ATOM     15  C   UNL     1       2.228   7.801  18.859  0.00  0.00    +0.000 C 
BRANCH  15  16
ATOM     16  C   UNL     1       2.619   6.339  18.727  0.00  0.00    +0.000 A 
ATOM     17  C   UNL     1       3.578   5.905  17.824  0.00  0.00    +0.000 A 
ATOM     18  N   UNL     1       3.248   4.620  17.497  0.00  0.00    +0.000 N 
ATOM     19  C   UNL     1       2.582   4.054  18.551  0.00  0.00    +0.000 A 
ATOM     20  C   UNL     1       2.334   2.698  18.816  0.00  0.00    +0.000 A 
ATOM     21  C   UNL     1       1.659   2.396  19.994  0.00  0.00    +0.000 A 
ATOM     22  C   UNL     1       1.163   3.417  20.799  0.00  0.00    +0.000 A 
ATOM     23  C   UNL     1       1.349   4.778  20.464  0.00  0.00    +0.000 A 
ATOM     24  C   UNL     1       2.128   5.120  19.342  0.00  0.00    +0.000 A 
ATOM     25  H   UNL     1       3.522   4.137  16.653  0.00  0.00    +0.000 HD
ENDBRANCH  15  16
ENDBRANCH  14  15
ENDBRANCH   1  14
TORSDOF 7
ENDMDL
MODEL 3
REMARK VINA RESULT:      -6.9      1.523      3.917
REMARK  Name = 
REMARK  9 active torsions:
REMARK  status: ('A' for Active; 'I' for Inactive)
REMARK    1  A    between atoms: C_1  and  O_2
REMARK    2  A    between atoms: O_2  and  C_3
REMARK    3  A    between atoms: C_6  and  C_7
REMARK    4  A    between atoms: C_7  and  N_8
REMARK    5  A    between atoms: N_8  and  C_9
REMARK    6  A    between atoms: C_9  and  C_10
REMARK    7  A    between atoms: C_10  and  C_11
REMARK    8  A    between atoms: C_21  and  O_22
REMARK    9  A    between atoms: O_22  and  C_23
REMARK                            x       y       z     vdW  Elec       q    Type
REMARK                         _______ _______ _______ _____ _____    ______ ____
ROOT
ATOM      1  N   UNL     1       1.006   4.554  20.345  0.00  0.00    +0.000 NA
ATOM      2  H   UNL     1       0.310   5.029  19.763  0.00  0.00    +0.000 HD
ENDROOT
BRANCH   1   3
ATOM      3  C   UNL     1       2.125   5.491  20.568  0.00  0.00    +0.000 C 
BRANCH   3   7
ATOM      4  C   UNL     1       1.282   9.509  19.023  0.00  0.00    +0.000 A 
ATOM      5  C   UNL     1       1.990   8.578  18.237  0.00  0.00    +0.000 A 
ATOM      6  C   UNL     1       2.300   7.297  18.721  0.00  0.00    +0.000 A 
ATOM      7  C   UNL     1       1.953   6.911  20.027  0.00  0.00    +0.000 A 
ATOM      8  C   UNL     1       1.286   7.883  20.815  0.00  0.00    +0.000 A 
ATOM      9  C   UNL     1       0.983   9.164  20.343  0.00  0.00    +0.000 A 
BRANCH   4  11
ATOM     10  C   UNL     1       1.939  11.768  18.648  0.00  0.00    +0.000 C 
ATOM     11  O   UNL     1       0.948  10.746  18.537  0.00  0.00    +0.000 OA
ENDBRANCH   4  11
BRANCH   9  12
ATOM     12  O   UNL     1       0.330   9.927  21.295  0.00  0.00    +0.000 OA
ATOM     13  C   UNL     1      -0.248   9.293  22.435  0.00  0.00    +0.000 C 
ENDBRANCH   9  12
ENDBRANCH   3   7
ENDBRANCH   1   3
BRANCH   1  14
ATOM     14  C   UNL     1       1.462   3.319  19.633  0.00  0.00    +0.000 C 
BRANCH  14  15
ATOM     15  C   UNL     1       2.159   3.652  18.300  0.00  0.00    +0.000 C 
BRANCH  15  16
ATOM     16  C   UNL     1       3.675   3.709  18.242  0.00  0.00    +0.000 A 
ATOM     17  C   UNL     1       4.481   2.904  19.033  0.00  0.00    +0.000 A 
ATOM     18  N   UNL     1       5.644   3.594  19.229  0.00  0.00    +0.000 N 
ATOM     19  C   UNL     1       5.853   4.419  18.156  0.00  0.00    +0.000 A 
ATOM     20  C   UNL     1       7.032   5.064  17.751  0.00  0.00    +0.000 A 
ATOM     21  C   UNL     1       6.973   5.821  16.587  0.00  0.00    +0.000 A 
ATOM     22  C   UNL     1       5.759   6.008  15.933  0.00  0.00    +0.000 A 
ATOM     23  C   UNL     1       4.565   5.420  16.412  0.00  0.00    +0.000 A 
ATOM     24  C   UNL     1       4.610   4.552  17.520  0.00  0.00    +0.000 A 
ATOM     25  H   UNL     1       6.289   3.459  19.995  0.00  0.00    +0.000 HD
ENDBRANCH  15  16
ENDBRANCH  14  15
ENDBRANCH   1  14
TORSDOF 7
ENDMDL
MODEL 4
REMARK VINA RESULT:      -6.9      2.828      5.102
REMARK  Name = 
REMARK  9 active torsions:
REMARK  status: ('A' for Active; 'I' for Inactive)
REMARK    1  A    between atoms: C_1  and  O_2
REMARK    2  A    between atoms: O_2  and  C_3
REMARK    3  A    between atoms: C_6  and  C_7
REMARK    4  A    between atoms: C_7  and  N_8
REMARK    5  A    between atoms: N_8  and  C_9
REMARK    6  A    between atoms: C_9  and  C_10
REMARK    7  A    between atoms: C_10  and  C_11
REMARK    8  A    between atoms: C_21  and  O_22
REMARK    9  A    between atoms: O_22  and  C_23
REMARK                            x       y       z     vdW  Elec       q    Type
REMARK                         _______ _______ _______ _____ _____    ______ ____
ROOT
ATOM      1  N   UNL     1       4.191   5.606  18.392  0.00  0.00    +0.000 NA
ATOM      2  H   UNL     1       4.893   5.081  18.919  0.00  0.00    +0.000 HD
ENDROOT
BRANCH   1   3
ATOM      3  C   UNL     1       3.099   5.960  19.321  0.00  0.00    +0.000 C 
BRANCH   3   7
ATOM      4  C   UNL     1       1.026   9.802  18.889  0.00  0.00    +0.000 A 
ATOM      5  C   UNL     1       1.861   9.323  17.860  0.00  0.00    +0.000 A 
ATOM      6  C   UNL     1       2.560   8.111  17.987  0.00  0.00    +0.000 A 
ATOM      7  C   UNL     1       2.487   7.353  19.168  0.00  0.00    +0.000 A 
ATOM      8  C   UNL     1       1.681   7.881  20.207  0.00  0.00    +0.000 A 
ATOM      9  C   UNL     1       0.990   9.091  20.091  0.00  0.00    +0.000 A 
BRANCH   4  11
ATOM     10  C   UNL     1       1.003  12.178  19.060  0.00  0.00    +0.000 C 
ATOM     11  O   UNL     1       0.316  10.965  18.750  0.00  0.00    +0.000 OA
ENDBRANCH   4  11
BRANCH   9  12
ATOM     12  O   UNL     1       0.274   9.392  21.237  0.00  0.00    +0.000 OA
ATOM     13  C   UNL     1       0.903   9.283  22.513  0.00  0.00    +0.000 C 
ENDBRANCH   9  12
ENDBRANCH   3   7
ENDBRANCH   1   3
BRANCH   1  14
ATOM     14  C   UNL     1       3.695   4.748  17.270  0.00  0.00    +0.000 C 
BRANCH  14  15
ATOM     15  C   UNL     1       4.734   3.688  16.858  0.00  0.00    +0.000 C 
BRANCH  15  16
ATOM     16  C   UNL     1       5.910   4.093  15.986  0.00  0.00    +0.000 A 
ATOM     17  C   UNL     1       7.048   4.694  16.504  0.00  0.00    +0.000 A 
ATOM     18  N   UNL     1       7.564   5.471  15.506  0.00  0.00    +0.000 N 
ATOM     19  C   UNL     1       7.222   4.921  14.298  0.00  0.00    +0.000 A 
ATOM     20  C   UNL     1       7.771   5.161  13.029  0.00  0.00    +0.000 A 
ATOM     21  C   UNL     1       7.253   4.428  11.966  0.00  0.00    +0.000 A 
ATOM     22  C   UNL     1       6.164   3.585  12.161  0.00  0.00    +0.000 A 
ATOM     23  C   UNL     1       5.569   3.428  13.435  0.00  0.00    +0.000 A 
ATOM     24  C   UNL     1       6.141   4.064  14.554  0.00  0.00    +0.000 A 
ATOM     25  H   UNL     1       8.170   6.270  15.632  0.00  0.00    +0.000 HD
ENDBRANCH  15  16
ENDBRANCH  14  15
ENDBRANCH   1  14
TORSDOF 7
ENDMDL
MODEL 5
REMARK VINA RESULT:      -6.8      3.631      6.456
REMARK  Name = 
REMARK  9 active torsions:
REMARK  status: ('A' for Active; 'I' for Inactive)
REMARK    1  A    between atoms: C_1  and  O_2
REMARK    2  A    between atoms: O_2  and  C_3
REMARK    3  A    between atoms: C_6  and  C_7
REMARK    4  A    between atoms: C_7  and  N_8
REMARK    5  A    between atoms: N_8  and  C_9
REMARK    6  A    between atoms: C_9  and  C_10
REMARK    7  A    between atoms: C_10  and  C_11
REMARK    8  A    between atoms: C_21  and  O_22
REMARK    9  A    between atoms: O_22  and  C_23
REMARK                            x       y       z     vdW  Elec       q    Type
REMARK                         _______ _______ _______ _____ _____    ______ ____
ROOT
ATOM      1  N   UNL     1       2.864   2.684  17.486  0.00  0.00    +0.000 NA
ATOM      2  H   UNL     1       2.797   2.348  16.522  0.00  0.00    +0.000 HD
ENDROOT
BRANCH   1   3
ATOM      3  C   UNL     1       4.289   2.664  17.874  0.00  0.00    +0.000 C 
BRANCH   3   7
ATOM      4  C   UNL     1       6.876   6.092  16.982  0.00  0.00    +0.000 A 
ATOM      5  C   UNL     1       6.420   5.868  18.295  0.00  0.00    +0.000 A 
ATOM      6  C   UNL     1       5.565   4.796  18.601  0.00  0.00    +0.000 A 
ATOM      7  C   UNL     1       5.097   3.932  17.596  0.00  0.00    +0.000 A 
ATOM      8  C   UNL     1       5.530   4.210  16.275  0.00  0.00    +0.000 A 
ATOM      9  C   UNL     1       6.373   5.281  15.962  0.00  0.00    +0.000 A 
BRANCH   4  11
ATOM     10  C   UNL     1       7.783   8.202  17.616  0.00  0.00    +0.000 C 
ATOM     11  O   UNL     1       7.738   7.117  16.690  0.00  0.00    +0.000 OA
ENDBRANCH   4  11
BRANCH   9  12
ATOM     12  O   UNL     1       6.654   5.342  14.608  0.00  0.00    +0.000 OA
ATOM     13  C   UNL     1       6.451   4.191  13.790  0.00  0.00    +0.000 C 
ENDBRANCH   9  12
ENDBRANCH   3   7
ENDBRANCH   1   3
BRANCH   1  14
ATOM     14  C   UNL     1       2.049   1.786  18.363  0.00  0.00    +0.000 C 
BRANCH  14  15
ATOM     15  C   UNL     1       1.291   2.579  19.446  0.00  0.00    +0.000 C 
BRANCH  15  16
ATOM     16  C   UNL     1       1.806   3.942  19.873  0.00  0.00    +0.000 A 
ATOM     17  C   UNL     1       2.201   4.213  21.174  0.00  0.00    +0.000 A 
ATOM     18  N   UNL     1       1.984   5.547  21.375  0.00  0.00    +0.000 N 
ATOM     19  C   UNL     1       2.092   6.197  20.175  0.00  0.00    +0.000 A 
ATOM     20  C   UNL     1       2.268   7.565  19.921  0.00  0.00    +0.000 A 
ATOM     21  C   UNL     1       2.387   7.953  18.591  0.00  0.00    +0.000 A 
ATOM     22  C   UNL     1       2.219   7.022  17.571  0.00  0.00    +0.000 A 
ATOM     23  C   UNL     1       1.952   5.661  17.851  0.00  0.00    +0.000 A 
ATOM     24  C   UNL     1       1.943   5.212  19.186  0.00  0.00    +0.000 A 
ATOM     25  H   UNL     1       1.851   5.995  22.271  0.00  0.00    +0.000 HD
ENDBRANCH  15  16
ENDBRANCH  14  15
ENDBRANCH   1  14
TORSDOF 7
ENDMDL
MODEL 6
REMARK VINA RESULT:      -6.8      6.032      6.831
REMARK  Name = 
REMARK  9 active torsions:
REMARK  status: ('A' for Active; 'I' for Inactive)
REMARK    1  A    between atoms: C_1  and  O_2
REMARK    2  A    between atoms: O_2  and  C_3
REMARK    3  A    between atoms: C_6  and  C_7
REMARK    4  A    between atoms: C_7  and  N_8
REMARK    5  A    between atoms: N_8  and  C_9
REMARK    6  A    between atoms: C_9  and  C_10
REMARK    7  A    between atoms: C_10  and  C_11
REMARK    8  A    between atoms: C_21  and  O_22
REMARK    9  A    between atoms: O_22  and  C_23
REMARK                            x       y       z     vdW  Elec       q    Type
REMARK                         _______ _______ _______ _____ _____    ______ ____
ROOT
ATOM      1  N   UNL     1       7.636   8.766  17.778  0.00  0.00    +0.000 NA
ATOM      2  H   UNL     1       7.830   9.321  16.940  0.00  0.00    +0.000 HD
ENDROOT
BRANCH   1   3
ATOM      3  C   UNL     1       8.796   8.892  18.683  0.00  0.00    +0.000 C 
BRANCH   3   7
ATOM      4  C   UNL     1      10.302  12.891  19.677  0.00  0.00    +0.000 A 
ATOM      5  C   UNL     1       9.933  11.995  20.699  0.00  0.00    +0.000 A 
ATOM      6  C   UNL     1       9.418  10.721  20.407  0.00  0.00    +0.000 A 
ATOM      7  C   UNL     1       9.211  10.310  19.079  0.00  0.00    +0.000 A 
ATOM      8  C   UNL     1       9.543  11.249  18.070  0.00  0.00    +0.000 A 
ATOM      9  C   UNL     1      10.046  12.522  18.354  0.00  0.00    +0.000 A 
BRANCH   4  11
ATOM     10  C   UNL     1      10.436  14.725  21.191  0.00  0.00    +0.000 C 
ATOM     11  O   UNL     1      10.838  14.119  19.962  0.00  0.00    +0.000 OA
ENDBRANCH   4  11
BRANCH   9  12
ATOM     12  O   UNL     1      10.293  13.252  17.204  0.00  0.00    +0.000 OA
ATOM     13  C   UNL     1      11.620  13.328  16.686  0.00  0.00    +0.000 C 
ENDBRANCH   9  12
ENDBRANCH   3   7
ENDBRANCH   1   3
BRANCH   1  14
ATOM     14  C   UNL     1       7.417   7.343  17.369  0.00  0.00    +0.000 C 
BRANCH  14  15
ATOM     15  C   UNL     1       5.920   6.981  17.340  0.00  0.00    +0.000 C 
BRANCH  15  16
ATOM     16  C   UNL     1       5.426   5.780  18.127  0.00  0.00    +0.000 A 
ATOM     17  C   UNL     1       6.227   5.105  19.036  0.00  0.00    +0.000 A 
ATOM     18  N   UNL     1       5.781   3.814  19.062  0.00  0.00    +0.000 N 
ATOM     19  C   UNL     1       4.447   3.802  18.750  0.00  0.00    +0.000 A 
ATOM     20  C   UNL     1       3.498   2.789  18.957  0.00  0.00    +0.000 A 
ATOM     21  C   UNL     1       2.189   3.060  18.574  0.00  0.00    +0.000 A 
ATOM     22  C   UNL     1       1.882   4.245  17.914  0.00  0.00    +0.000 A 
ATOM     23  C   UNL     1       2.875   5.214  17.636  0.00  0.00    +0.000 A 
ATOM     24  C   UNL     1       4.186   5.025  18.113  0.00  0.00    +0.000 A 
ATOM     25  H   UNL     1       6.320   3.009  19.348  0.00  0.00    +0.000 HD
ENDBRANCH  15  16
ENDBRANCH  14  15
ENDBRANCH   1  14
TORSDOF 7
ENDMDL
MODEL 7
REMARK VINA RESULT:      -6.8      3.329      4.183
REMARK  Name = 
REMARK  9 active torsions:
REMARK  status: ('A' for Active; 'I' for Inactive)
REMARK    1  A    between atoms: C_1  and  O_2
REMARK    2  A    between atoms: O_2  and  C_3
REMARK    3  A    between atoms: C_6  and  C_7
REMARK    4  A    between atoms: C_7  and  N_8
REMARK    5  A    between atoms: N_8  and  C_9
REMARK    6  A    between atoms: C_9  and  C_10
REMARK    7  A    between atoms: C_10  and  C_11
REMARK    8  A    between atoms: C_21  and  O_22
REMARK    9  A    between atoms: O_22  and  C_23
REMARK                            x       y       z     vdW  Elec       q    Type
REMARK                         _______ _______ _______ _____ _____    ______ ____
ROOT
ATOM      1  N   UNL     1       1.358   9.497  17.519  0.00  0.00    +0.000 NA
ATOM      2  H   UNL     1       1.569  10.237  16.844  0.00  0.00    +0.000 HD
ENDROOT
BRANCH   1   3
ATOM      3  C   UNL     1       0.731  10.128  18.699  0.00  0.00    +0.000 C 
BRANCH   3   7
ATOM      4  C   UNL     1      -3.387  11.465  17.999  0.00  0.00    +0.000 A 
ATOM      5  C   UNL     1      -2.657  11.955  19.100  0.00  0.00    +0.000 A 
ATOM      6  C   UNL     1      -1.348  11.518  19.363  0.00  0.00    +0.000 A 
ATOM      7  C   UNL     1      -0.735  10.541  18.562  0.00  0.00    +0.000 A 
ATOM      8  C   UNL     1      -1.509  10.027  17.491  0.00  0.00    +0.000 A 
ATOM      9  C   UNL     1      -2.815  10.450  17.228  0.00  0.00    +0.000 A 
BRANCH   4  11
ATOM     10  C   UNL     1      -5.736  11.093  18.143  0.00  0.00    +0.000 C 
ATOM     11  O   UNL     1      -4.651  11.918  17.721  0.00  0.00    +0.000 OA
ENDBRANCH   4  11
BRANCH   9  12
ATOM     12  O   UNL     1      -3.360   9.804  16.132  0.00  0.00    +0.000 OA
ATOM     13  C   UNL     1      -2.888  10.115  14.822  0.00  0.00    +0.000 C 
ENDBRANCH   9  12
ENDBRANCH   3   7
ENDBRANCH   1   3
BRANCH   1  14
ATOM     14  C   UNL     1       2.634   8.806  17.885  0.00  0.00    +0.000 C 
BRANCH  14  15
ATOM     15  C   UNL     1       2.549   7.286  17.649  0.00  0.00    +0.000 C 
BRANCH  15  16
ATOM     16  C   UNL     1       2.174   6.370  18.801  0.00  0.00    +0.000 A 
ATOM     17  C   UNL     1       2.054   6.825  20.105  0.00  0.00    +0.000 A 
ATOM     18  N   UNL     1       2.350   5.765  20.914  0.00  0.00    +0.000 N 
ATOM     19  C   UNL     1       2.028   4.606  20.259  0.00  0.00    +0.000 A 
ATOM     20  C   UNL     1       1.850   3.315  20.778  0.00  0.00    +0.000 A 
ATOM     21  C   UNL     1       1.484   2.316  19.883  0.00  0.00    +0.000 A 
ATOM     22  C   UNL     1       1.414   2.588  18.520  0.00  0.00    +0.000 A 
ATOM     23  C   UNL     1       1.687   3.879  18.010  0.00  0.00    +0.000 A 
ATOM     24  C   UNL     1       1.945   4.940  18.898  0.00  0.00    +0.000 A 
ATOM     25  H   UNL     1       2.673   5.824  21.870  0.00  0.00    +0.000 HD
ENDBRANCH  15  16
ENDBRANCH  14  15
ENDBRANCH   1  14
TORSDOF 7
ENDMDL
MODEL 8
REMARK VINA RESULT:      -6.7      5.467      6.378
REMARK  Name = 
REMARK  9 active torsions:
REMARK  status: ('A' for Active; 'I' for Inactive)
REMARK    1  A    between atoms: C_1  and  O_2
REMARK    2  A    between atoms: O_2  and  C_3
REMARK    3  A    between atoms: C_6  and  C_7
REMARK    4  A    between atoms: C_7  and  N_8
REMARK    5  A    between atoms: N_8  and  C_9
REMARK    6  A    between atoms: C_9  and  C_10
REMARK    7  A    between atoms: C_10  and  C_11
REMARK    8  A    between atoms: C_21  and  O_22
REMARK    9  A    between atoms: O_22  and  C_23
REMARK                            x       y       z     vdW  Elec       q    Type
REMARK                         _______ _______ _______ _____ _____    ______ ____
ROOT
ATOM      1  N   UNL     1       7.521   8.027  17.221  0.00  0.00    +0.000 NA
ATOM      2  H   UNL     1       8.079   8.226  16.386  0.00  0.00    +0.000 HD
ENDROOT
BRANCH   1   3
ATOM      3  C   UNL     1       8.329   8.393  18.402  0.00  0.00    +0.000 C 
BRANCH   3   7
ATOM      4  C   UNL     1       9.263  12.636  19.004  0.00  0.00    +0.000 A 
ATOM      5  C   UNL     1       8.782  12.183  17.760  0.00  0.00    +0.000 A 
ATOM      6  C   UNL     1       8.505  10.825  17.532  0.00  0.00    +0.000 A 
ATOM      7  C   UNL     1       8.743   9.860  18.526  0.00  0.00    +0.000 A 
ATOM      8  C   UNL     1       9.275  10.335  19.751  0.00  0.00    +0.000 A 
ATOM      9  C   UNL     1       9.561  11.684  19.982  0.00  0.00    +0.000 A 
BRANCH   4  11
ATOM     10  C   UNL     1      10.774  14.471  18.845  0.00  0.00    +0.000 C 
ATOM     11  O   UNL     1       9.498  13.966  19.238  0.00  0.00    +0.000 OA
ENDBRANCH   4  11
BRANCH   9  12
ATOM     12  O   UNL     1      10.070  11.898  21.251  0.00  0.00    +0.000 OA
ATOM     13  C   UNL     1       9.209  12.363  22.289  0.00  0.00    +0.000 C 
ENDBRANCH   9  12
ENDBRANCH   3   7
ENDBRANCH   1   3
BRANCH   1  14
ATOM     14  C   UNL     1       7.173   6.571  17.228  0.00  0.00    +0.000 C 
BRANCH  14  15
ATOM     15  C   UNL     1       5.650   6.347  17.278  0.00  0.00    +0.000 C 
BRANCH  15  16
ATOM     16  C   UNL     1       5.084   5.248  18.161  0.00  0.00    +0.000 A 
ATOM     17  C   UNL     1       5.835   4.621  19.143  0.00  0.00    +0.000 A 
ATOM     18  N   UNL     1       5.325   3.362  19.277  0.00  0.00    +0.000 N 
ATOM     19  C   UNL     1       3.998   3.386  18.940  0.00  0.00    +0.000 A 
ATOM     20  C   UNL     1       2.996   2.443  19.218  0.00  0.00    +0.000 A 
ATOM     21  C   UNL     1       1.708   2.741  18.787  0.00  0.00    +0.000 A 
ATOM     22  C   UNL     1       1.471   3.875  18.016  0.00  0.00    +0.000 A 
ATOM     23  C   UNL     1       2.516   4.765  17.672  0.00  0.00    +0.000 A 
ATOM     24  C   UNL     1       3.808   4.557  18.190  0.00  0.00    +0.000 A 
ATOM     25  H   UNL     1       5.818   2.560  19.644  0.00  0.00    +0.000 HD
ENDBRANCH  15  16
ENDBRANCH  14  15
ENDBRANCH   1  14
TORSDOF 7
ENDMDL
MODEL 9
REMARK VINA RESULT:      -6.6      6.572      7.478
REMARK  Name = 
REMARK  9 active torsions:
REMARK  status: ('A' for Active; 'I' for Inactive)
REMARK    1  A    between atoms: C_1  and  O_2
REMARK    2  A    between atoms: O_2  and  C_3
REMARK    3  A    between atoms: C_6  and  C_7
REMARK    4  A    between atoms: C_7  and  N_8
REMARK    5  A    between atoms: N_8  and  C_9
REMARK    6  A    between atoms: C_9  and  C_10
REMARK    7  A    between atoms: C_10  and  C_11
REMARK    8  A    between atoms: C_21  and  O_22
REMARK    9  A    between atoms: O_22  and  C_23
REMARK                            x       y       z     vdW  Elec       q    Type
REMARK                         _______ _______ _______ _____ _____    ______ ____
ROOT
ATOM      1  N   UNL     1       8.080   9.146  17.855  0.00  0.00    +0.000 NA
ATOM      2  H   UNL     1       8.635   9.555  17.098  0.00  0.00    +0.000 HD
ENDROOT
BRANCH   1   3
ATOM      3  C   UNL     1       8.861   9.268  19.103  0.00  0.00    +0.000 C 
BRANCH   3   7
ATOM      4  C   UNL     1      11.187  12.923  19.788  0.00  0.00    +0.000 A 
ATOM      5  C   UNL     1      10.316  12.437  20.783  0.00  0.00    +0.000 A 
ATOM      6  C   UNL     1       9.537  11.286  20.576  0.00  0.00    +0.000 A 
ATOM      7  C   UNL     1       9.565  10.603  19.348  0.00  0.00    +0.000 A 
ATOM      8  C   UNL     1      10.411  11.142  18.346  0.00  0.00    +0.000 A 
ATOM      9  C   UNL     1      11.182  12.291  18.542  0.00  0.00    +0.000 A 
BRANCH   4  11
ATOM     10  C   UNL     1      11.316  15.290  20.020  0.00  0.00    +0.000 C 
ATOM     11  O   UNL     1      11.974  14.024  20.004  0.00  0.00    +0.000 OA
ENDBRANCH   4  11
BRANCH   9  12
ATOM     12  O   UNL     1      11.924  12.617  17.420  0.00  0.00    +0.000 OA
ATOM     13  C   UNL     1      11.414  13.568  16.487  0.00  0.00    +0.000 C 
ENDBRANCH   9  12
ENDBRANCH   3   7
ENDBRANCH   1   3
BRANCH   1  14
ATOM     14  C   UNL     1       7.802   7.713  17.524  0.00  0.00    +0.000 C 
BRANCH  14  15
ATOM     15  C   UNL     1       6.293   7.442  17.381  0.00  0.00    +0.000 C 
BRANCH  15  16
ATOM     16  C   UNL     1       5.770   6.024  17.532  0.00  0.00    +0.000 A 
ATOM     17  C   UNL     1       6.606   4.918  17.527  0.00  0.00    +0.000 A 
ATOM     18  N   UNL     1       5.867   3.875  17.044  0.00  0.00    +0.000 N 
ATOM     19  C   UNL     1       4.549   4.092  17.347  0.00  0.00    +0.000 A 
ATOM     20  C   UNL     1       3.480   3.183  17.350  0.00  0.00    +0.000 A 
ATOM     21  C   UNL     1       2.236   3.669  17.739  0.00  0.00    +0.000 A 
ATOM     22  C   UNL     1       2.063   5.024  18.000  0.00  0.00    +0.000 A 
ATOM     23  C   UNL     1       3.138   5.938  17.902  0.00  0.00    +0.000 A 
ATOM     24  C   UNL     1       4.435   5.463  17.626  0.00  0.00    +0.000 A 
ATOM     25  H   UNL     1       6.236   3.040  16.612  0.00  0.00    +0.000 HD
ENDBRANCH  15  16
ENDBRANCH  14  15
ENDBRANCH   1  14
TORSDOF 7
ENDMDL
