MODEL 1
REMARK VINA RESULT:      -7.8      0.000      0.000
REMARK  Name = 
REMARK  10 active torsions:
REMARK  status: ('A' for Active; 'I' for Inactive)
REMARK    1  A    between atoms: C_1  and  C_2
REMARK    2  A    between atoms: C_2  and  C_3
REMARK    3  A    between atoms: C_2  and  C_4
REMARK    4  A    between atoms: C_2  and  O_5
REMARK    5  A    between atoms: O_5  and  C_6
REMARK    6  A    between atoms: N_8  and  C_9
REMARK    7  A    between atoms: N_12  and  C_13
REMARK    8  A    between atoms: C_13  and  C_14
REMARK    9  A    between atoms: C_13  and  C_20
REMARK   10  A    between atoms: C_25  and  O_26
REMARK                            x       y       z     vdW  Elec       q    Type
REMARK                         _______ _______ _______ _____ _____    ______ ____
ROOT
ATOM      1  C   UNL     1       2.983   6.775  18.572  0.00  0.00    +0.000 C 
ENDROOT
BRANCH   1   2
ATOM      2  C   UNL     1       4.230   6.228  17.841  0.00  0.00    +0.000 A 
ATOM      3  C   UNL     1       4.324   6.224  16.434  0.00  0.00    +0.000 A 
ATOM      4  C   UNL     1       5.294   5.434  15.849  0.00  0.00    +0.000 A 
ATOM      5  C   UNL     1       6.114   4.616  16.596  0.00  0.00    +0.000 A 
ATOM      6  C   UNL     1       6.102   4.633  17.969  0.00  0.00    +0.000 A 
ATOM      7  C   UNL     1       5.198   5.500  18.582  0.00  0.00    +0.000 A 
ATOM      8  O   UNL     1       6.935   3.854  15.823  0.00  0.00    +0.000 OA
ATOM      9  C   UNL     1       6.758   4.546  14.582  0.00  0.00    +0.000 C 
ATOM     10  F   UNL     1       7.826   5.368  14.417  0.00  0.00    +0.000 F 
ATOM     11  F   UNL     1       6.767   3.653  13.564  0.00  0.00    +0.000 F 
ATOM     12  O   UNL     1       5.557   5.332  14.516  0.00  0.00    +0.000 OA
BRANCH   7  13
ATOM     13  O   UNL     1       5.252   5.655  19.940  0.00  0.00    +0.000 OA
ATOM     14  H   UNL     1       4.837   4.869  20.341  0.00  0.00    +0.000 HD
ENDBRANCH   7  13
ENDBRANCH   1   2
BRANCH   1  15
ATOM     15  C   UNL     1       2.181   5.534  19.017  0.00  0.00    +0.000 A 
ATOM     16  C   UNL     1       1.772   4.567  18.088  0.00  0.00    +0.000 A 
ATOM     17  C   UNL     1       1.145   3.420  18.545  0.00  0.00    +0.000 A 
ATOM     18  N   UNL     1       0.879   3.178  19.845  0.00  0.00    +0.000 NA
ATOM     19  C   UNL     1       1.266   4.125  20.727  0.00  0.00    +0.000 A 
ATOM     20  C   UNL     1       1.914   5.298  20.371  0.00  0.00    +0.000 A 
ENDBRANCH   1  15
BRANCH   1  24
ATOM     21  C   UNL     1       0.889   9.628  18.718  0.00  0.00    +0.000 C 
ATOM     22  C   UNL     1       2.324  10.026  18.427  0.00  0.00    +0.000 C 
ATOM     23  C   UNL     1       2.798   8.975  17.442  0.00  0.00    +0.000 C 
ATOM     24  N   UNL     1       2.128   7.716  17.787  0.00  0.00    +0.000 NA
ATOM     25  C   UNL     1       0.901   8.101  18.551  0.00  0.00    +0.000 C 
BRANCH  21  28
ATOM     26  C   UNL     1      -1.127  10.997  18.398  0.00  0.00    +0.000 C 
ATOM     27  O   UNL     1      -1.291  11.138  19.599  0.00  0.00    +0.000 OA
ATOM     28  N   UNL     1      -0.076  10.298  17.857  0.00  0.00    +0.000 N 
ATOM     29  H   UNL     1      -0.124  10.112  16.862  0.00  0.00    +0.000 HD
BRANCH  26  30
ATOM     30  O   UNL     1      -1.905  11.522  17.420  0.00  0.00    +0.000 OA
BRANCH  30  32
ATOM     31  C   UNL     1      -3.271   9.479  17.728  0.00  0.00    +0.000 C 
ATOM     32  C   UNL     1      -2.989  10.720  16.868  0.00  0.00    +0.000 C 
ATOM     33  C   UNL     1      -2.726  10.352  15.402  0.00  0.00    +0.000 C 
ATOM     34  C   UNL     1      -4.242  11.614  16.915  0.00  0.00    +0.000 C 
ENDBRANCH  30  32
ENDBRANCH  26  30
ENDBRANCH  21  28
ENDBRANCH   1  24
TORSDOF 7
ENDMDL
MODEL 2
REMARK VINA RESULT:      -7.7      0.305      1.166
REMARK  Name = 
REMARK  10 active torsions:
REMARK  status: ('A' for Active; 'I' for Inactive)
REMARK    1  A    between atoms: C_1  and  C_2
REMARK    2  A    between atoms: C_2  and  C_3
REMARK    3  A    between atoms: C_2  and  C_4
REMARK    4  A    between atoms: C_2  and  O_5
REMARK    5  A    between atoms: O_5  and  C_6
REMARK    6  A    between atoms: N_8  and  C_9
REMARK    7  A    between atoms: N_12  and  C_13
REMARK    8  A    between atoms: C_13  and  C_14
REMARK    9  A    between atoms: C_13  and  C_20
REMARK   10  A    between atoms: C_25  and  O_26
REMARK                            x       y       z     vdW  Elec       q    Type
REMARK                         _______ _______ _______ _____ _____    ______ ____
ROOT
ATOM      1  C   UNL     1       3.248   6.930  18.413  0.00  0.00    +0.000 C 
ENDROOT
BRANCH   1   2
ATOM      2  C   UNL     1       4.465   6.363  17.648  0.00  0.00    +0.000 A 
ATOM      3  C   UNL     1       4.558   6.435  16.243  0.00  0.00    +0.000 A 
ATOM      4  C   UNL     1       5.486   5.631  15.611  0.00  0.00    +0.000 A 
ATOM      5  C   UNL     1       6.263   4.732  16.307  0.00  0.00    +0.000 A 
ATOM      6  C   UNL     1       6.253   4.671  17.678  0.00  0.00    +0.000 A 
ATOM      7  C   UNL     1       5.395   5.546  18.343  0.00  0.00    +0.000 A 
ATOM      8  O   UNL     1       7.045   3.975  15.489  0.00  0.00    +0.000 OA
ATOM      9  C   UNL     1       6.902   4.745  14.290  0.00  0.00    +0.000 C 
ATOM     10  F   UNL     1       8.011   5.520  14.169  0.00  0.00    +0.000 F 
ATOM     11  F   UNL     1       6.865   3.912  13.223  0.00  0.00    +0.000 F 
ATOM     12  O   UNL     1       5.743   5.593  14.273  0.00  0.00    +0.000 OA
BRANCH   7  13
ATOM     13  O   UNL     1       5.457   5.620  19.707  0.00  0.00    +0.000 OA
ATOM     14  H   UNL     1       5.556   4.712  20.046  0.00  0.00    +0.000 HD
ENDBRANCH   7  13
ENDBRANCH   1   2
BRANCH   1  15
ATOM     15  C   UNL     1       2.445   5.703  18.892  0.00  0.00    +0.000 A 
ATOM     16  C   UNL     1       2.076   5.561  20.238  0.00  0.00    +0.000 A 
ATOM     17  C   UNL     1       1.267   4.499  20.604  0.00  0.00    +0.000 A 
ATOM     18  N   UNL     1       0.821   3.563  19.740  0.00  0.00    +0.000 NA
ATOM     19  C   UNL     1       1.196   3.705  18.450  0.00  0.00    +0.000 A 
ATOM     20  C   UNL     1       1.988   4.742  17.982  0.00  0.00    +0.000 A 
ENDBRANCH   1  15
BRANCH   1  24
ATOM     21  C   UNL     1       0.830   9.508  18.644  0.00  0.00    +0.000 C 
ATOM     22  C   UNL     1       2.230  10.087  18.585  0.00  0.00    +0.000 C 
ATOM     23  C   UNL     1       2.931   9.232  17.546  0.00  0.00    +0.000 C 
ATOM     24  N   UNL     1       2.380   7.877  17.649  0.00  0.00    +0.000 NA
ATOM     25  C   UNL     1       1.039   8.026  18.294  0.00  0.00    +0.000 C 
BRANCH  21  28
ATOM     26  C   UNL     1      -1.172  10.884  18.269  0.00  0.00    +0.000 C 
ATOM     27  O   UNL     1      -1.373  11.019  19.465  0.00  0.00    +0.000 OA
ATOM     28  N   UNL     1      -0.107  10.186  17.757  0.00  0.00    +0.000 N 
ATOM     29  H   UNL     1      -0.124  10.006  16.761  0.00  0.00    +0.000 HD
BRANCH  26  30
ATOM     30  O   UNL     1      -1.918  11.417  17.271  0.00  0.00    +0.000 OA
BRANCH  30  32
ATOM     31  C   UNL     1      -4.356  11.642  16.897  0.00  0.00    +0.000 C 
ATOM     32  C   UNL     1      -3.125  10.725  16.840  0.00  0.00    +0.000 C 
ATOM     33  C   UNL     1      -3.342   9.428  17.630  0.00  0.00    +0.000 C 
ATOM     34  C   UNL     1      -2.893  10.348  15.365  0.00  0.00    +0.000 C 
ENDBRANCH  30  32
ENDBRANCH  26  30
ENDBRANCH  21  28
ENDBRANCH   1  24
TORSDOF 7
ENDMDL
MODEL 3
REMARK VINA RESULT:      -7.1      1.352      1.994
REMARK  Name = 
REMARK  10 active torsions:
REMARK  status: ('A' for Active; 'I' for Inactive)
REMARK    1  A    between atoms: C_1  and  C_2
REMARK    2  A    between atoms: C_2  and  C_3
REMARK    3  A    between atoms: C_2  and  C_4
REMARK    4  A    between atoms: C_2  and  O_5
REMARK    5  A    between atoms: O_5  and  C_6
REMARK    6  A    between atoms: N_8  and  C_9
REMARK    7  A    between atoms: N_12  and  C_13
REMARK    8  A    between atoms: C_13  and  C_14
REMARK    9  A    between atoms: C_13  and  C_20
REMARK   10  A    between atoms: C_25  and  O_26
REMARK                            x       y       z     vdW  Elec       q    Type
REMARK                         _______ _______ _______ _____ _____    ______ ____
ROOT
ATOM      1  C   UNL     1       3.459   5.870  19.191  0.00  0.00    +0.000 C 
ENDROOT
BRANCH   1   2
ATOM      2  C   UNL     1       4.557   5.603  18.137  0.00  0.00    +0.000 A 
ATOM      3  C   UNL     1       4.255   5.467  16.767  0.00  0.00    +0.000 A 
ATOM      4  C   UNL     1       5.211   4.908  15.942  0.00  0.00    +0.000 A 
ATOM      5  C   UNL     1       6.407   4.434  16.434  0.00  0.00    +0.000 A 
ATOM      6  C   UNL     1       6.772   4.601  17.746  0.00  0.00    +0.000 A 
ATOM      7  C   UNL     1       5.861   5.253  18.576  0.00  0.00    +0.000 A 
ATOM      8  O   UNL     1       7.168   3.841  15.472  0.00  0.00    +0.000 OA
ATOM      9  C   UNL     1       6.459   4.315  14.321  0.00  0.00    +0.000 C 
ATOM     10  F   UNL     1       7.151   5.373  13.823  0.00  0.00    +0.000 F 
ATOM     11  F   UNL     1       6.446   3.350  13.372  0.00  0.00    +0.000 F 
ATOM     12  O   UNL     1       5.112   4.733  14.594  0.00  0.00    +0.000 OA
BRANCH   7  13
ATOM     13  O   UNL     1       6.241   5.568  19.852  0.00  0.00    +0.000 OA
ATOM     14  H   UNL     1       5.447   5.521  20.415  0.00  0.00    +0.000 HD
ENDBRANCH   7  13
ENDBRANCH   1   2
BRANCH   1  15
ATOM     15  C   UNL     1       3.038   4.482  19.719  0.00  0.00    +0.000 A 
ATOM     16  C   UNL     1       2.731   4.287  21.073  0.00  0.00    +0.000 A 
ATOM     17  C   UNL     1       2.259   3.052  21.484  0.00  0.00    +0.000 A 
ATOM     18  N   UNL     1       2.090   2.001  20.655  0.00  0.00    +0.000 NA
ATOM     19  C   UNL     1       2.402   2.199  19.357  0.00  0.00    +0.000 A 
ATOM     20  C   UNL     1       2.867   3.402  18.845  0.00  0.00    +0.000 A 
ENDBRANCH   1  15
BRANCH   1  24
ATOM     21  C   UNL     1       1.743   8.964  19.347  0.00  0.00    +0.000 C 
ATOM     22  C   UNL     1       2.724   8.950  18.190  0.00  0.00    +0.000 C 
ATOM     23  C   UNL     1       2.571   7.558  17.606  0.00  0.00    +0.000 C 
ATOM     24  N   UNL     1       2.274   6.647  18.715  0.00  0.00    +0.000 NA
ATOM     25  C   UNL     1       1.709   7.499  19.807  0.00  0.00    +0.000 C 
BRANCH  21  28
ATOM     26  C   UNL     1      -0.339  10.144  19.906  0.00  0.00    +0.000 C 
ATOM     27  O   UNL     1       0.026  10.367  21.049  0.00  0.00    +0.000 OA
ATOM     28  N   UNL     1       0.433   9.488  18.981  0.00  0.00    +0.000 N 
ATOM     29  H   UNL     1      -0.025   9.221  18.118  0.00  0.00    +0.000 HD
BRANCH  26  30
ATOM     30  O   UNL     1      -1.518  10.528  19.357  0.00  0.00    +0.000 OA
BRANCH  30  32
ATOM     31  C   UNL     1      -0.321  12.563  18.610  0.00  0.00    +0.000 C 
ATOM     32  C   UNL     1      -1.676  11.904  18.906  0.00  0.00    +0.000 C 
ATOM     33  C   UNL     1      -2.509  12.728  19.897  0.00  0.00    +0.000 C 
ATOM     34  C   UNL     1      -2.457  11.828  17.581  0.00  0.00    +0.000 C 
ENDBRANCH  30  32
ENDBRANCH  26  30
ENDBRANCH  21  28
ENDBRANCH   1  24
TORSDOF 7
ENDMDL
MODEL 4
REMARK VINA RESULT:      -6.9      1.489      2.014
REMARK  Name = 
REMARK  10 active torsions:
REMARK  status: ('A' for Active; 'I' for Inactive)
REMARK    1  A    between atoms: C_1  and  C_2
REMARK    2  A    between atoms: C_2  and  C_3
REMARK    3  A    between atoms: C_2  and  C_4
REMARK    4  A    between atoms: C_2  and  O_5
REMARK    5  A    between atoms: O_5  and  C_6
REMARK    6  A    between atoms: N_8  and  C_9
REMARK    7  A    between atoms: N_12  and  C_13
REMARK    8  A    between atoms: C_13  and  C_14
REMARK    9  A    between atoms: C_13  and  C_20
REMARK   10  A    between atoms: C_25  and  O_26
REMARK                            x       y       z     vdW  Elec       q    Type
REMARK                         _______ _______ _______ _____ _____    ______ ____
ROOT
ATOM      1  C   UNL     1       3.280   5.882  19.000  0.00  0.00    +0.000 C 
ENDROOT
BRANCH   1   2
ATOM      2  C   UNL     1       4.422   5.608  17.995  0.00  0.00    +0.000 A 
ATOM      3  C   UNL     1       4.177   5.465  16.614  0.00  0.00    +0.000 A 
ATOM      4  C   UNL     1       5.166   4.901  15.833  0.00  0.00    +0.000 A 
ATOM      5  C   UNL     1       6.340   4.427  16.377  0.00  0.00    +0.000 A 
ATOM      6  C   UNL     1       6.649   4.600  17.702  0.00  0.00    +0.000 A 
ATOM      7  C   UNL     1       5.705   5.258  18.490  0.00  0.00    +0.000 A 
ATOM      8  O   UNL     1       7.139   3.828  15.451  0.00  0.00    +0.000 OA
ATOM      9  C   UNL     1       6.480   4.298  14.269  0.00  0.00    +0.000 C 
ATOM     10  F   UNL     1       7.194   5.351  13.795  0.00  0.00    +0.000 F 
ATOM     11  F   UNL     1       6.506   3.328  13.325  0.00  0.00    +0.000 F 
ATOM     12  O   UNL     1       5.124   4.719  14.483  0.00  0.00    +0.000 OA
BRANCH   7  13
ATOM     13  O   UNL     1       6.032   5.579  19.779  0.00  0.00    +0.000 OA
ATOM     14  H   UNL     1       6.892   6.036  19.758  0.00  0.00    +0.000 HD
ENDBRANCH   7  13
ENDBRANCH   1   2
BRANCH   1  15
ATOM     15  C   UNL     1       2.700   4.499  19.363  0.00  0.00    +0.000 A 
ATOM     16  C   UNL     1       2.966   3.908  20.607  0.00  0.00    +0.000 A 
ATOM     17  C   UNL     1       2.342   2.715  20.931  0.00  0.00    +0.000 A 
ATOM     18  N   UNL     1       1.495   2.064  20.106  0.00  0.00    +0.000 NA
ATOM     19  C   UNL     1       1.259   2.638  18.907  0.00  0.00    +0.000 A 
ATOM     20  C   UNL     1       1.823   3.837  18.496  0.00  0.00    +0.000 A 
ENDBRANCH   1  15
BRANCH   1  24
ATOM     21  C   UNL     1       1.952   9.158  19.219  0.00  0.00    +0.000 C 
ATOM     22  C   UNL     1       2.943   9.054  18.075  0.00  0.00    +0.000 C 
ATOM     23  C   UNL     1       2.631   7.707  17.451  0.00  0.00    +0.000 C 
ATOM     24  N   UNL     1       2.207   6.810  18.531  0.00  0.00    +0.000 NA
ATOM     25  C   UNL     1       1.733   7.696  19.638  0.00  0.00    +0.000 C 
BRANCH  21  28
ATOM     26  C   UNL     1       0.647  11.216  18.902  0.00  0.00    +0.000 C 
ATOM     27  O   UNL     1       1.589  11.929  19.207  0.00  0.00    +0.000 OA
ATOM     28  N   UNL     1       0.722   9.847  18.850  0.00  0.00    +0.000 N 
ATOM     29  H   UNL     1      -0.154   9.351  18.740  0.00  0.00    +0.000 HD
BRANCH  26  30
ATOM     30  O   UNL     1      -0.587  11.641  18.536  0.00  0.00    +0.000 OA
BRANCH  30  32
ATOM     31  C   UNL     1      -1.223  11.543  20.927  0.00  0.00    +0.000 C 
ATOM     32  C   UNL     1      -1.486  12.173  19.551  0.00  0.00    +0.000 C 
ATOM     33  C   UNL     1      -2.955  12.035  19.130  0.00  0.00    +0.000 C 
ATOM     34  C   UNL     1      -1.163  13.675  19.656  0.00  0.00    +0.000 C 
ENDBRANCH  30  32
ENDBRANCH  26  30
ENDBRANCH  21  28
ENDBRANCH   1  24
TORSDOF 7
ENDMDL
MODEL 5
REMARK VINA RESULT:      -6.8      1.531      2.003
REMARK  Name = 
REMARK  10 active torsions:
REMARK  status: ('A' for Active; 'I' for Inactive)
REMARK    1  A    between atoms: C_1  and  C_2
REMARK    2  A    between atoms: C_2  and  C_3
REMARK    3  A    between atoms: C_2  and  C_4
REMARK    4  A    between atoms: C_2  and  O_5
REMARK    5  A    between atoms: O_5  and  C_6
REMARK    6  A    between atoms: N_8  and  C_9
REMARK    7  A    between atoms: N_12  and  C_13
REMARK    8  A    between atoms: C_13  and  C_14
REMARK    9  A    between atoms: C_13  and  C_20
REMARK   10  A    between atoms: C_25  and  O_26
REMARK                            x       y       z     vdW  Elec       q    Type
REMARK                         _______ _______ _______ _____ _____    ______ ____
ROOT
ATOM      1  C   UNL     1       3.303   5.885  19.152  0.00  0.00    +0.000 C 
ENDROOT
BRANCH   1   2
ATOM      2  C   UNL     1       4.426   5.610  18.126  0.00  0.00    +0.000 A 
ATOM      3  C   UNL     1       4.158   5.476  16.749  0.00  0.00    +0.000 A 
ATOM      4  C   UNL     1       5.130   4.911  15.949  0.00  0.00    +0.000 A 
ATOM      5  C   UNL     1       6.310   4.428  16.470  0.00  0.00    +0.000 A 
ATOM      6  C   UNL     1       6.643   4.592  17.792  0.00  0.00    +0.000 A 
ATOM      7  C   UNL     1       5.716   5.251  18.599  0.00  0.00    +0.000 A 
ATOM      8  O   UNL     1       7.091   3.829  15.529  0.00  0.00    +0.000 OA
ATOM      9  C   UNL     1       6.415   4.308  14.360  0.00  0.00    +0.000 C 
ATOM     10  F   UNL     1       7.127   5.361  13.880  0.00  0.00    +0.000 F 
ATOM     11  F   UNL     1       6.419   3.343  13.411  0.00  0.00    +0.000 F 
ATOM     12  O   UNL     1       5.065   4.736  14.599  0.00  0.00    +0.000 OA
BRANCH   7  13
ATOM     13  O   UNL     1       6.066   5.564  19.883  0.00  0.00    +0.000 OA
ATOM     14  H   UNL     1       6.967   5.224  20.033  0.00  0.00    +0.000 HD
ENDBRANCH   7  13
ENDBRANCH   1   2
BRANCH   1  15
ATOM     15  C   UNL     1       2.757   4.500  19.557  0.00  0.00    +0.000 A 
ATOM     16  C   UNL     1       2.473   3.525  18.590  0.00  0.00    +0.000 A 
ATOM     17  C   UNL     1       2.084   2.262  19.004  0.00  0.00    +0.000 A 
ATOM     18  N   UNL     1       1.937   1.909  20.298  0.00  0.00    +0.000 NA
ATOM     19  C   UNL     1       2.200   2.863  21.217  0.00  0.00    +0.000 A 
ATOM     20  C   UNL     1       2.612   4.150  20.904  0.00  0.00    +0.000 A 
ENDBRANCH   1  15
BRANCH   1  24
ATOM     21  C   UNL     1       2.040   9.194  19.154  0.00  0.00    +0.000 C 
ATOM     22  C   UNL     1       2.921   8.955  17.943  0.00  0.00    +0.000 C 
ATOM     23  C   UNL     1       2.537   7.559  17.489  0.00  0.00    +0.000 C 
ATOM     24  N   UNL     1       2.202   6.784  18.688  0.00  0.00    +0.000 NA
ATOM     25  C   UNL     1       1.842   7.787  19.738  0.00  0.00    +0.000 C 
BRANCH  21  28
ATOM     26  C   UNL     1       0.689  11.234  18.921  0.00  0.00    +0.000 C 
ATOM     27  O   UNL     1       1.623  11.957  19.229  0.00  0.00    +0.000 OA
ATOM     28  N   UNL     1       0.790   9.868  18.829  0.00  0.00    +0.000 N 
ATOM     29  H   UNL     1      -0.078   9.359  18.721  0.00  0.00    +0.000 HD
BRANCH  26  30
ATOM     30  O   UNL     1      -0.560  11.644  18.591  0.00  0.00    +0.000 OA
BRANCH  30  32
ATOM     31  C   UNL     1      -1.161  13.769  19.710  0.00  0.00    +0.000 C 
ATOM     32  C   UNL     1      -1.400  12.256  19.611  0.00  0.00    +0.000 C 
ATOM     33  C   UNL     1      -1.233  11.560  20.969  0.00  0.00    +0.000 C 
ATOM     34  C   UNL     1      -2.853  12.043  19.146  0.00  0.00    +0.000 C 
ENDBRANCH  30  32
ENDBRANCH  26  30
ENDBRANCH  21  28
ENDBRANCH   1  24
TORSDOF 7
ENDMDL
MODEL 6
REMARK VINA RESULT:      -6.8      4.393      8.931
REMARK  Name = 
REMARK  10 active torsions:
REMARK  status: ('A' for Active; 'I' for Inactive)
REMARK    1  A    between atoms: C_1  and  C_2
REMARK    2  A    between atoms: C_2  and  C_3
REMARK    3  A    between atoms: C_2  and  C_4
REMARK    4  A    between atoms: C_2  and  O_5
REMARK    5  A    between atoms: O_5  and  C_6
REMARK    6  A    between atoms: N_8  and  C_9
REMARK    7  A    between atoms: N_12  and  C_13
REMARK    8  A    between atoms: C_13  and  C_14
REMARK    9  A    between atoms: C_13  and  C_20
REMARK   10  A    between atoms: C_25  and  O_26
REMARK                            x       y       z     vdW  Elec       q    Type
REMARK                         _______ _______ _______ _____ _____    ______ ____
ROOT
ATOM      1  C   UNL     1       0.784   9.632  19.584  0.00  0.00    +0.000 C 
ENDROOT
BRANCH   1   2
ATOM      2  C   UNL     1       0.683  11.102  19.117  0.00  0.00    +0.000 A 
ATOM      3  C   UNL     1       1.498  12.113  19.665  0.00  0.00    +0.000 A 
ATOM      4  C   UNL     1       1.135  13.428  19.453  0.00  0.00    +0.000 A 
ATOM      5  C   UNL     1      -0.022  13.763  18.783  0.00  0.00    +0.000 A 
ATOM      6  C   UNL     1      -0.813  12.818  18.179  0.00  0.00    +0.000 A 
ATOM      7  C   UNL     1      -0.409  11.489  18.296  0.00  0.00    +0.000 A 
ATOM      8  O   UNL     1      -0.242  15.107  18.763  0.00  0.00    +0.000 OA
ATOM      9  C   UNL     1       1.058  15.539  19.183  0.00  0.00    +0.000 C 
ATOM     10  F   UNL     1       1.741  15.916  18.071  0.00  0.00    +0.000 F 
ATOM     11  F   UNL     1       0.934  16.629  19.977  0.00  0.00    +0.000 F 
ATOM     12  O   UNL     1       1.816  14.532  19.870  0.00  0.00    +0.000 OA
BRANCH   7  13
ATOM     13  O   UNL     1      -1.084  10.531  17.591  0.00  0.00    +0.000 OA
ATOM     14  H   UNL     1      -1.529   9.951  18.236  0.00  0.00    +0.000 HD
ENDBRANCH   7  13
ENDBRANCH   1   2
BRANCH   1  15
ATOM     15  C   UNL     1       0.471   9.649  21.095  0.00  0.00    +0.000 A 
ATOM     16  C   UNL     1       1.375   9.117  22.025  0.00  0.00    +0.000 A 
ATOM     17  C   UNL     1       1.102   9.247  23.377  0.00  0.00    +0.000 A 
ATOM     18  N   UNL     1      -0.006   9.843  23.863  0.00  0.00    +0.000 NA
ATOM     19  C   UNL     1      -0.875  10.337  22.955  0.00  0.00    +0.000 A 
ATOM     20  C   UNL     1      -0.683  10.272  21.583  0.00  0.00    +0.000 A 
ENDBRANCH   1  15
BRANCH   1  24
ATOM     21  C   UNL     1       2.344   6.620  18.562  0.00  0.00    +0.000 C 
ATOM     22  C   UNL     1       2.091   7.527  17.372  0.00  0.00    +0.000 C 
ATOM     23  C   UNL     1       2.445   8.908  17.890  0.00  0.00    +0.000 C 
ATOM     24  N   UNL     1       2.086   8.950  19.311  0.00  0.00    +0.000 NA
ATOM     25  C   UNL     1       2.059   7.526  19.769  0.00  0.00    +0.000 C 
BRANCH  21  28
ATOM     26  C   UNL     1       3.936   4.856  17.934  0.00  0.00    +0.000 C 
ATOM     27  O   UNL     1       3.093   4.241  17.302  0.00  0.00    +0.000 OA
ATOM     28  N   UNL     1       3.683   6.046  18.569  0.00  0.00    +0.000 N 
ATOM     29  H   UNL     1       4.406   6.388  19.191  0.00  0.00    +0.000 HD
BRANCH  26  30
ATOM     30  O   UNL     1       5.236   4.503  18.082  0.00  0.00    +0.000 OA
BRANCH  30  32
ATOM     31  C   UNL     1       6.064   6.280  16.570  0.00  0.00    +0.000 C 
ATOM     32  C   UNL     1       6.183   4.817  17.021  0.00  0.00    +0.000 C 
ATOM     33  C   UNL     1       6.050   3.842  15.843  0.00  0.00    +0.000 C 
ATOM     34  C   UNL     1       7.583   4.630  17.634  0.00  0.00    +0.000 C 
ENDBRANCH  30  32
ENDBRANCH  26  30
ENDBRANCH  21  28
ENDBRANCH   1  24
TORSDOF 7
ENDMDL
MODEL 7
REMARK VINA RESULT:      -6.7      3.138      5.946
REMARK  Name = 
REMARK  10 active torsions:
REMARK  status: ('A' for Active; 'I' for Inactive)
REMARK    1  A    between atoms: C_1  and  C_2
REMARK    2  A    between atoms: C_2  and  C_3
REMARK    3  A    between atoms: C_2  and  C_4
REMARK    4  A    between atoms: C_2  and  O_5
REMARK    5  A    between atoms: O_5  and  C_6
REMARK    6  A    between atoms: N_8  and  C_9
REMARK    7  A    between atoms: N_12  and  C_13
REMARK    8  A    between atoms: C_13  and  C_14
REMARK    9  A    between atoms: C_13  and  C_20
REMARK   10  A    between atoms: C_25  and  O_26
REMARK                            x       y       z     vdW  Elec       q    Type
REMARK                         _______ _______ _______ _____ _____    ______ ____
ROOT
ATOM      1  C   UNL     1       0.575  10.744  18.497  0.00  0.00    +0.000 C 
ENDROOT
BRANCH   1   2
ATOM      2  C   UNL     1       1.472   9.526  18.815  0.00  0.00    +0.000 A 
ATOM      3  C   UNL     1       2.276   8.919  17.830  0.00  0.00    +0.000 A 
ATOM      4  C   UNL     1       2.782   7.660  18.088  0.00  0.00    +0.000 A 
ATOM      5  C   UNL     1       2.471   6.975  19.242  0.00  0.00    +0.000 A 
ATOM      6  C   UNL     1       1.746   7.548  20.256  0.00  0.00    +0.000 A 
ATOM      7  C   UNL     1       1.308   8.857  20.057  0.00  0.00    +0.000 A 
ATOM      8  O   UNL     1       2.996   5.719  19.260  0.00  0.00    +0.000 OA
ATOM      9  C   UNL     1       3.918   5.860  18.172  0.00  0.00    +0.000 C 
ATOM     10  F   UNL     1       5.147   6.081  18.705  0.00  0.00    +0.000 F 
ATOM     11  F   UNL     1       3.975   4.700  17.477  0.00  0.00    +0.000 F 
ATOM     12  O   UNL     1       3.604   6.938  17.276  0.00  0.00    +0.000 OA
BRANCH   7  13
ATOM     13  O   UNL     1       0.709   9.516  21.095  0.00  0.00    +0.000 OA
ATOM     14  H   UNL     1       0.747  10.470  20.897  0.00  0.00    +0.000 HD
ENDBRANCH   7  13
ENDBRANCH   1   2
BRANCH   1  15
ATOM     15  C   UNL     1       1.350  11.979  19.004  0.00  0.00    +0.000 A 
ATOM     16  C   UNL     1       1.252  12.396  20.339  0.00  0.00    +0.000 A 
ATOM     17  C   UNL     1       2.043  13.444  20.776  0.00  0.00    +0.000 A 
ATOM     18  N   UNL     1       2.903  14.116  19.981  0.00  0.00    +0.000 NA
ATOM     19  C   UNL     1       2.976  13.713  18.694  0.00  0.00    +0.000 A 
ATOM     20  C   UNL     1       2.238  12.664  18.166  0.00  0.00    +0.000 A 
ENDBRANCH   1  15
BRANCH   1  24
ATOM     21  C   UNL     1      -2.803  11.704  18.037  0.00  0.00    +0.000 C 
ATOM     22  C   UNL     1      -2.551  10.325  17.457  0.00  0.00    +0.000 C 
ATOM     23  C   UNL     1      -1.656   9.660  18.485  0.00  0.00    +0.000 C 
ATOM     24  N   UNL     1      -0.806  10.704  19.068  0.00  0.00    +0.000 NA
ATOM     25  C   UNL     1      -1.526  11.995  18.840  0.00  0.00    +0.000 C 
BRANCH  21  28
ATOM     26  C   UNL     1      -5.227  12.049  18.245  0.00  0.00    +0.000 C 
ATOM     27  O   UNL     1      -5.367  12.202  17.042  0.00  0.00    +0.000 OA
ATOM     28  N   UNL     1      -4.019  11.775  18.836  0.00  0.00    +0.000 N 
ATOM     29  H   UNL     1      -3.991  11.824  19.847  0.00  0.00    +0.000 HD
BRANCH  26  30
ATOM     30  O   UNL     1      -6.216  12.084  19.172  0.00  0.00    +0.000 OA
BRANCH  30  32
ATOM     31  C   UNL     1      -7.787  13.303  20.648  0.00  0.00    +0.000 C 
ATOM     32  C   UNL     1      -6.999  13.302  19.329  0.00  0.00    +0.000 C 
ATOM     33  C   UNL     1      -7.910  13.544  18.119  0.00  0.00    +0.000 C 
ATOM     34  C   UNL     1      -5.981  14.455  19.394  0.00  0.00    +0.000 C 
ENDBRANCH  30  32
ENDBRANCH  26  30
ENDBRANCH  21  28
ENDBRANCH   1  24
TORSDOF 7
ENDMDL
MODEL 8
REMARK VINA RESULT:      -6.7      1.542      1.957
REMARK  Name = 
REMARK  10 active torsions:
REMARK  status: ('A' for Active; 'I' for Inactive)
REMARK    1  A    between atoms: C_1  and  C_2
REMARK    2  A    between atoms: C_2  and  C_3
REMARK    3  A    between atoms: C_2  and  C_4
REMARK    4  A    between atoms: C_2  and  O_5
REMARK    5  A    between atoms: O_5  and  C_6
REMARK    6  A    between atoms: N_8  and  C_9
REMARK    7  A    between atoms: N_12  and  C_13
REMARK    8  A    between atoms: C_13  and  C_14
REMARK    9  A    between atoms: C_13  and  C_20
REMARK   10  A    between atoms: C_25  and  O_26
REMARK                            x       y       z     vdW  Elec       q    Type
REMARK                         _______ _______ _______ _____ _____    ______ ____
ROOT
ATOM      1  C   UNL     1       3.666   5.862  19.421  0.00  0.00    +0.000 C 
ENDROOT
BRANCH   1   2
ATOM      2  C   UNL     1       4.659   5.619  18.262  0.00  0.00    +0.000 A 
ATOM      3  C   UNL     1       4.218   5.344  16.952  0.00  0.00    +0.000 A 
ATOM      4  C   UNL     1       5.127   4.817  16.057  0.00  0.00    +0.000 A 
ATOM      5  C   UNL     1       6.415   4.501  16.431  0.00  0.00    +0.000 A 
ATOM      6  C   UNL     1       6.908   4.807  17.674  0.00  0.00    +0.000 A 
ATOM      7  C   UNL     1       6.034   5.433  18.563  0.00  0.00    +0.000 A 
ATOM      8  O   UNL     1       7.119   3.908  15.427  0.00  0.00    +0.000 OA
ATOM      9  C   UNL     1       6.238   4.218  14.341  0.00  0.00    +0.000 C 
ATOM     10  F   UNL     1       6.753   5.294  13.691  0.00  0.00    +0.000 F 
ATOM     11  F   UNL     1       6.218   3.182  13.469  0.00  0.00    +0.000 F 
ATOM     12  O   UNL     1       4.894   4.524  14.746  0.00  0.00    +0.000 OA
BRANCH   7  13
ATOM     13  O   UNL     1       6.522   5.885  19.758  0.00  0.00    +0.000 OA
ATOM     14  H   UNL     1       7.495   5.880  19.698  0.00  0.00    +0.000 HD
ENDBRANCH   7  13
ENDBRANCH   1   2
BRANCH   1  15
ATOM     15  C   UNL     1       3.441   4.484  20.078  0.00  0.00    +0.000 A 
ATOM     16  C   UNL     1       4.265   3.393  19.766  0.00  0.00    +0.000 A 
ATOM     17  C   UNL     1       4.093   2.204  20.455  0.00  0.00    +0.000 A 
ATOM     18  N   UNL     1       3.156   2.018  21.407  0.00  0.00    +0.000 NA
ATOM     19  C   UNL     1       2.360   3.073  21.686  0.00  0.00    +0.000 A 
ATOM     20  C   UNL     1       2.464   4.308  21.065  0.00  0.00    +0.000 A 
ENDBRANCH   1  15
BRANCH   1  24
ATOM     21  C   UNL     1       1.748   8.839  19.477  0.00  0.00    +0.000 C 
ATOM     22  C   UNL     1       2.551   8.740  18.194  0.00  0.00    +0.000 C 
ATOM     23  C   UNL     1       2.428   7.279  17.804  0.00  0.00    +0.000 C 
ATOM     24  N   UNL     1       2.367   6.498  19.044  0.00  0.00    +0.000 NA
ATOM     25  C   UNL     1       1.897   7.445  20.103  0.00  0.00    +0.000 C 
BRANCH  21  28
ATOM     26  C   UNL     1      -0.159  10.339  19.873  0.00  0.00    +0.000 C 
ATOM     27  O   UNL     1       0.497  11.077  20.591  0.00  0.00    +0.000 OA
ATOM     28  N   UNL     1       0.361   9.230  19.255  0.00  0.00    +0.000 N 
ATOM     29  H   UNL     1      -0.304   8.607  18.813  0.00  0.00    +0.000 HD
BRANCH  26  30
ATOM     30  O   UNL     1      -1.462  10.505  19.540  0.00  0.00    +0.000 OA
BRANCH  30  32
ATOM     31  C   UNL     1      -0.811  12.426  18.120  0.00  0.00    +0.000 C 
ATOM     32  C   UNL     1      -1.799  11.273  18.350  0.00  0.00    +0.000 C 
ATOM     33  C   UNL     1      -3.252  11.765  18.390  0.00  0.00    +0.000 C 
ATOM     34  C   UNL     1      -1.662  10.299  17.165  0.00  0.00    +0.000 C 
ENDBRANCH  30  32
ENDBRANCH  26  30
ENDBRANCH  21  28
ENDBRANCH   1  24
TORSDOF 7
ENDMDL
MODEL 9
REMARK VINA RESULT:      -6.7      3.726      6.184
REMARK  Name = 
REMARK  10 active torsions:
REMARK  status: ('A' for Active; 'I' for Inactive)
REMARK    1  A    between atoms: C_1  and  C_2
REMARK    2  A    between atoms: C_2  and  C_3
REMARK    3  A    between atoms: C_2  and  C_4
REMARK    4  A    between atoms: C_2  and  O_5
REMARK    5  A    between atoms: O_5  and  C_6
REMARK    6  A    between atoms: N_8  and  C_9
REMARK    7  A    between atoms: N_12  and  C_13
REMARK    8  A    between atoms: C_13  and  C_14
REMARK    9  A    between atoms: C_13  and  C_20
REMARK   10  A    between atoms: C_25  and  O_26
REMARK                            x       y       z     vdW  Elec       q    Type
REMARK                         _______ _______ _______ _____ _____    ______ ____
ROOT
ATOM      1  C   UNL     1       0.646  10.685  18.714  0.00  0.00    +0.000 C 
ENDROOT
BRANCH   1   2
ATOM      2  C   UNL     1       1.526   9.438  18.961  0.00  0.00    +0.000 A 
ATOM      3  C   UNL     1       2.324   8.879  17.942  0.00  0.00    +0.000 A 
ATOM      4  C   UNL     1       2.812   7.601  18.126  0.00  0.00    +0.000 A 
ATOM      5  C   UNL     1       2.490   6.852  19.237  0.00  0.00    +0.000 A 
ATOM      6  C   UNL     1       1.770   7.375  20.282  0.00  0.00    +0.000 A 
ATOM      7  C   UNL     1       1.350   8.699  20.160  0.00  0.00    +0.000 A 
ATOM      8  O   UNL     1       2.998   5.590  19.182  0.00  0.00    +0.000 OA
ATOM      9  C   UNL     1       3.924   5.784  18.106  0.00  0.00    +0.000 C 
ATOM     10  F   UNL     1       5.155   5.956  18.653  0.00  0.00    +0.000 F 
ATOM     11  F   UNL     1       3.967   4.666  17.343  0.00  0.00    +0.000 F 
ATOM     12  O   UNL     1       3.626   6.916  17.274  0.00  0.00    +0.000 OA
BRANCH   7  13
ATOM     13  O   UNL     1       0.757   9.304  21.234  0.00  0.00    +0.000 OA
ATOM     14  H   UNL     1      -0.074   9.706  20.922  0.00  0.00    +0.000 HD
ENDBRANCH   7  13
ENDBRANCH   1   2
BRANCH   1  15
ATOM     15  C   UNL     1       1.527  11.898  19.079  0.00  0.00    +0.000 A 
ATOM     16  C   UNL     1       2.120  12.685  18.082  0.00  0.00    +0.000 A 
ATOM     17  C   UNL     1       2.816  13.824  18.451  0.00  0.00    +0.000 A 
ATOM     18  N   UNL     1       2.979  14.222  19.730  0.00  0.00    +0.000 NA
ATOM     19  C   UNL     1       2.414  13.446  20.680  0.00  0.00    +0.000 A 
ATOM     20  C   UNL     1       1.685  12.298  20.411  0.00  0.00    +0.000 A 
ENDBRANCH   1  15
BRANCH   1  24
ATOM     21  C   UNL     1      -2.357  12.485  19.248  0.00  0.00    +0.000 C 
ATOM     22  C   UNL     1      -2.533  11.459  18.144  0.00  0.00    +0.000 C 
ATOM     23  C   UNL     1      -1.794  10.241  18.664  0.00  0.00    +0.000 C 
ATOM     24  N   UNL     1      -0.654  10.722  19.452  0.00  0.00    +0.000 NA
ATOM     25  C   UNL     1      -1.002  12.115  19.869  0.00  0.00    +0.000 C 
BRANCH  21  28
ATOM     26  C   UNL     1      -3.733  13.609  20.946  0.00  0.00    +0.000 C 
ATOM     27  O   UNL     1      -3.129  14.662  20.821  0.00  0.00    +0.000 OA
ATOM     28  N   UNL     1      -3.454  12.487  20.207  0.00  0.00    +0.000 N 
ATOM     29  H   UNL     1      -3.907  11.630  20.501  0.00  0.00    +0.000 HD
BRANCH  26  30
ATOM     30  O   UNL     1      -4.775  13.384  21.783  0.00  0.00    +0.000 OA
BRANCH  30  32
ATOM     31  C   UNL     1      -4.329  14.795  23.768  0.00  0.00    +0.000 C 
ATOM     32  C   UNL     1      -4.544  13.376  23.221  0.00  0.00    +0.000 C 
ATOM     33  C   UNL     1      -3.391  12.436  23.599  0.00  0.00    +0.000 C 
ATOM     34  C   UNL     1      -5.833  12.822  23.854  0.00  0.00    +0.000 C 
ENDBRANCH  30  32
ENDBRANCH  26  30
ENDBRANCH  21  28
ENDBRANCH   1  24
TORSDOF 7
ENDMDL
