MODEL 1
REMARK VINA RESULT:      -7.6      0.000      0.000
REMARK  Name = 
REMARK  3 active torsions:
REMARK  status: ('A' for Active; 'I' for Inactive)
REMARK    1  A    between atoms: C_1  and  C_2
REMARK    2  A    between atoms: C_4  and  C_5
REMARK    3  A    between atoms: C_16  and  N_17
REMARK                            x       y       z     vdW  Elec       q    Type
REMARK                         _______ _______ _______ _____ _____    ______ ____
ROOT
ATOM      1  C   UNL     1       5.930   3.625  13.140  0.00  0.00    +0.000 C 
ATOM      2  C   UNL     1       6.037   4.271  14.494  0.00  0.00    +0.000 A 
ATOM      3  C   UNL     1       5.121   3.900  15.498  0.00  0.00    +0.000 A 
ATOM      4  C   UNL     1       5.173   4.455  16.785  0.00  0.00    +0.000 A 
ATOM      5  C   UNL     1       6.170   5.400  17.053  0.00  0.00    +0.000 A 
ATOM      6  C   UNL     1       7.091   5.767  16.066  0.00  0.00    +0.000 A 
ATOM      7  C   UNL     1       7.007   5.248  14.768  0.00  0.00    +0.000 A 
ENDROOT
BRANCH   4   8
ATOM      8  C   UNL     1       4.215   4.095  17.845  0.00  0.00    +0.000 A 
ATOM      9  N   UNL     1       4.515   3.343  18.885  0.00  0.00    +0.000 NA
ATOM     10  C   UNL     1       3.416   3.211  19.718  0.00  0.00    +0.000 A 
ATOM     11  C   UNL     1       3.384   2.515  20.942  0.00  0.00    +0.000 A 
ATOM     12  C   UNL     1       2.200   2.472  21.688  0.00  0.00    +0.000 A 
ATOM     13  C   UNL     1       1.053   3.106  21.225  0.00  0.00    +0.000 A 
ATOM     14  C   UNL     1       1.057   3.797  20.010  0.00  0.00    +0.000 A 
ATOM     15  C   UNL     1       2.253   3.840  19.275  0.00  0.00    +0.000 A 
ATOM     16  S   UNL     1       2.574   4.612  17.774  0.00  0.00    +0.000 S 
ENDBRANCH   4   8
BRANCH   7  17
ATOM     17  N   UNL     1       8.025   5.551  13.851  0.00  0.00    +0.000 N 
ATOM     18  H   UNL     1       7.878   5.147  12.932  0.00  0.00    +0.000 HD
ATOM     19  H   UNL     1       8.961   5.376  14.198  0.00  0.00    +0.000 HD
ENDBRANCH   7  17
TORSDOF 2
ENDMDL
MODEL 2
REMARK VINA RESULT:      -7.5      1.094      1.399
REMARK  Name = 
REMARK  3 active torsions:
REMARK  status: ('A' for Active; 'I' for Inactive)
REMARK    1  A    between atoms: C_1  and  C_2
REMARK    2  A    between atoms: C_4  and  C_5
REMARK    3  A    between atoms: C_16  and  N_17
REMARK                            x       y       z     vdW  Elec       q    Type
REMARK                         _______ _______ _______ _____ _____    ______ ____
ROOT
ATOM      1  C   UNL     1       6.013   3.561  12.794  0.00  0.00    +0.000 C 
ATOM      2  C   UNL     1       6.135   4.253  14.124  0.00  0.00    +0.000 A 
ATOM      3  C   UNL     1       5.190   3.965  15.129  0.00  0.00    +0.000 A 
ATOM      4  C   UNL     1       5.254   4.566  16.395  0.00  0.00    +0.000 A 
ATOM      5  C   UNL     1       6.292   5.472  16.640  0.00  0.00    +0.000 A 
ATOM      6  C   UNL     1       7.240   5.757  15.652  0.00  0.00    +0.000 A 
ATOM      7  C   UNL     1       7.147   5.193  14.374  0.00  0.00    +0.000 A 
ENDROOT
BRANCH   4   8
ATOM      8  C   UNL     1       4.268   4.292  17.454  0.00  0.00    +0.000 A 
ATOM      9  N   UNL     1       3.154   3.612  17.268  0.00  0.00    +0.000 NA
ATOM     10  C   UNL     1       2.455   3.496  18.458  0.00  0.00    +0.000 A 
ATOM     11  C   UNL     1       1.245   2.798  18.642  0.00  0.00    +0.000 A 
ATOM     12  C   UNL     1       0.651   2.757  19.909  0.00  0.00    +0.000 A 
ATOM     13  C   UNL     1       1.244   3.406  20.986  0.00  0.00    +0.000 A 
ATOM     14  C   UNL     1       2.441   4.111  20.828  0.00  0.00    +0.000 A 
ATOM     15  C   UNL     1       3.031   4.138  19.553  0.00  0.00    +0.000 A 
ATOM     16  S   UNL     1       4.489   4.896  19.052  0.00  0.00    +0.000 S 
ENDBRANCH   4   8
BRANCH   7  17
ATOM     17  N   UNL     1       8.189   5.413  13.460  0.00  0.00    +0.000 N 
ATOM     18  H   UNL     1       8.989   5.889  13.862  0.00  0.00    +0.000 HD
ATOM     19  H   UNL     1       7.893   5.836  12.588  0.00  0.00    +0.000 HD
ENDBRANCH   7  17
TORSDOF 2
ENDMDL
MODEL 3
REMARK VINA RESULT:      -7.3      1.047      1.163
REMARK  Name = 
REMARK  3 active torsions:
REMARK  status: ('A' for Active; 'I' for Inactive)
REMARK    1  A    between atoms: C_1  and  C_2
REMARK    2  A    between atoms: C_4  and  C_5
REMARK    3  A    between atoms: C_16  and  N_17
REMARK                            x       y       z     vdW  Elec       q    Type
REMARK                         _______ _______ _______ _____ _____    ______ ____
ROOT
ATOM      1  C   UNL     1       5.958   3.592  12.839  0.00  0.00    +0.000 C 
ATOM      2  C   UNL     1       6.111   4.207  14.203  0.00  0.00    +0.000 A 
ATOM      3  C   UNL     1       5.207   3.839  15.220  0.00  0.00    +0.000 A 
ATOM      4  C   UNL     1       5.302   4.366  16.516  0.00  0.00    +0.000 A 
ATOM      5  C   UNL     1       6.329   5.278  16.781  0.00  0.00    +0.000 A 
ATOM      6  C   UNL     1       7.238   5.642  15.781  0.00  0.00    +0.000 A 
ATOM      7  C   UNL     1       7.112   5.153  14.475  0.00  0.00    +0.000 A 
ENDROOT
BRANCH   4   8
ATOM      8  C   UNL     1       4.359   4.008  17.590  0.00  0.00    +0.000 A 
ATOM      9  N   UNL     1       4.088   4.783  18.621  0.00  0.00    +0.000 NA
ATOM     10  C   UNL     1       3.141   4.185  19.437  0.00  0.00    +0.000 A 
ATOM     11  C   UNL     1       2.582   4.743  20.604  0.00  0.00    +0.000 A 
ATOM     12  C   UNL     1       1.624   4.027  21.330  0.00  0.00    +0.000 A 
ATOM     13  C   UNL     1       1.224   2.763  20.910  0.00  0.00    +0.000 A 
ATOM     14  C   UNL     1       1.768   2.184  19.760  0.00  0.00    +0.000 A 
ATOM     15  C   UNL     1       2.723   2.917  19.036  0.00  0.00    +0.000 A 
ATOM     16  S   UNL     1       3.551   2.487  17.593  0.00  0.00    +0.000 S 
ENDBRANCH   4   8
BRANCH   7  17
ATOM     17  N   UNL     1       8.117   5.449  13.542  0.00  0.00    +0.000 N 
ATOM     18  H   UNL     1       8.361   6.433  13.505  0.00  0.00    +0.000 HD
ATOM     19  H   UNL     1       7.953   5.062  12.620  0.00  0.00    +0.000 HD
ENDBRANCH   7  17
TORSDOF 2
ENDMDL
MODEL 4
REMARK VINA RESULT:      -6.7      4.451      5.308
REMARK  Name = 
REMARK  3 active torsions:
REMARK  status: ('A' for Active; 'I' for Inactive)
REMARK    1  A    between atoms: C_1  and  C_2
REMARK    2  A    between atoms: C_4  and  C_5
REMARK    3  A    between atoms: C_16  and  N_17
REMARK                            x       y       z     vdW  Elec       q    Type
REMARK                         _______ _______ _______ _____ _____    ______ ____
ROOT
ATOM      1  C   UNL     1       2.746   2.816  17.426  0.00  0.00    +0.000 C 
ATOM      2  C   UNL     1       3.298   4.216  17.452  0.00  0.00    +0.000 A 
ATOM      3  C   UNL     1       2.565   5.222  18.112  0.00  0.00    +0.000 A 
ATOM      4  C   UNL     1       3.028   6.544  18.185  0.00  0.00    +0.000 A 
ATOM      5  C   UNL     1       4.252   6.845  17.578  0.00  0.00    +0.000 A 
ATOM      6  C   UNL     1       4.992   5.851  16.929  0.00  0.00    +0.000 A 
ATOM      7  C   UNL     1       4.505   4.543  16.815  0.00  0.00    +0.000 A 
ENDROOT
BRANCH   4   8
ATOM      8  C   UNL     1       2.271   7.615  18.856  0.00  0.00    +0.000 A 
ATOM      9  N   UNL     1       1.904   7.577  20.121  0.00  0.00    +0.000 NA
ATOM     10  C   UNL     1       1.237   8.742  20.464  0.00  0.00    +0.000 A 
ATOM     11  C   UNL     1       0.742   9.066  21.743  0.00  0.00    +0.000 A 
ATOM     12  C   UNL     1       0.093  10.289  21.949  0.00  0.00    +0.000 A 
ATOM     13  C   UNL     1      -0.072  11.184  20.898  0.00  0.00    +0.000 A 
ATOM     14  C   UNL     1       0.404  10.883  19.618  0.00  0.00    +0.000 A 
ATOM     15  C   UNL     1       1.061   9.656  19.427  0.00  0.00    +0.000 A 
ATOM     16  S   UNL     1       1.761   9.016  17.994  0.00  0.00    +0.000 S 
ENDBRANCH   4   8
BRANCH   7  17
ATOM     17  N   UNL     1       5.337   3.556  16.265  0.00  0.00    +0.000 N 
ATOM     18  H   UNL     1       5.168   2.627  16.638  0.00  0.00    +0.000 HD
ATOM     19  H   UNL     1       6.323   3.794  16.271  0.00  0.00    +0.000 HD
ENDBRANCH   7  17
TORSDOF 2
ENDMDL
MODEL 5
REMARK VINA RESULT:      -6.7      4.168      5.049
REMARK  Name = 
REMARK  3 active torsions:
REMARK  status: ('A' for Active; 'I' for Inactive)
REMARK    1  A    between atoms: C_1  and  C_2
REMARK    2  A    between atoms: C_4  and  C_5
REMARK    3  A    between atoms: C_16  and  N_17
REMARK                            x       y       z     vdW  Elec       q    Type
REMARK                         _______ _______ _______ _____ _____    ______ ____
ROOT
ATOM      1  C   UNL     1       6.880   6.053  16.702  0.00  0.00    +0.000 C 
ATOM      2  C   UNL     1       5.478   5.691  17.108  0.00  0.00    +0.000 A 
ATOM      3  C   UNL     1       4.675   6.671  17.724  0.00  0.00    +0.000 A 
ATOM      4  C   UNL     1       3.355   6.403  18.116  0.00  0.00    +0.000 A 
ATOM      5  C   UNL     1       2.847   5.121  17.878  0.00  0.00    +0.000 A 
ATOM      6  C   UNL     1       3.633   4.144  17.258  0.00  0.00    +0.000 A 
ATOM      7  C   UNL     1       4.965   4.398  16.912  0.00  0.00    +0.000 A 
ENDROOT
BRANCH   4   8
ATOM      8  C   UNL     1       2.503   7.406  18.776  0.00  0.00    +0.000 A 
ATOM      9  N   UNL     1       2.122   7.336  20.036  0.00  0.00    +0.000 NA
ATOM     10  C   UNL     1       1.356   8.441  20.371  0.00  0.00    +0.000 A 
ATOM     11  C   UNL     1       0.817   8.721  21.642  0.00  0.00    +0.000 A 
ATOM     12  C   UNL     1       0.067   9.886  21.840  0.00  0.00    +0.000 A 
ATOM     13  C   UNL     1      -0.156  10.767  20.788  0.00  0.00    +0.000 A 
ATOM     14  C   UNL     1       0.362  10.509  19.515  0.00  0.00    +0.000 A 
ATOM     15  C   UNL     1       1.121   9.341  19.332  0.00  0.00    +0.000 A 
ATOM     16  S   UNL     1       1.892   8.763  17.909  0.00  0.00    +0.000 S 
ENDBRANCH   4   8
BRANCH   7  17
ATOM     17  N   UNL     1       5.672   3.430  16.182  0.00  0.00    +0.000 N 
ATOM     18  H   UNL     1       5.333   2.485  16.326  0.00  0.00    +0.000 HD
ATOM     19  H   UNL     1       6.679   3.492  16.278  0.00  0.00    +0.000 HD
ENDBRANCH   7  17
TORSDOF 2
ENDMDL
MODEL 6
REMARK VINA RESULT:      -6.5      4.472      7.141
REMARK  Name = 
REMARK  3 active torsions:
REMARK  status: ('A' for Active; 'I' for Inactive)
REMARK    1  A    between atoms: C_1  and  C_2
REMARK    2  A    between atoms: C_4  and  C_5
REMARK    3  A    between atoms: C_16  and  N_17
REMARK                            x       y       z     vdW  Elec       q    Type
REMARK                         _______ _______ _______ _____ _____    ______ ____
ROOT
ATOM      1  C   UNL     1       0.668   9.022  22.136  0.00  0.00    +0.000 C 
ATOM      2  C   UNL     1       0.960   9.107  20.663  0.00  0.00    +0.000 A 
ATOM      3  C   UNL     1       1.766   8.114  20.072  0.00  0.00    +0.000 A 
ATOM      4  C   UNL     1       2.066   8.127  18.702  0.00  0.00    +0.000 A 
ATOM      5  C   UNL     1       1.541   9.165  17.924  0.00  0.00    +0.000 A 
ATOM      6  C   UNL     1       0.731  10.150  18.500  0.00  0.00    +0.000 A 
ATOM      7  C   UNL     1       0.472  10.162  19.876  0.00  0.00    +0.000 A 
ENDROOT
BRANCH   4   8
ATOM      8  C   UNL     1       2.920   7.109  18.066  0.00  0.00    +0.000 A 
ATOM      9  N   UNL     1       3.963   7.389  17.310  0.00  0.00    +0.000 NA
ATOM     10  C   UNL     1       4.578   6.222  16.886  0.00  0.00    +0.000 A 
ATOM     11  C   UNL     1       5.745   6.140  16.101  0.00  0.00    +0.000 A 
ATOM     12  C   UNL     1       6.263   4.888  15.752  0.00  0.00    +0.000 A 
ATOM     13  C   UNL     1       5.630   3.723  16.171  0.00  0.00    +0.000 A 
ATOM     14  C   UNL     1       4.467   3.777  16.945  0.00  0.00    +0.000 A 
ATOM     15  C   UNL     1       3.962   5.041  17.295  0.00  0.00    +0.000 A 
ATOM     16  S   UNL     1       2.578   5.430  18.236  0.00  0.00    +0.000 S 
ENDBRANCH   4   8
BRANCH   7  17
ATOM     17  N   UNL     1      -0.444  11.096  20.384  0.00  0.00    +0.000 N 
ATOM     18  H   UNL     1      -0.168  12.061  20.232  0.00  0.00    +0.000 HD
ATOM     19  H   UNL     1      -0.719  10.926  21.345  0.00  0.00    +0.000 HD
ENDBRANCH   7  17
TORSDOF 2
ENDMDL
MODEL 7
REMARK VINA RESULT:      -6.5      4.367      5.247
REMARK  Name = 
REMARK  3 active torsions:
REMARK  status: ('A' for Active; 'I' for Inactive)
REMARK    1  A    between atoms: C_1  and  C_2
REMARK    2  A    between atoms: C_4  and  C_5
REMARK    3  A    between atoms: C_16  and  N_17
REMARK                            x       y       z     vdW  Elec       q    Type
REMARK                         _______ _______ _______ _____ _____    ______ ____
ROOT
ATOM      1  C   UNL     1       3.704   2.579  17.712  0.00  0.00    +0.000 C 
ATOM      2  C   UNL     1       3.974   4.035  17.447  0.00  0.00    +0.000 A 
ATOM      3  C   UNL     1       3.181   5.002  18.096  0.00  0.00    +0.000 A 
ATOM      4  C   UNL     1       3.388   6.376  17.903  0.00  0.00    +0.000 A 
ATOM      5  C   UNL     1       4.416   6.770  17.038  0.00  0.00    +0.000 A 
ATOM      6  C   UNL     1       5.215   5.817  16.398  0.00  0.00    +0.000 A 
ATOM      7  C   UNL     1       4.976   4.447  16.554  0.00  0.00    +0.000 A 
ENDROOT
BRANCH   4   8
ATOM      8  C   UNL     1       2.560   7.403  18.557  0.00  0.00    +0.000 A 
ATOM      9  N   UNL     1       2.192   8.530  17.981  0.00  0.00    +0.000 NA
ATOM     10  C   UNL     1       1.395   9.272  18.838  0.00  0.00    +0.000 A 
ATOM     11  C   UNL     1       0.787  10.508  18.541  0.00  0.00    +0.000 A 
ATOM     12  C   UNL     1      -0.004  11.144  19.504  0.00  0.00    +0.000 A 
ATOM     13  C   UNL     1      -0.188  10.567  20.757  0.00  0.00    +0.000 A 
ATOM     14  C   UNL     1       0.410   9.345  21.078  0.00  0.00    +0.000 A 
ATOM     15  C   UNL     1       1.194   8.713  20.099  0.00  0.00    +0.000 A 
ATOM     16  S   UNL     1       2.035   7.217  20.187  0.00  0.00    +0.000 S 
ENDBRANCH   4   8
BRANCH   7  17
ATOM     17  N   UNL     1       5.880   3.533  15.991  0.00  0.00    +0.000 N 
ATOM     18  H   UNL     1       6.606   3.971  15.433  0.00  0.00    +0.000 HD
ATOM     19  H   UNL     1       5.440   2.761  15.504  0.00  0.00    +0.000 HD
ENDBRANCH   7  17
TORSDOF 2
ENDMDL
MODEL 8
REMARK VINA RESULT:      -6.4      4.389      7.120
REMARK  Name = 
REMARK  3 active torsions:
REMARK  status: ('A' for Active; 'I' for Inactive)
REMARK    1  A    between atoms: C_1  and  C_2
REMARK    2  A    between atoms: C_4  and  C_5
REMARK    3  A    between atoms: C_16  and  N_17
REMARK                            x       y       z     vdW  Elec       q    Type
REMARK                         _______ _______ _______ _____ _____    ______ ____
ROOT
ATOM      1  C   UNL     1       0.395  11.229  18.803  0.00  0.00    +0.000 C 
ATOM      2  C   UNL     1       0.834   9.921  19.403  0.00  0.00    +0.000 A 
ATOM      3  C   UNL     1       1.639   9.058  18.636  0.00  0.00    +0.000 A 
ATOM      4  C   UNL     1       2.093   7.830  19.140  0.00  0.00    +0.000 A 
ATOM      5  C   UNL     1       1.721   7.477  20.442  0.00  0.00    +0.000 A 
ATOM      6  C   UNL     1       0.929   8.333  21.216  0.00  0.00    +0.000 A 
ATOM      7  C   UNL     1       0.437   9.535  20.694  0.00  0.00    +0.000 A 
ENDROOT
BRANCH   4   8
ATOM      8  C   UNL     1       2.923   6.904  18.350  0.00  0.00    +0.000 A 
ATOM      9  N   UNL     1       3.806   7.290  17.451  0.00  0.00    +0.000 NA
ATOM     10  C   UNL     1       4.447   6.191  16.903  0.00  0.00    +0.000 A 
ATOM     11  C   UNL     1       5.480   6.228  15.945  0.00  0.00    +0.000 A 
ATOM     12  C   UNL     1       6.045   5.034  15.483  0.00  0.00    +0.000 A 
ATOM     13  C   UNL     1       5.590   3.810  15.960  0.00  0.00    +0.000 A 
ATOM     14  C   UNL     1       4.562   3.746  16.905  0.00  0.00    +0.000 A 
ATOM     15  C   UNL     1       4.009   4.952  17.366  0.00  0.00    +0.000 A 
ATOM     16  S   UNL     1       2.761   5.198  18.521  0.00  0.00    +0.000 S 
ENDBRANCH   4   8
BRANCH   7  17
ATOM     17  N   UNL     1      -0.247  10.414  21.547  0.00  0.00    +0.000 N 
ATOM     18  H   UNL     1       0.070  11.376  21.479  0.00  0.00    +0.000 HD
ATOM     19  H   UNL     1      -0.302  10.099  22.509  0.00  0.00    +0.000 HD
ENDBRANCH   7  17
TORSDOF 2
ENDMDL
MODEL 9
REMARK VINA RESULT:      -6.4      2.184      6.860
REMARK  Name = 
REMARK  3 active torsions:
REMARK  status: ('A' for Active; 'I' for Inactive)
REMARK    1  A    between atoms: C_1  and  C_2
REMARK    2  A    between atoms: C_4  and  C_5
REMARK    3  A    between atoms: C_16  and  N_17
REMARK                            x       y       z     vdW  Elec       q    Type
REMARK                         _______ _______ _______ _____ _____    ______ ____
ROOT
ATOM      1  C   UNL     1       2.284   7.204  19.609  0.00  0.00    +0.000 C 
ATOM      2  C   UNL     1       3.015   5.943  19.239  0.00  0.00    +0.000 A 
ATOM      3  C   UNL     1       3.741   5.908  18.032  0.00  0.00    +0.000 A 
ATOM      4  C   UNL     1       4.454   4.768  17.633  0.00  0.00    +0.000 A 
ATOM      5  C   UNL     1       4.428   3.650  18.474  0.00  0.00    +0.000 A 
ATOM      6  C   UNL     1       3.720   3.678  19.680  0.00  0.00    +0.000 A 
ATOM      7  C   UNL     1       2.969   4.799  20.053  0.00  0.00    +0.000 A 
ENDROOT
BRANCH   4   8
ATOM      8  C   UNL     1       5.206   4.703  16.368  0.00  0.00    +0.000 A 
ATOM      9  N   UNL     1       4.861   3.948  15.344  0.00  0.00    +0.000 NA
ATOM     10  C   UNL     1       5.745   4.130  14.292  0.00  0.00    +0.000 A 
ATOM     11  C   UNL     1       5.661   3.520  13.025  0.00  0.00    +0.000 A 
ATOM     12  C   UNL     1       6.624   3.803  12.050  0.00  0.00    +0.000 A 
ATOM     13  C   UNL     1       7.668   4.679  12.326  0.00  0.00    +0.000 A 
ATOM     14  C   UNL     1       7.778   5.292  13.577  0.00  0.00    +0.000 A 
ATOM     15  C   UNL     1       6.800   5.006  14.544  0.00  0.00    +0.000 A 
ATOM     16  S   UNL     1       6.656   5.606  16.148  0.00  0.00    +0.000 S 
ENDBRANCH   4   8
BRANCH   7  17
ATOM     17  N   UNL     1       2.378   4.826  21.325  0.00  0.00    +0.000 N 
ATOM     18  H   UNL     1       3.007   5.132  22.059  0.00  0.00    +0.000 HD
ATOM     19  H   UNL     1       1.890   3.973  21.573  0.00  0.00    +0.000 HD
ENDBRANCH   7  17
TORSDOF 2
ENDMDL
