MODEL 1
REMARK VINA RESULT:      -6.5      0.000      0.000
REMARK  Name = 
REMARK  9 active torsions:
REMARK  status: ('A' for Active; 'I' for Inactive)
REMARK    1  A    between atoms: C_1  and  C_2
REMARK    2  A    between atoms: C_2  and  O_3
REMARK    3  A    between atoms: O_3  and  C_4
REMARK    4  A    between atoms: C_4  and  C_6
REMARK    5  A    between atoms: C_6  and  N_7
REMARK    6  A    between atoms: N_7  and  C_8
REMARK    7  A    between atoms: N_7  and  C_9
REMARK    8  A    between atoms: C_9  and  C_10
REMARK    9  A    between atoms: N_15  and  C_16
REMARK                            x       y       z     vdW  Elec       q    Type
REMARK                         _______ _______ _______ _____ _____    ______ ____
ROOT
ATOM      1  C   UNL     1       5.781   5.286  16.611  0.00  0.00    +0.000 C 
ATOM      2  C   UNL     1       4.884   6.506  16.908  0.00  0.00    +0.000 C 
ATOM      3  C   UNL     1       3.505   6.113  17.466  0.00  0.00    +0.000 C 
ATOM      4  C   UNL     1       3.623   5.003  18.461  0.00  0.00    +0.000 A 
ATOM      5  C   UNL     1       4.783   4.269  18.659  0.00  0.00    +0.000 A 
ATOM      6  N   UNL     1       4.525   3.326  19.620  0.00  0.00    +0.000 N 
ATOM      7  C   UNL     1       5.433   2.301  20.095  0.00  0.00    +0.000 C 
ATOM      8  C   UNL     1       3.202   3.414  20.025  0.00  0.00    +0.000 A 
ATOM      9  C   UNL     1       2.466   2.658  20.951  0.00  0.00    +0.000 A 
ATOM     10  C   UNL     1       1.116   2.968  21.135  0.00  0.00    +0.000 A 
ATOM     11  C   UNL     1       0.515   4.002  20.421  0.00  0.00    +0.000 A 
ATOM     12  C   UNL     1       1.252   4.752  19.506  0.00  0.00    +0.000 A 
ATOM     13  C   UNL     1       2.615   4.462  19.303  0.00  0.00    +0.000 A 
ATOM     14  C   UNL     1       5.998   4.497  17.901  0.00  0.00    +0.000 C 
ATOM     15  O   UNL     1       7.108   4.074  18.212  0.00  0.00    +0.000 OA
ENDROOT
BRANCH   1  16
ATOM     16  C   UNL     1       5.212   4.328  15.538  0.00  0.00    +0.000 C 
BRANCH  16  17
ATOM     17  N   UNL     1       6.138   4.061  14.418  0.00  0.00    +0.000 NA
ATOM     18  C   UNL     1       7.244   5.029  14.432  0.00  0.00    +0.000 C 
BRANCH  17  19
ATOM     19  C   UNL     1       5.422   4.128  13.126  0.00  0.00    +0.000 C 
BRANCH  19  20
ATOM     20  C   UNL     1       5.939   3.131  12.100  0.00  0.00    +0.000 C 
ATOM     21  O   UNL     1       7.126   2.930  11.887  0.00  0.00    +0.000 OA
BRANCH  20  22
ATOM     22  O   UNL     1       4.904   2.620  11.373  0.00  0.00    +0.000 OA
BRANCH  22  24
ATOM     23  C   UNL     1       3.206   3.604  10.024  0.00  0.00    +0.000 C 
ATOM     24  C   UNL     1       3.687   3.372  11.446  0.00  0.00    +0.000 C 
ENDBRANCH  22  24
ENDBRANCH  20  22
ENDBRANCH  19  20
ENDBRANCH  17  19
ENDBRANCH  16  17
ENDBRANCH   1  16
TORSDOF 6
ENDMDL
MODEL 2
REMARK VINA RESULT:      -6.2      3.190      5.111
REMARK  Name = 
REMARK  9 active torsions:
REMARK  status: ('A' for Active; 'I' for Inactive)
REMARK    1  A    between atoms: C_1  and  C_2
REMARK    2  A    between atoms: C_2  and  O_3
REMARK    3  A    between atoms: O_3  and  C_4
REMARK    4  A    between atoms: C_4  and  C_6
REMARK    5  A    between atoms: C_6  and  N_7
REMARK    6  A    between atoms: N_7  and  C_8
REMARK    7  A    between atoms: N_7  and  C_9
REMARK    8  A    between atoms: C_9  and  C_10
REMARK    9  A    between atoms: N_15  and  C_16
REMARK                            x       y       z     vdW  Elec       q    Type
REMARK                         _______ _______ _______ _____ _____    ______ ____
ROOT
ATOM      1  C   UNL     1       3.523   4.835  18.988  0.00  0.00    +0.000 C 
ATOM      2  C   UNL     1       2.372   4.275  19.850  0.00  0.00    +0.000 C 
ATOM      3  C   UNL     1       1.847   5.289  20.880  0.00  0.00    +0.000 C 
ATOM      4  C   UNL     1       1.747   6.658  20.286  0.00  0.00    +0.000 A 
ATOM      5  C   UNL     1       2.290   7.003  19.057  0.00  0.00    +0.000 A 
ATOM      6  N   UNL     1       2.032   8.332  18.843  0.00  0.00    +0.000 N 
ATOM      7  C   UNL     1       2.471   9.129  17.714  0.00  0.00    +0.000 C 
ATOM      8  C   UNL     1       1.358   8.864  19.930  0.00  0.00    +0.000 A 
ATOM      9  C   UNL     1       0.908  10.168  20.191  0.00  0.00    +0.000 A 
ATOM     10  C   UNL     1       0.270  10.417  21.410  0.00  0.00    +0.000 A 
ATOM     11  C   UNL     1       0.084   9.398  22.341  0.00  0.00    +0.000 A 
ATOM     12  C   UNL     1       0.530   8.105  22.075  0.00  0.00    +0.000 A 
ATOM     13  C   UNL     1       1.173   7.827  20.853  0.00  0.00    +0.000 A 
ATOM     14  C   UNL     1       3.029   6.068  18.232  0.00  0.00    +0.000 C 
ATOM     15  O   UNL     1       3.291   6.236  17.044  0.00  0.00    +0.000 OA
ENDROOT
BRANCH   1  16
ATOM     16  C   UNL     1       4.785   5.226  19.793  0.00  0.00    +0.000 C 
BRANCH  16  17
ATOM     17  N   UNL     1       6.050   4.745  19.199  0.00  0.00    +0.000 NA
ATOM     18  C   UNL     1       7.029   5.838  19.137  0.00  0.00    +0.000 C 
BRANCH  17  19
ATOM     19  C   UNL     1       5.813   4.199  17.845  0.00  0.00    +0.000 C 
BRANCH  19  20
ATOM     20  C   UNL     1       6.948   4.488  16.874  0.00  0.00    +0.000 C 
ATOM     21  O   UNL     1       8.110   4.163  17.073  0.00  0.00    +0.000 OA
BRANCH  20  22
ATOM     22  O   UNL     1       6.506   5.273  15.850  0.00  0.00    +0.000 OA
BRANCH  22  24
ATOM     23  C   UNL     1       5.763   4.072  13.934  0.00  0.00    +0.000 C 
ATOM     24  C   UNL     1       6.915   4.849  14.545  0.00  0.00    +0.000 C 
ENDBRANCH  22  24
ENDBRANCH  20  22
ENDBRANCH  19  20
ENDBRANCH  17  19
ENDBRANCH  16  17
ENDBRANCH   1  16
TORSDOF 6
ENDMDL
MODEL 3
REMARK VINA RESULT:      -6.1      3.648      7.153
REMARK  Name = 
REMARK  9 active torsions:
REMARK  status: ('A' for Active; 'I' for Inactive)
REMARK    1  A    between atoms: C_1  and  C_2
REMARK    2  A    between atoms: C_2  and  O_3
REMARK    3  A    between atoms: O_3  and  C_4
REMARK    4  A    between atoms: C_4  and  C_6
REMARK    5  A    between atoms: C_6  and  N_7
REMARK    6  A    between atoms: N_7  and  C_8
REMARK    7  A    between atoms: N_7  and  C_9
REMARK    8  A    between atoms: C_9  and  C_10
REMARK    9  A    between atoms: N_15  and  C_16
REMARK                            x       y       z     vdW  Elec       q    Type
REMARK                         _______ _______ _______ _____ _____    ______ ____
ROOT
ATOM      1  C   UNL     1       3.215   4.982  18.915  0.00  0.00    +0.000 C 
ATOM      2  C   UNL     1       2.918   3.593  18.312  0.00  0.00    +0.000 C 
ATOM      3  C   UNL     1       3.291   3.494  16.823  0.00  0.00    +0.000 C 
ATOM      4  C   UNL     1       4.595   4.173  16.548  0.00  0.00    +0.000 A 
ATOM      5  C   UNL     1       5.244   4.989  17.463  0.00  0.00    +0.000 A 
ATOM      6  N   UNL     1       6.388   5.456  16.870  0.00  0.00    +0.000 N 
ATOM      7  C   UNL     1       7.339   6.392  17.439  0.00  0.00    +0.000 C 
ATOM      8  C   UNL     1       6.475   4.983  15.570  0.00  0.00    +0.000 A 
ATOM      9  C   UNL     1       7.433   5.205  14.568  0.00  0.00    +0.000 A 
ATOM     10  C   UNL     1       7.237   4.603  13.321  0.00  0.00    +0.000 A 
ATOM     11  C   UNL     1       6.123   3.804  13.079  0.00  0.00    +0.000 A 
ATOM     12  C   UNL     1       5.178   3.585  14.080  0.00  0.00    +0.000 A 
ATOM     13  C   UNL     1       5.352   4.176  15.346  0.00  0.00    +0.000 A 
ATOM     14  C   UNL     1       4.708   5.280  18.778  0.00  0.00    +0.000 C 
ATOM     15  O   UNL     1       5.351   5.761  19.706  0.00  0.00    +0.000 OA
ENDROOT
BRANCH   1  16
ATOM     16  C   UNL     1       2.422   6.138  18.262  0.00  0.00    +0.000 C 
BRANCH  16  17
ATOM     17  N   UNL     1       2.670   7.460  18.875  0.00  0.00    +0.000 NA
ATOM     18  C   UNL     1       1.847   7.621  20.082  0.00  0.00    +0.000 C 
BRANCH  17  19
ATOM     19  C   UNL     1       2.376   8.543  17.912  0.00  0.00    +0.000 C 
BRANCH  19  20
ATOM     20  C   UNL     1       1.358   9.547  18.430  0.00  0.00    +0.000 C 
ATOM     21  O   UNL     1       1.533  10.243  19.420  0.00  0.00    +0.000 OA
BRANCH  20  22
ATOM     22  O   UNL     1       0.193   9.444  17.727  0.00  0.00    +0.000 OA
BRANCH  22  24
ATOM     23  C   UNL     1      -2.137   9.874  17.490  0.00  0.00    +0.000 C 
ATOM     24  C   UNL     1      -0.851  10.326  18.158  0.00  0.00    +0.000 C 
ENDBRANCH  22  24
ENDBRANCH  20  22
ENDBRANCH  19  20
ENDBRANCH  17  19
ENDBRANCH  16  17
ENDBRANCH   1  16
TORSDOF 6
ENDMDL
MODEL 4
REMARK VINA RESULT:      -6.1      3.673      7.235
REMARK  Name = 
REMARK  9 active torsions:
REMARK  status: ('A' for Active; 'I' for Inactive)
REMARK    1  A    between atoms: C_1  and  C_2
REMARK    2  A    between atoms: C_2  and  O_3
REMARK    3  A    between atoms: O_3  and  C_4
REMARK    4  A    between atoms: C_4  and  C_6
REMARK    5  A    between atoms: C_6  and  N_7
REMARK    6  A    between atoms: N_7  and  C_8
REMARK    7  A    between atoms: N_7  and  C_9
REMARK    8  A    between atoms: C_9  and  C_10
REMARK    9  A    between atoms: N_15  and  C_16
REMARK                            x       y       z     vdW  Elec       q    Type
REMARK                         _______ _______ _______ _____ _____    ______ ____
ROOT
ATOM      1  C   UNL     1       3.018   4.914  18.830  0.00  0.00    +0.000 C 
ATOM      2  C   UNL     1       2.740   3.551  18.162  0.00  0.00    +0.000 C 
ATOM      3  C   UNL     1       3.196   3.500  16.694  0.00  0.00    +0.000 C 
ATOM      4  C   UNL     1       4.521   4.171  16.517  0.00  0.00    +0.000 A 
ATOM      5  C   UNL     1       5.126   4.945  17.497  0.00  0.00    +0.000 A 
ATOM      6  N   UNL     1       6.308   5.418  16.987  0.00  0.00    +0.000 N 
ATOM      7  C   UNL     1       7.235   6.320  17.642  0.00  0.00    +0.000 C 
ATOM      8  C   UNL     1       6.464   4.990  15.678  0.00  0.00    +0.000 A 
ATOM      9  C   UNL     1       7.479   5.233  14.740  0.00  0.00    +0.000 A 
ATOM     10  C   UNL     1       7.348   4.679  13.464  0.00  0.00    +0.000 A 
ATOM     11  C   UNL     1       6.241   3.903  13.131  0.00  0.00    +0.000 A 
ATOM     12  C   UNL     1       5.238   3.662  14.067  0.00  0.00    +0.000 A 
ATOM     13  C   UNL     1       5.346   4.206  15.361  0.00  0.00    +0.000 A 
ATOM     14  C   UNL     1       4.519   5.197  18.789  0.00  0.00    +0.000 C 
ATOM     15  O   UNL     1       5.113   5.637  19.769  0.00  0.00    +0.000 OA
ENDROOT
BRANCH   1  16
ATOM     16  C   UNL     1       2.277   6.103  18.175  0.00  0.00    +0.000 C 
BRANCH  16  17
ATOM     17  N   UNL     1       2.691   7.426  18.687  0.00  0.00    +0.000 NA
ATOM     18  C   UNL     1       1.898   7.783  19.872  0.00  0.00    +0.000 C 
BRANCH  17  19
ATOM     19  C   UNL     1       2.534   8.460  17.641  0.00  0.00    +0.000 C 
BRANCH  19  20
ATOM     20  C   UNL     1       1.593   9.585  18.046  0.00  0.00    +0.000 C 
ATOM     21  O   UNL     1       0.379   9.539  17.905  0.00  0.00    +0.000 OA
BRANCH  20  22
ATOM     22  O   UNL     1       2.306  10.680  18.439  0.00  0.00    +0.000 OA
BRANCH  22  24
ATOM     23  C   UNL     1       2.072  13.032  18.149  0.00  0.00    +0.000 C 
ATOM     24  C   UNL     1       1.513  11.802  18.843  0.00  0.00    +0.000 C 
ENDBRANCH  22  24
ENDBRANCH  20  22
ENDBRANCH  19  20
ENDBRANCH  17  19
ENDBRANCH  16  17
ENDBRANCH   1  16
TORSDOF 6
ENDMDL
MODEL 5
REMARK VINA RESULT:      -6.0      3.498      7.482
REMARK  Name = 
REMARK  9 active torsions:
REMARK  status: ('A' for Active; 'I' for Inactive)
REMARK    1  A    between atoms: C_1  and  C_2
REMARK    2  A    between atoms: C_2  and  O_3
REMARK    3  A    between atoms: O_3  and  C_4
REMARK    4  A    between atoms: C_4  and  C_6
REMARK    5  A    between atoms: C_6  and  N_7
REMARK    6  A    between atoms: N_7  and  C_8
REMARK    7  A    between atoms: N_7  and  C_9
REMARK    8  A    between atoms: C_9  and  C_10
REMARK    9  A    between atoms: N_15  and  C_16
REMARK                            x       y       z     vdW  Elec       q    Type
REMARK                         _______ _______ _______ _____ _____    ______ ____
ROOT
ATOM      1  C   UNL     1       3.661   4.508  19.269  0.00  0.00    +0.000 C 
ATOM      2  C   UNL     1       3.228   3.233  18.514  0.00  0.00    +0.000 C 
ATOM      3  C   UNL     1       3.460   3.328  16.997  0.00  0.00    +0.000 C 
ATOM      4  C   UNL     1       4.772   3.977  16.691  0.00  0.00    +0.000 A 
ATOM      5  C   UNL     1       5.549   4.624  17.641  0.00  0.00    +0.000 A 
ATOM      6  N   UNL     1       6.661   5.117  17.010  0.00  0.00    +0.000 N 
ATOM      7  C   UNL     1       7.713   5.917  17.606  0.00  0.00    +0.000 C 
ATOM      8  C   UNL     1       6.603   4.828  15.656  0.00  0.00    +0.000 A 
ATOM      9  C   UNL     1       7.479   5.143  14.605  0.00  0.00    +0.000 A 
ATOM     10  C   UNL     1       7.137   4.733  13.313  0.00  0.00    +0.000 A 
ATOM     11  C   UNL     1       5.960   4.028  13.074  0.00  0.00    +0.000 A 
ATOM     12  C   UNL     1       5.097   3.715  14.122  0.00  0.00    +0.000 A 
ATOM     13  C   UNL     1       5.419   4.114  15.433  0.00  0.00    +0.000 A 
ATOM     14  C   UNL     1       5.150   4.752  19.030  0.00  0.00    +0.000 C 
ATOM     15  O   UNL     1       5.901   5.068  19.948  0.00  0.00    +0.000 OA
ENDROOT
BRANCH   1  16
ATOM     16  C   UNL     1       2.883   5.781  18.858  0.00  0.00    +0.000 C 
BRANCH  16  17
ATOM     17  N   UNL     1       2.386   6.576  20.000  0.00  0.00    +0.000 NA
ATOM     18  C   UNL     1       1.323   5.845  20.704  0.00  0.00    +0.000 C 
BRANCH  17  19
ATOM     19  C   UNL     1       1.879   7.887  19.539  0.00  0.00    +0.000 C 
BRANCH  19  20
ATOM     20  C   UNL     1       1.235   8.706  20.647  0.00  0.00    +0.000 C 
ATOM     21  O   UNL     1       1.645   8.730  21.799  0.00  0.00    +0.000 OA
BRANCH  20  22
ATOM     22  O   UNL     1       0.077   9.274  20.204  0.00  0.00    +0.000 OA
BRANCH  22  24
ATOM     23  C   UNL     1      -0.809  10.266  18.229  0.00  0.00    +0.000 C 
ATOM     24  C   UNL     1       0.250  10.380  19.312  0.00  0.00    +0.000 C 
ENDBRANCH  22  24
ENDBRANCH  20  22
ENDBRANCH  19  20
ENDBRANCH  17  19
ENDBRANCH  16  17
ENDBRANCH   1  16
TORSDOF 6
ENDMDL
MODEL 6
REMARK VINA RESULT:      -6.0      3.253      7.011
REMARK  Name = 
REMARK  9 active torsions:
REMARK  status: ('A' for Active; 'I' for Inactive)
REMARK    1  A    between atoms: C_1  and  C_2
REMARK    2  A    between atoms: C_2  and  O_3
REMARK    3  A    between atoms: O_3  and  C_4
REMARK    4  A    between atoms: C_4  and  C_6
REMARK    5  A    between atoms: C_6  and  N_7
REMARK    6  A    between atoms: N_7  and  C_8
REMARK    7  A    between atoms: N_7  and  C_9
REMARK    8  A    between atoms: C_9  and  C_10
REMARK    9  A    between atoms: N_15  and  C_16
REMARK                            x       y       z     vdW  Elec       q    Type
REMARK                         _______ _______ _______ _____ _____    ______ ____
ROOT
ATOM      1  C   UNL     1       3.554   4.510  18.960  0.00  0.00    +0.000 C 
ATOM      2  C   UNL     1       3.351   3.141  18.277  0.00  0.00    +0.000 C 
ATOM      3  C   UNL     1       3.669   3.170  16.773  0.00  0.00    +0.000 C 
ATOM      4  C   UNL     1       4.899   3.976  16.496  0.00  0.00    +0.000 A 
ATOM      5  C   UNL     1       5.513   4.786  17.440  0.00  0.00    +0.000 A 
ATOM      6  N   UNL     1       6.588   5.388  16.840  0.00  0.00    +0.000 N 
ATOM      7  C   UNL     1       7.479   6.365  17.435  0.00  0.00    +0.000 C 
ATOM      8  C   UNL     1       6.662   5.008  15.509  0.00  0.00    +0.000 A 
ATOM      9  C   UNL     1       7.555   5.374  14.490  0.00  0.00    +0.000 A 
ATOM     10  C   UNL     1       7.359   4.838  13.214  0.00  0.00    +0.000 A 
ATOM     11  C   UNL     1       6.309   3.961  12.959  0.00  0.00    +0.000 A 
ATOM     12  C   UNL     1       5.428   3.598  13.976  0.00  0.00    +0.000 A 
ATOM     13  C   UNL     1       5.603   4.121  15.271  0.00  0.00    +0.000 A 
ATOM     14  C   UNL     1       5.009   4.945  18.790  0.00  0.00    +0.000 C 
ATOM     15  O   UNL     1       5.646   5.422  19.725  0.00  0.00    +0.000 OA
ENDROOT
BRANCH   1  16
ATOM     16  C   UNL     1       2.639   5.632  18.413  0.00  0.00    +0.000 C 
BRANCH  16  17
ATOM     17  N   UNL     1       2.478   6.777  19.333  0.00  0.00    +0.000 NA
ATOM     18  C   UNL     1       1.997   6.314  20.642  0.00  0.00    +0.000 C 
BRANCH  17  19
ATOM     19  C   UNL     1       1.535   7.767  18.768  0.00  0.00    +0.000 C 
BRANCH  19  20
ATOM     20  C   UNL     1       2.211   8.803  17.883  0.00  0.00    +0.000 C 
ATOM     21  O   UNL     1       3.135   8.548  17.123  0.00  0.00    +0.000 OA
BRANCH  20  22
ATOM     22  O   UNL     1       1.741  10.051  18.170  0.00  0.00    +0.000 OA
BRANCH  22  24
ATOM     23  C   UNL     1      -0.544  10.644  18.482  0.00  0.00    +0.000 C 
ATOM     24  C   UNL     1       0.700  10.091  19.154  0.00  0.00    +0.000 C 
ENDBRANCH  22  24
ENDBRANCH  20  22
ENDBRANCH  19  20
ENDBRANCH  17  19
ENDBRANCH  16  17
ENDBRANCH   1  16
TORSDOF 6
ENDMDL
MODEL 7
REMARK VINA RESULT:      -6.0      1.030      1.236
REMARK  Name = 
REMARK  9 active torsions:
REMARK  status: ('A' for Active; 'I' for Inactive)
REMARK    1  A    between atoms: C_1  and  C_2
REMARK    2  A    between atoms: C_2  and  O_3
REMARK    3  A    between atoms: O_3  and  C_4
REMARK    4  A    between atoms: C_4  and  C_6
REMARK    5  A    between atoms: C_6  and  N_7
REMARK    6  A    between atoms: N_7  and  C_8
REMARK    7  A    between atoms: N_7  and  C_9
REMARK    8  A    between atoms: C_9  and  C_10
REMARK    9  A    between atoms: N_15  and  C_16
REMARK                            x       y       z     vdW  Elec       q    Type
REMARK                         _______ _______ _______ _____ _____    ______ ____
ROOT
ATOM      1  C   UNL     1       5.762   5.503  16.805  0.00  0.00    +0.000 C 
ATOM      2  C   UNL     1       4.900   6.714  17.219  0.00  0.00    +0.000 C 
ATOM      3  C   UNL     1       3.522   6.309  17.768  0.00  0.00    +0.000 C 
ATOM      4  C   UNL     1       3.628   5.117  18.665  0.00  0.00    +0.000 A 
ATOM      5  C   UNL     1       4.773   4.342  18.781  0.00  0.00    +0.000 A 
ATOM      6  N   UNL     1       4.507   3.329  19.665  0.00  0.00    +0.000 N 
ATOM      7  C   UNL     1       5.397   2.247  20.036  0.00  0.00    +0.000 C 
ATOM      8  C   UNL     1       3.194   3.414  20.101  0.00  0.00    +0.000 A 
ATOM      9  C   UNL     1       2.455   2.601  20.974  0.00  0.00    +0.000 A 
ATOM     10  C   UNL     1       1.116   2.926  21.208  0.00  0.00    +0.000 A 
ATOM     11  C   UNL     1       0.530   4.029  20.593  0.00  0.00    +0.000 A 
ATOM     12  C   UNL     1       1.270   4.835  19.730  0.00  0.00    +0.000 A 
ATOM     13  C   UNL     1       2.621   4.531  19.479  0.00  0.00    +0.000 A 
ATOM     14  C   UNL     1       5.981   4.604  18.022  0.00  0.00    +0.000 C 
ATOM     15  O   UNL     1       7.084   4.130  18.276  0.00  0.00    +0.000 OA
ENDROOT
BRANCH   1  16
ATOM     16  C   UNL     1       5.152   4.650  15.668  0.00  0.00    +0.000 C 
BRANCH  16  17
ATOM     17  N   UNL     1       6.150   4.098  14.728  0.00  0.00    +0.000 NA
ATOM     18  C   UNL     1       7.349   4.946  14.706  0.00  0.00    +0.000 C 
BRANCH  17  19
ATOM     19  C   UNL     1       5.579   3.991  13.369  0.00  0.00    +0.000 C 
BRANCH  19  20
ATOM     20  C   UNL     1       6.614   3.652  12.307  0.00  0.00    +0.000 C 
ATOM     21  O   UNL     1       7.161   4.488  11.601  0.00  0.00    +0.000 OA
BRANCH  20  22
ATOM     22  O   UNL     1       6.724   2.300  12.167  0.00  0.00    +0.000 OA
BRANCH  22  24
ATOM     23  C   UNL     1       6.115   0.231  11.159  0.00  0.00    +0.000 C 
ATOM     24  C   UNL     1       5.783   1.709  11.265  0.00  0.00    +0.000 C 
ENDBRANCH  22  24
ENDBRANCH  20  22
ENDBRANCH  19  20
ENDBRANCH  17  19
ENDBRANCH  16  17
ENDBRANCH   1  16
TORSDOF 6
ENDMDL
MODEL 8
REMARK VINA RESULT:      -5.9      9.967     12.387
REMARK  Name = 
REMARK  9 active torsions:
REMARK  status: ('A' for Active; 'I' for Inactive)
REMARK    1  A    between atoms: C_1  and  C_2
REMARK    2  A    between atoms: C_2  and  O_3
REMARK    3  A    between atoms: O_3  and  C_4
REMARK    4  A    between atoms: C_4  and  C_6
REMARK    5  A    between atoms: C_6  and  N_7
REMARK    6  A    between atoms: N_7  and  C_8
REMARK    7  A    between atoms: N_7  and  C_9
REMARK    8  A    between atoms: C_9  and  C_10
REMARK    9  A    between atoms: N_15  and  C_16
REMARK                            x       y       z     vdW  Elec       q    Type
REMARK                         _______ _______ _______ _____ _____    ______ ____
ROOT
ATOM      1  C   UNL     1      -4.419  13.933  22.205  0.00  0.00    +0.000 C 
ATOM      2  C   UNL     1      -4.094  13.509  23.653  0.00  0.00    +0.000 C 
ATOM      3  C   UNL     1      -3.278  12.207  23.727  0.00  0.00    +0.000 C 
ATOM      4  C   UNL     1      -2.216  12.177  22.675  0.00  0.00    +0.000 A 
ATOM      5  C   UNL     1      -2.145  13.084  21.628  0.00  0.00    +0.000 A 
ATOM      6  N   UNL     1      -1.069  12.745  20.850  0.00  0.00    +0.000 N 
ATOM      7  C   UNL     1      -0.657  13.382  19.614  0.00  0.00    +0.000 C 
ATOM      8  C   UNL     1      -0.458  11.609  21.357  0.00  0.00    +0.000 A 
ATOM      9  C   UNL     1       0.646  10.871  20.902  0.00  0.00    +0.000 A 
ATOM     10  C   UNL     1       1.023   9.732  21.620  0.00  0.00    +0.000 A 
ATOM     11  C   UNL     1       0.324   9.341  22.759  0.00  0.00    +0.000 A 
ATOM     12  C   UNL     1      -0.768  10.080  23.208  0.00  0.00    +0.000 A 
ATOM     13  C   UNL     1      -1.168  11.232  22.504  0.00  0.00    +0.000 A 
ATOM     14  C   UNL     1      -3.114  14.146  21.439  0.00  0.00    +0.000 C 
ATOM     15  O   UNL     1      -2.954  15.119  20.708  0.00  0.00    +0.000 OA
ENDROOT
BRANCH   1  16
ATOM     16  C   UNL     1      -5.285  12.914  21.426  0.00  0.00    +0.000 C 
BRANCH  16  17
ATOM     17  N   UNL     1      -5.310  13.139  19.966  0.00  0.00    +0.000 NA
ATOM     18  C   UNL     1      -6.412  14.044  19.611  0.00  0.00    +0.000 C 
BRANCH  17  19
ATOM     19  C   UNL     1      -5.456  11.855  19.245  0.00  0.00    +0.000 C 
BRANCH  19  20
ATOM     20  C   UNL     1      -4.551  11.744  18.027  0.00  0.00    +0.000 C 
ATOM     21  O   UNL     1      -4.941  11.889  16.877  0.00  0.00    +0.000 OA
BRANCH  20  22
ATOM     22  O   UNL     1      -3.308  11.322  18.397  0.00  0.00    +0.000 OA
BRANCH  22  24
ATOM     23  C   UNL     1      -1.327  10.133  17.823  0.00  0.00    +0.000 C 
ATOM     24  C   UNL     1      -2.842  10.152  17.717  0.00  0.00    +0.000 C 
ENDBRANCH  22  24
ENDBRANCH  20  22
ENDBRANCH  19  20
ENDBRANCH  17  19
ENDBRANCH  16  17
ENDBRANCH   1  16
TORSDOF 6
ENDMDL
MODEL 9
REMARK VINA RESULT:      -5.9      4.115      6.283
REMARK  Name = 
REMARK  9 active torsions:
REMARK  status: ('A' for Active; 'I' for Inactive)
REMARK    1  A    between atoms: C_1  and  C_2
REMARK    2  A    between atoms: C_2  and  O_3
REMARK    3  A    between atoms: O_3  and  C_4
REMARK    4  A    between atoms: C_4  and  C_6
REMARK    5  A    between atoms: C_6  and  N_7
REMARK    6  A    between atoms: N_7  and  C_8
REMARK    7  A    between atoms: N_7  and  C_9
REMARK    8  A    between atoms: C_9  and  C_10
REMARK    9  A    between atoms: N_15  and  C_16
REMARK                            x       y       z     vdW  Elec       q    Type
REMARK                         _______ _______ _______ _____ _____    ______ ____
ROOT
ATOM      1  C   UNL     1       2.879   5.716  18.837  0.00  0.00    +0.000 C 
ATOM      2  C   UNL     1       1.732   5.122  19.681  0.00  0.00    +0.000 C 
ATOM      3  C   UNL     1       1.306   6.036  20.842  0.00  0.00    +0.000 C 
ATOM      4  C   UNL     1       1.262   7.468  20.412  0.00  0.00    +0.000 A 
ATOM      5  C   UNL     1       1.776   7.924  19.207  0.00  0.00    +0.000 A 
ATOM      6  N   UNL     1       1.586   9.280  19.156  0.00  0.00    +0.000 N 
ATOM      7  C   UNL     1       2.027  10.178  18.106  0.00  0.00    +0.000 C 
ATOM      8  C   UNL     1       0.986   9.719  20.325  0.00  0.00    +0.000 A 
ATOM      9  C   UNL     1       0.622  11.005  20.752  0.00  0.00    +0.000 A 
ATOM     10  C   UNL     1       0.048  11.145  22.019  0.00  0.00    +0.000 A 
ATOM     11  C   UNL     1      -0.161  10.037  22.836  0.00  0.00    +0.000 A 
ATOM     12  C   UNL     1       0.199   8.761  22.405  0.00  0.00    +0.000 A 
ATOM     13  C   UNL     1       0.778   8.593  21.133  0.00  0.00    +0.000 A 
ATOM     14  C   UNL     1       2.428   7.053  18.248  0.00  0.00    +0.000 C 
ATOM     15  O   UNL     1       2.653   7.343  17.077  0.00  0.00    +0.000 OA
ENDROOT
BRANCH   1  16
ATOM     16  C   UNL     1       4.191   5.945  19.624  0.00  0.00    +0.000 C 
BRANCH  16  17
ATOM     17  N   UNL     1       5.187   4.865  19.458  0.00  0.00    +0.000 NA
ATOM     18  C   UNL     1       6.432   5.406  18.894  0.00  0.00    +0.000 C 
BRANCH  17  19
ATOM     19  C   UNL     1       4.655   3.799  18.583  0.00  0.00    +0.000 C 
BRANCH  19  20
ATOM     20  C   UNL     1       4.435   2.480  19.309  0.00  0.00    +0.000 C 
ATOM     21  O   UNL     1       4.911   2.221  20.405  0.00  0.00    +0.000 OA
BRANCH  20  22
ATOM     22  O   UNL     1       3.769   1.602  18.505  0.00  0.00    +0.000 OA
BRANCH  22  24
ATOM     23  C   UNL     1       1.425   1.978  18.686  0.00  0.00    +0.000 C 
ATOM     24  C   UNL     1       2.649   2.156  17.805  0.00  0.00    +0.000 C 
ENDBRANCH  22  24
ENDBRANCH  20  22
ENDBRANCH  19  20
ENDBRANCH  17  19
ENDBRANCH  16  17
ENDBRANCH   1  16
TORSDOF 6
ENDMDL
