MODEL 1
REMARK VINA RESULT:      -6.1      0.000      0.000
REMARK  Name = 
REMARK  9 active torsions:
REMARK  status: ('A' for Active; 'I' for Inactive)
REMARK    1  A    between atoms: C_1  and  O_2
REMARK    2  A    between atoms: O_2  and  C_3
REMARK    3  A    between atoms: C_3  and  C_5
REMARK    4  A    between atoms: C_5  and  C_6
REMARK    5  A    between atoms: C_5  and  N_13
REMARK    6  A    between atoms: C_6  and  C_7
REMARK    7  A    between atoms: C_14  and  C_16
REMARK    8  A    between atoms: C_16  and  C_17
REMARK    9  A    between atoms: C_17  and  N_18
REMARK                            x       y       z     vdW  Elec       q    Type
REMARK                         _______ _______ _______ _____ _____    ______ ____
ROOT
ATOM      1  C   UNL     1       5.558   5.324  18.237  0.00  0.00    +0.000 C 
ENDROOT
BRANCH   1   2
ATOM      2  N   UNL     1       5.596   4.669  16.926  0.00  0.00    +0.000 N 
ATOM      3  C   UNL     1       5.282   5.340  15.771  0.00  0.00    +0.000 C 
ATOM      4  O   UNL     1       4.955   6.522  15.755  0.00  0.00    +0.000 OA
ATOM      5  H   UNL     1       6.036   3.752  16.893  0.00  0.00    +0.000 HD
BRANCH   3   6
ATOM      6  C   UNL     1       5.388   4.512  14.511  0.00  0.00    +0.000 C 
BRANCH   6   7
ATOM      7  C   UNL     1       6.836   4.445  14.048  0.00  0.00    +0.000 C 
BRANCH   7   8
ATOM      8  N   UNL     1       7.681   5.345  14.830  0.00  0.00    +0.000 NA
ATOM      9  H   UNL     1       8.565   5.504  14.350  0.00  0.00    +0.000 HD
ATOM     10  H   UNL     1       7.913   4.902  15.720  0.00  0.00    +0.000 HD
ENDBRANCH   7   8
ENDBRANCH   6   7
ENDBRANCH   3   6
ENDBRANCH   1   2
BRANCH   1  11
ATOM     11  C   UNL     1       6.928   5.633  18.859  0.00  0.00    +0.000 C 
ATOM     12  O   UNL     1       7.197   5.404  20.036  0.00  0.00    +0.000 OA
BRANCH  11  14
ATOM     13  C   UNL     1       7.675   7.563  17.776  0.00  0.00    +0.000 C 
ATOM     14  O   UNL     1       7.813   6.155  17.963  0.00  0.00    +0.000 OA
ENDBRANCH  11  14
ENDBRANCH   1  11
BRANCH   1  15
ATOM     15  C   UNL     1       4.730   4.509  19.244  0.00  0.00    +0.000 C 
BRANCH  15  16
ATOM     16  C   UNL     1       3.513   5.238  19.725  0.00  0.00    +0.000 A 
ATOM     17  N   UNL     1       3.327   6.565  19.364  0.00  0.00    +0.000 NA
ATOM     18  C   UNL     1       2.173   6.915  19.883  0.00  0.00    +0.000 A 
ATOM     19  N   UNL     1       1.596   5.882  20.563  0.00  0.00    +0.000 N 
ATOM     20  C   UNL     1       2.441   4.814  20.479  0.00  0.00    +0.000 A 
ATOM     21  I   UNL     1       2.091   2.991  21.296  0.00  0.00    +0.000 I 
ATOM     22  H   UNL     1       0.700   5.894  21.030  0.00  0.00    +0.000 HD
ENDBRANCH  15  16
ENDBRANCH   1  15
TORSDOF 8
ENDMDL
MODEL 2
REMARK VINA RESULT:      -6.1      1.708      2.013
REMARK  Name = 
REMARK  9 active torsions:
REMARK  status: ('A' for Active; 'I' for Inactive)
REMARK    1  A    between atoms: C_1  and  O_2
REMARK    2  A    between atoms: O_2  and  C_3
REMARK    3  A    between atoms: C_3  and  C_5
REMARK    4  A    between atoms: C_5  and  C_6
REMARK    5  A    between atoms: C_5  and  N_13
REMARK    6  A    between atoms: C_6  and  C_7
REMARK    7  A    between atoms: C_14  and  C_16
REMARK    8  A    between atoms: C_16  and  C_17
REMARK    9  A    between atoms: C_17  and  N_18
REMARK                            x       y       z     vdW  Elec       q    Type
REMARK                         _______ _______ _______ _____ _____    ______ ____
ROOT
ATOM      1  C   UNL     1       5.791   5.123  18.022  0.00  0.00    +0.000 C 
ENDROOT
BRANCH   1   2
ATOM      2  N   UNL     1       5.790   4.478  16.705  0.00  0.00    +0.000 N 
ATOM      3  C   UNL     1       5.487   5.168  15.559  0.00  0.00    +0.000 C 
ATOM      4  O   UNL     1       5.203   6.362  15.556  0.00  0.00    +0.000 OA
ATOM      5  H   UNL     1       6.195   3.546  16.660  0.00  0.00    +0.000 HD
BRANCH   3   6
ATOM      6  C   UNL     1       5.547   4.347  14.291  0.00  0.00    +0.000 C 
BRANCH   6   7
ATOM      7  C   UNL     1       6.872   4.578  13.580  0.00  0.00    +0.000 C 
BRANCH   7   8
ATOM      8  N   UNL     1       7.815   5.287  14.442  0.00  0.00    +0.000 NA
ATOM      9  H   UNL     1       8.443   5.860  13.879  0.00  0.00    +0.000 HD
ATOM     10  H   UNL     1       8.403   4.610  14.929  0.00  0.00    +0.000 HD
ENDBRANCH   7   8
ENDBRANCH   6   7
ENDBRANCH   3   6
ENDBRANCH   1   2
BRANCH   1  11
ATOM     11  C   UNL     1       7.162   5.614  18.512  0.00  0.00    +0.000 C 
ATOM     12  O   UNL     1       7.592   5.380  19.640  0.00  0.00    +0.000 OA
BRANCH  11  14
ATOM     13  C   UNL     1       7.620   7.709  17.587  0.00  0.00    +0.000 C 
ATOM     14  O   UNL     1       7.854   6.301  17.560  0.00  0.00    +0.000 OA
ENDBRANCH  11  14
ENDBRANCH   1  11
BRANCH   1  15
ATOM     15  C   UNL     1       5.181   4.206  19.094  0.00  0.00    +0.000 C 
BRANCH  15  16
ATOM     16  C   UNL     1       3.868   3.618  18.679  0.00  0.00    +0.000 A 
ATOM     17  N   UNL     1       3.845   2.599  17.737  0.00  0.00    +0.000 NA
ATOM     18  C   UNL     1       2.582   2.258  17.614  0.00  0.00    +0.000 A 
ATOM     19  N   UNL     1       1.781   3.004  18.429  0.00  0.00    +0.000 N 
ATOM     20  C   UNL     1       2.583   3.878  19.104  0.00  0.00    +0.000 A 
ATOM     21  I   UNL     1       1.935   5.228  20.470  0.00  0.00    +0.000 I 
ATOM     22  H   UNL     1       0.780   2.918  18.531  0.00  0.00    +0.000 HD
ENDBRANCH  15  16
ENDBRANCH   1  15
TORSDOF 8
ENDMDL
MODEL 3
REMARK VINA RESULT:      -5.9      1.560      3.436
REMARK  Name = 
REMARK  9 active torsions:
REMARK  status: ('A' for Active; 'I' for Inactive)
REMARK    1  A    between atoms: C_1  and  O_2
REMARK    2  A    between atoms: O_2  and  C_3
REMARK    3  A    between atoms: C_3  and  C_5
REMARK    4  A    between atoms: C_5  and  C_6
REMARK    5  A    between atoms: C_5  and  N_13
REMARK    6  A    between atoms: C_6  and  C_7
REMARK    7  A    between atoms: C_14  and  C_16
REMARK    8  A    between atoms: C_16  and  C_17
REMARK    9  A    between atoms: C_17  and  N_18
REMARK                            x       y       z     vdW  Elec       q    Type
REMARK                         _______ _______ _______ _____ _____    ______ ____
ROOT
ATOM      1  C   UNL     1       5.224   4.687  16.605  0.00  0.00    +0.000 C 
ENDROOT
BRANCH   1   2
ATOM      2  N   UNL     1       5.957   5.373  17.675  0.00  0.00    +0.000 N 
ATOM      3  C   UNL     1       7.309   5.217  17.843  0.00  0.00    +0.000 C 
ATOM      4  O   UNL     1       7.992   4.504  17.115  0.00  0.00    +0.000 OA
ATOM      5  H   UNL     1       5.450   6.103  18.171  0.00  0.00    +0.000 HD
BRANCH   3   6
ATOM      6  C   UNL     1       7.899   6.008  18.988  0.00  0.00    +0.000 C 
BRANCH   6   7
ATOM      7  C   UNL     1       8.188   7.435  18.543  0.00  0.00    +0.000 C 
BRANCH   7   8
ATOM      8  N   UNL     1       7.693   7.675  17.190  0.00  0.00    +0.000 NA
ATOM      9  H   UNL     1       7.816   6.842  16.617  0.00  0.00    +0.000 HD
ATOM     10  H   UNL     1       8.250   8.410  16.752  0.00  0.00    +0.000 HD
ENDBRANCH   7   8
ENDBRANCH   6   7
ENDBRANCH   3   6
ENDBRANCH   1   2
BRANCH   1  11
ATOM     11  C   UNL     1       5.189   5.422  15.257  0.00  0.00    +0.000 C 
ATOM     12  O   UNL     1       5.230   6.647  15.160  0.00  0.00    +0.000 OA
BRANCH  11  14
ATOM     13  C   UNL     1       6.322   3.790  14.027  0.00  0.00    +0.000 C 
ATOM     14  O   UNL     1       5.140   4.575  14.190  0.00  0.00    +0.000 OA
ENDBRANCH  11  14
ENDBRANCH   1  11
BRANCH   1  15
ATOM     15  C   UNL     1       3.782   4.367  17.032  0.00  0.00    +0.000 C 
BRANCH  15  16
ATOM     16  C   UNL     1       3.324   5.188  18.198  0.00  0.00    +0.000 A 
ATOM     17  N   UNL     1       3.181   6.560  18.051  0.00  0.00    +0.000 NA
ATOM     18  C   UNL     1       2.728   6.995  19.205  0.00  0.00    +0.000 A 
ATOM     19  N   UNL     1       2.566   5.973  20.096  0.00  0.00    +0.000 N 
ATOM     20  C   UNL     1       2.950   4.822  19.472  0.00  0.00    +0.000 A 
ATOM     21  I   UNL     1       2.909   2.978  20.316  0.00  0.00    +0.000 I 
ATOM     22  H   UNL     1       2.211   6.048  21.039  0.00  0.00    +0.000 HD
ENDBRANCH  15  16
ENDBRANCH   1  15
TORSDOF 8
ENDMDL
MODEL 4
REMARK VINA RESULT:      -5.9      1.920      3.759
REMARK  Name = 
REMARK  9 active torsions:
REMARK  status: ('A' for Active; 'I' for Inactive)
REMARK    1  A    between atoms: C_1  and  O_2
REMARK    2  A    between atoms: O_2  and  C_3
REMARK    3  A    between atoms: C_3  and  C_5
REMARK    4  A    between atoms: C_5  and  C_6
REMARK    5  A    between atoms: C_5  and  N_13
REMARK    6  A    between atoms: C_6  and  C_7
REMARK    7  A    between atoms: C_14  and  C_16
REMARK    8  A    between atoms: C_16  and  C_17
REMARK    9  A    between atoms: C_17  and  N_18
REMARK                            x       y       z     vdW  Elec       q    Type
REMARK                         _______ _______ _______ _____ _____    ______ ____
ROOT
ATOM      1  C   UNL     1       5.888   4.224  16.253  0.00  0.00    +0.000 C 
ENDROOT
BRANCH   1   2
ATOM      2  N   UNL     1       6.328   5.137  17.313  0.00  0.00    +0.000 N 
ATOM      3  C   UNL     1       7.547   5.000  17.928  0.00  0.00    +0.000 C 
ATOM      4  O   UNL     1       8.345   4.116  17.635  0.00  0.00    +0.000 OA
ATOM      5  H   UNL     1       5.769   5.977  17.444  0.00  0.00    +0.000 HD
BRANCH   3   6
ATOM      6  C   UNL     1       7.839   6.037  18.988  0.00  0.00    +0.000 C 
BRANCH   6   7
ATOM      7  C   UNL     1       7.981   7.412  18.350  0.00  0.00    +0.000 C 
BRANCH   7   8
ATOM      8  N   UNL     1       7.944   7.322  16.893  0.00  0.00    +0.000 NA
ATOM      9  H   UNL     1       8.156   8.229  16.479  0.00  0.00    +0.000 HD
ATOM     10  H   UNL     1       6.999   7.083  16.593  0.00  0.00    +0.000 HD
ENDBRANCH   7   8
ENDBRANCH   6   7
ENDBRANCH   3   6
ENDBRANCH   1   2
BRANCH   1  11
ATOM     11  C   UNL     1       6.368   4.579  14.838  0.00  0.00    +0.000 C 
ATOM     12  O   UNL     1       7.402   5.206  14.618  0.00  0.00    +0.000 OA
BRANCH  11  14
ATOM     13  C   UNL     1       6.244   3.583  12.728  0.00  0.00    +0.000 C 
ATOM     14  O   UNL     1       5.546   4.100  13.861  0.00  0.00    +0.000 OA
ENDBRANCH  11  14
ENDBRANCH   1  11
BRANCH   1  15
ATOM     15  C   UNL     1       4.357   4.084  16.236  0.00  0.00    +0.000 C 
BRANCH  15  16
ATOM     16  C   UNL     1       3.703   4.692  17.439  0.00  0.00    +0.000 A 
ATOM     17  N   UNL     1       3.596   6.072  17.531  0.00  0.00    +0.000 NA
ATOM     18  C   UNL     1       2.947   6.303  18.650  0.00  0.00    +0.000 A 
ATOM     19  N   UNL     1       2.625   5.142  19.291  0.00  0.00    +0.000 N 
ATOM     20  C   UNL     1       3.108   4.112  18.538  0.00  0.00    +0.000 A 
ATOM     21  I   UNL     1       2.910   2.147  18.998  0.00  0.00    +0.000 I 
ATOM     22  H   UNL     1       2.110   5.054  20.155  0.00  0.00    +0.000 HD
ENDBRANCH  15  16
ENDBRANCH   1  15
TORSDOF 8
ENDMDL
MODEL 5
REMARK VINA RESULT:      -5.8      2.359      4.198
REMARK  Name = 
REMARK  9 active torsions:
REMARK  status: ('A' for Active; 'I' for Inactive)
REMARK    1  A    between atoms: C_1  and  O_2
REMARK    2  A    between atoms: O_2  and  C_3
REMARK    3  A    between atoms: C_3  and  C_5
REMARK    4  A    between atoms: C_5  and  C_6
REMARK    5  A    between atoms: C_5  and  N_13
REMARK    6  A    between atoms: C_6  and  C_7
REMARK    7  A    between atoms: C_14  and  C_16
REMARK    8  A    between atoms: C_16  and  C_17
REMARK    9  A    between atoms: C_17  and  N_18
REMARK                            x       y       z     vdW  Elec       q    Type
REMARK                         _______ _______ _______ _____ _____    ______ ____
ROOT
ATOM      1  C   UNL     1       5.907   4.182  16.286  0.00  0.00    +0.000 C 
ENDROOT
BRANCH   1   2
ATOM      2  N   UNL     1       6.299   5.112  17.349  0.00  0.00    +0.000 N 
ATOM      3  C   UNL     1       7.501   5.002  18.002  0.00  0.00    +0.000 C 
ATOM      4  O   UNL     1       8.323   4.130  17.740  0.00  0.00    +0.000 OA
ATOM      5  H   UNL     1       5.722   5.943  17.457  0.00  0.00    +0.000 HD
BRANCH   3   6
ATOM      6  C   UNL     1       7.744   6.053  19.061  0.00  0.00    +0.000 C 
BRANCH   6   7
ATOM      7  C   UNL     1       8.259   7.333  18.419  0.00  0.00    +0.000 C 
BRANCH   7   8
ATOM      8  N   UNL     1       7.471   7.685  17.240  0.00  0.00    +0.000 NA
ATOM      9  H   UNL     1       6.500   7.848  17.502  0.00  0.00    +0.000 HD
ATOM     10  H   UNL     1       7.465   6.898  16.590  0.00  0.00    +0.000 HD
ENDBRANCH   7   8
ENDBRANCH   6   7
ENDBRANCH   3   6
ENDBRANCH   1   2
BRANCH   1  11
ATOM     11  C   UNL     1       6.436   4.524  14.885  0.00  0.00    +0.000 C 
ATOM     12  O   UNL     1       7.465   5.170  14.697  0.00  0.00    +0.000 OA
BRANCH  11  14
ATOM     13  C   UNL     1       6.407   3.642  12.722  0.00  0.00    +0.000 C 
ATOM     14  O   UNL     1       5.665   4.012  13.884  0.00  0.00    +0.000 OA
ENDBRANCH  11  14
ENDBRANCH   1  11
BRANCH   1  15
ATOM     15  C   UNL     1       4.379   4.029  16.214  0.00  0.00    +0.000 C 
BRANCH  15  16
ATOM     16  C   UNL     1       3.780   3.545  17.498  0.00  0.00    +0.000 A 
ATOM     17  N   UNL     1       3.832   2.193  17.807  0.00  0.00    +0.000 NA
ATOM     18  C   UNL     1       3.281   2.079  18.994  0.00  0.00    +0.000 A 
ATOM     19  N   UNL     1       2.875   3.290  19.475  0.00  0.00    +0.000 N 
ATOM     20  C   UNL     1       3.177   4.228  18.531  0.00  0.00    +0.000 A 
ATOM     21  I   UNL     1       2.811   6.215  18.713  0.00  0.00    +0.000 I 
ATOM     22  H   UNL     1       2.445   3.468  20.372  0.00  0.00    +0.000 HD
ENDBRANCH  15  16
ENDBRANCH   1  15
TORSDOF 8
ENDMDL
MODEL 6
REMARK VINA RESULT:      -5.8      2.535      3.904
REMARK  Name = 
REMARK  9 active torsions:
REMARK  status: ('A' for Active; 'I' for Inactive)
REMARK    1  A    between atoms: C_1  and  O_2
REMARK    2  A    between atoms: O_2  and  C_3
REMARK    3  A    between atoms: C_3  and  C_5
REMARK    4  A    between atoms: C_5  and  C_6
REMARK    5  A    between atoms: C_5  and  N_13
REMARK    6  A    between atoms: C_6  and  C_7
REMARK    7  A    between atoms: C_14  and  C_16
REMARK    8  A    between atoms: C_16  and  C_17
REMARK    9  A    between atoms: C_17  and  N_18
REMARK                            x       y       z     vdW  Elec       q    Type
REMARK                         _______ _______ _______ _____ _____    ______ ____
ROOT
ATOM      1  C   UNL     1       3.084   6.410  17.986  0.00  0.00    +0.000 C 
ENDROOT
BRANCH   1   2
ATOM      2  N   UNL     1       4.541   6.266  18.075  0.00  0.00    +0.000 N 
ATOM      3  C   UNL     1       5.349   6.378  16.972  0.00  0.00    +0.000 C 
ATOM      4  O   UNL     1       4.914   6.608  15.848  0.00  0.00    +0.000 OA
ATOM      5  H   UNL     1       4.936   6.256  19.012  0.00  0.00    +0.000 HD
BRANCH   3   6
ATOM      6  C   UNL     1       6.825   6.212  17.251  0.00  0.00    +0.000 C 
BRANCH   6   7
ATOM      7  C   UNL     1       7.167   4.736  17.400  0.00  0.00    +0.000 C 
BRANCH   7   8
ATOM      8  N   UNL     1       6.083   3.892  16.903  0.00  0.00    +0.000 NA
ATOM      9  H   UNL     1       6.143   2.962  17.316  0.00  0.00    +0.000 HD
ATOM     10  H   UNL     1       6.187   3.766  15.896  0.00  0.00    +0.000 HD
ENDBRANCH   7   8
ENDBRANCH   6   7
ENDBRANCH   3   6
ENDBRANCH   1   2
BRANCH   1  11
ATOM     11  C   UNL     1       2.555   7.845  18.134  0.00  0.00    +0.000 C 
ATOM     12  O   UNL     1       2.593   8.670  17.223  0.00  0.00    +0.000 OA
BRANCH  11  14
ATOM     13  C   UNL     1       1.238   9.285  19.418  0.00  0.00    +0.000 C 
ATOM     14  O   UNL     1       2.018   8.090  19.363  0.00  0.00    +0.000 OA
ENDBRANCH  11  14
ENDBRANCH   1  11
BRANCH   1  15
ATOM     15  C   UNL     1       2.370   5.512  19.009  0.00  0.00    +0.000 C 
BRANCH  15  16
ATOM     16  C   UNL     1       2.443   4.057  18.659  0.00  0.00    +0.000 A 
ATOM     17  N   UNL     1       2.781   3.684  17.366  0.00  0.00    +0.000 NA
ATOM     18  C   UNL     1       2.811   2.371  17.372  0.00  0.00    +0.000 A 
ATOM     19  N   UNL     1       2.510   1.870  18.606  0.00  0.00    +0.000 N 
ATOM     20  C   UNL     1       2.264   2.930  19.430  0.00  0.00    +0.000 A 
ATOM     21  I   UNL     1       1.779   2.783  21.393  0.00  0.00    +0.000 I 
ATOM     22  H   UNL     1       2.488   0.895  18.870  0.00  0.00    +0.000 HD
ENDBRANCH  15  16
ENDBRANCH   1  15
TORSDOF 8
ENDMDL
MODEL 7
REMARK VINA RESULT:      -5.7      2.986      5.543
REMARK  Name = 
REMARK  9 active torsions:
REMARK  status: ('A' for Active; 'I' for Inactive)
REMARK    1  A    between atoms: C_1  and  O_2
REMARK    2  A    between atoms: O_2  and  C_3
REMARK    3  A    between atoms: C_3  and  C_5
REMARK    4  A    between atoms: C_5  and  C_6
REMARK    5  A    between atoms: C_5  and  N_13
REMARK    6  A    between atoms: C_6  and  C_7
REMARK    7  A    between atoms: C_14  and  C_16
REMARK    8  A    between atoms: C_16  and  C_17
REMARK    9  A    between atoms: C_17  and  N_18
REMARK                            x       y       z     vdW  Elec       q    Type
REMARK                         _______ _______ _______ _____ _____    ______ ____
ROOT
ATOM      1  C   UNL     1       4.483   4.110  18.701  0.00  0.00    +0.000 C 
ENDROOT
BRANCH   1   2
ATOM      2  N   UNL     1       4.049   5.496  18.906  0.00  0.00    +0.000 N 
ATOM      3  C   UNL     1       2.878   5.975  18.377  0.00  0.00    +0.000 C 
ATOM      4  O   UNL     1       2.118   5.284  17.706  0.00  0.00    +0.000 OA
ATOM      5  H   UNL     1       4.563   6.030  19.603  0.00  0.00    +0.000 HD
BRANCH   3   6
ATOM      6  C   UNL     1       2.584   7.422  18.700  0.00  0.00    +0.000 C 
BRANCH   6   7
ATOM      7  C   UNL     1       1.989   7.536  20.096  0.00  0.00    +0.000 C 
BRANCH   7   8
ATOM      8  N   UNL     1       1.892   6.226  20.736  0.00  0.00    +0.000 NA
ATOM      9  H   UNL     1       2.310   6.256  21.664  0.00  0.00    +0.000 HD
ATOM     10  H   UNL     1       2.433   5.548  20.199  0.00  0.00    +0.000 HD
ENDBRANCH   7   8
ENDBRANCH   6   7
ENDBRANCH   3   6
ENDBRANCH   1   2
BRANCH   1  11
ATOM     11  C   UNL     1       4.043   3.116  19.786  0.00  0.00    +0.000 C 
ATOM     12  O   UNL     1       4.786   2.249  20.242  0.00  0.00    +0.000 OA
BRANCH  11  14
ATOM     13  C   UNL     1       2.484   2.757  21.488  0.00  0.00    +0.000 C 
ATOM     14  O   UNL     1       2.761   3.317  20.204  0.00  0.00    +0.000 OA
ENDBRANCH  11  14
ENDBRANCH   1  11
BRANCH   1  15
ATOM     15  C   UNL     1       6.009   4.021  18.538  0.00  0.00    +0.000 C 
BRANCH  15  16
ATOM     16  C   UNL     1       6.591   5.213  17.843  0.00  0.00    +0.000 A 
ATOM     17  N   UNL     1       7.141   6.240  18.598  0.00  0.00    +0.000 NA
ATOM     18  C   UNL     1       7.607   7.108  17.729  0.00  0.00    +0.000 A 
ATOM     19  N   UNL     1       7.390   6.697  16.446  0.00  0.00    +0.000 N 
ATOM     20  C   UNL     1       6.737   5.500  16.504  0.00  0.00    +0.000 A 
ATOM     21  I   UNL     1       6.169   4.411  14.891  0.00  0.00    +0.000 I 
ATOM     22  H   UNL     1       7.673   7.178  15.604  0.00  0.00    +0.000 HD
ENDBRANCH  15  16
ENDBRANCH   1  15
TORSDOF 8
ENDMDL
MODEL 8
REMARK VINA RESULT:      -5.7      1.389      1.665
REMARK  Name = 
REMARK  9 active torsions:
REMARK  status: ('A' for Active; 'I' for Inactive)
REMARK    1  A    between atoms: C_1  and  O_2
REMARK    2  A    between atoms: O_2  and  C_3
REMARK    3  A    between atoms: C_3  and  C_5
REMARK    4  A    between atoms: C_5  and  C_6
REMARK    5  A    between atoms: C_5  and  N_13
REMARK    6  A    between atoms: C_6  and  C_7
REMARK    7  A    between atoms: C_14  and  C_16
REMARK    8  A    between atoms: C_16  and  C_17
REMARK    9  A    between atoms: C_17  and  N_18
REMARK                            x       y       z     vdW  Elec       q    Type
REMARK                         _______ _______ _______ _____ _____    ______ ____
ROOT
ATOM      1  C   UNL     1       4.930   5.258  17.796  0.00  0.00    +0.000 C 
ENDROOT
BRANCH   1   2
ATOM      2  N   UNL     1       5.464   4.785  16.514  0.00  0.00    +0.000 N 
ATOM      3  C   UNL     1       6.438   5.473  15.836  0.00  0.00    +0.000 C 
ATOM      4  O   UNL     1       6.929   6.517  16.254  0.00  0.00    +0.000 OA
ATOM      5  H   UNL     1       5.207   3.839  16.241  0.00  0.00    +0.000 HD
BRANCH   3   6
ATOM      6  C   UNL     1       6.876   4.833  14.539  0.00  0.00    +0.000 C 
BRANCH   6   7
ATOM      7  C   UNL     1       5.762   3.957  13.985  0.00  0.00    +0.000 C 
BRANCH   7   8
ATOM      8  N   UNL     1       6.225   3.177  12.840  0.00  0.00    +0.000 NA
ATOM      9  H   UNL     1       7.243   3.158  12.816  0.00  0.00    +0.000 HD
ATOM     10  H   UNL     1       5.926   3.633  11.977  0.00  0.00    +0.000 HD
ENDBRANCH   7   8
ENDBRANCH   6   7
ENDBRANCH   3   6
ENDBRANCH   1   2
BRANCH   1  11
ATOM     11  C   UNL     1       5.619   4.687  19.045  0.00  0.00    +0.000 C 
ATOM     12  O   UNL     1       5.527   3.508  19.381  0.00  0.00    +0.000 OA
BRANCH  11  14
ATOM     13  C   UNL     1       7.745   5.600  19.365  0.00  0.00    +0.000 C 
ATOM     14  O   UNL     1       6.360   5.614  19.715  0.00  0.00    +0.000 OA
ENDBRANCH  11  14
ENDBRANCH   1  11
BRANCH   1  15
ATOM     15  C   UNL     1       3.419   4.998  17.902  0.00  0.00    +0.000 C 
BRANCH  15  16
ATOM     16  C   UNL     1       2.771   5.770  19.010  0.00  0.00    +0.000 A 
ATOM     17  N   UNL     1       2.673   7.151  18.911  0.00  0.00    +0.000 NA
ATOM     18  C   UNL     1       2.028   7.538  19.988  0.00  0.00    +0.000 A 
ATOM     19  N   UNL     1       1.699   6.478  20.783  0.00  0.00    +0.000 N 
ATOM     20  C   UNL     1       2.174   5.351  20.178  0.00  0.00    +0.000 A 
ATOM     21  I   UNL     1       1.963   3.469  20.905  0.00  0.00    +0.000 I 
ATOM     22  H   UNL     1       1.184   6.514  21.651  0.00  0.00    +0.000 HD
ENDBRANCH  15  16
ENDBRANCH   1  15
TORSDOF 8
ENDMDL
MODEL 9
REMARK VINA RESULT:      -5.7      1.105      1.117
REMARK  Name = 
REMARK  9 active torsions:
REMARK  status: ('A' for Active; 'I' for Inactive)
REMARK    1  A    between atoms: C_1  and  O_2
REMARK    2  A    between atoms: O_2  and  C_3
REMARK    3  A    between atoms: C_3  and  C_5
REMARK    4  A    between atoms: C_5  and  C_6
REMARK    5  A    between atoms: C_5  and  N_13
REMARK    6  A    between atoms: C_6  and  C_7
REMARK    7  A    between atoms: C_14  and  C_16
REMARK    8  A    between atoms: C_16  and  C_17
REMARK    9  A    between atoms: C_17  and  N_18
REMARK                            x       y       z     vdW  Elec       q    Type
REMARK                         _______ _______ _______ _____ _____    ______ ____
ROOT
ATOM      1  C   UNL     1       5.821   5.303  18.333  0.00  0.00    +0.000 C 
ENDROOT
BRANCH   1   2
ATOM      2  N   UNL     1       5.785   4.658  17.016  0.00  0.00    +0.000 N 
ATOM      3  C   UNL     1       5.321   5.310  15.902  0.00  0.00    +0.000 C 
ATOM      4  O   UNL     1       4.913   6.467  15.929  0.00  0.00    +0.000 OA
ATOM      5  H   UNL     1       6.281   3.774  16.934  0.00  0.00    +0.000 HD
BRANCH   3   6
ATOM      6  C   UNL     1       5.367   4.497  14.628  0.00  0.00    +0.000 C 
BRANCH   6   7
ATOM      7  C   UNL     1       6.786   4.470  14.076  0.00  0.00    +0.000 C 
BRANCH   7   8
ATOM      8  N   UNL     1       7.641   5.426  14.775  0.00  0.00    +0.000 NA
ATOM      9  H   UNL     1       7.246   5.649  15.688  0.00  0.00    +0.000 HD
ATOM     10  H   UNL     1       7.668   6.301  14.252  0.00  0.00    +0.000 HD
ENDBRANCH   7   8
ENDBRANCH   6   7
ENDBRANCH   3   6
ENDBRANCH   1   2
BRANCH   1  11
ATOM     11  C   UNL     1       7.214   5.735  18.815  0.00  0.00    +0.000 C 
ATOM     12  O   UNL     1       7.616   5.542  19.961  0.00  0.00    +0.000 OA
BRANCH  11  14
ATOM     13  C   UNL     1       7.711   7.718  17.686  0.00  0.00    +0.000 C 
ATOM     14  O   UNL     1       7.959   6.320  17.835  0.00  0.00    +0.000 OA
ENDBRANCH  11  14
ENDBRANCH   1  11
BRANCH   1  15
ATOM     15  C   UNL     1       5.179   4.412  19.409  0.00  0.00    +0.000 C 
BRANCH  15  16
ATOM     16  C   UNL     1       3.700   4.613  19.525  0.00  0.00    +0.000 A 
ATOM     17  N   UNL     1       3.214   5.736  20.179  0.00  0.00    +0.000 NA
ATOM     18  C   UNL     1       1.906   5.666  20.082  0.00  0.00    +0.000 A 
ATOM     19  N   UNL     1       1.515   4.553  19.394  0.00  0.00    +0.000 N 
ATOM     20  C   UNL     1       2.644   3.871  19.044  0.00  0.00    +0.000 A 
ATOM     21  I   UNL     1       2.670   2.138  17.990  0.00  0.00    +0.000 I 
ATOM     22  H   UNL     1       0.567   4.287  19.169  0.00  0.00    +0.000 HD
ENDBRANCH  15  16
ENDBRANCH   1  15
TORSDOF 8
ENDMDL
