MODEL 1
REMARK VINA RESULT:      -8.9      0.000      0.000
REMARK  Name = 
REMARK  4 active torsions:
REMARK  status: ('A' for Active; 'I' for Inactive)
REMARK    1  A    between atoms: C_7  and  C_8
REMARK    2  A    between atoms: C_11  and  N_12
REMARK    3  A    between atoms: N_12  and  S_13
REMARK    4  A    between atoms: S_13  and  C_16
REMARK                            x       y       z     vdW  Elec       q    Type
REMARK                         _______ _______ _______ _____ _____    ______ ____
ROOT
ATOM      1  C   UNL     1       2.515   7.483  18.674  0.00  0.00    +0.000 A 
ATOM      2  C   UNL     1       2.142   7.200  20.004  0.00  0.00    +0.000 A 
ATOM      3  C   UNL     1       1.205   7.989  20.690  0.00  0.00    +0.000 A 
ATOM      4  C   UNL     1       0.620   9.080  20.055  0.00  0.00    +0.000 A 
ATOM      5  C   UNL     1       0.959   9.380  18.742  0.00  0.00    +0.000 A 
ATOM      6  C   UNL     1       1.898   8.594  18.066  0.00  0.00    +0.000 A 
ENDROOT
BRANCH   1  13
ATOM      7  N   UNL     1       6.595   3.415  15.448  0.00  0.00    +0.000 N 
ATOM      8  C   UNL     1       6.383   4.655  15.899  0.00  0.00    +0.000 A 
ATOM      9  N   UNL     1       7.258   5.645  15.725  0.00  0.00    +0.000 NA
ATOM     10  N   UNL     1       6.673   6.701  16.326  0.00  0.00    +0.000 N 
ATOM     11  C   UNL     1       5.451   6.415  16.868  0.00  0.00    +0.000 A 
ATOM     12  N   UNL     1       4.639   7.262  17.521  0.00  0.00    +0.000 NA
ATOM     13  C   UNL     1       3.504   6.658  17.938  0.00  0.00    +0.000 A 
ATOM     14  N   UNL     1       3.181   5.351  17.745  0.00  0.00    +0.000 NA
ATOM     15  C   UNL     1       4.044   4.549  17.076  0.00  0.00    +0.000 A 
ATOM     16  C   UNL     1       5.236   5.078  16.607  0.00  0.00    +0.000 A 
ATOM     17  H   UNL     1       7.436   3.226  14.915  0.00  0.00    +0.000 HD
ATOM     18  H   UNL     1       5.934   2.654  15.517  0.00  0.00    +0.000 HD
ATOM     19  H   UNL     1       7.152   7.590  16.338  0.00  0.00    +0.000 HD
ENDBRANCH   1  13
BRANCH   4  20
ATOM     20  N   UNL     1      -0.363   9.869  20.697  0.00  0.00    +0.000 N 
ATOM     21  H   UNL     1      -1.315   9.515  20.779  0.00  0.00    +0.000 HD
BRANCH  20  22
ATOM     22  S   UNL     1       0.064  10.971  21.888  0.00  0.00    +0.000 S 
ATOM     23  O   UNL     1       0.257  10.218  23.109  0.00  0.00    +0.000 OA
ATOM     24  O   UNL     1       1.124  11.816  21.376  0.00  0.00    +0.000 OA
BRANCH  22  25
ATOM     25  C   UNL     1      -1.375  11.963  22.104  0.00  0.00    +0.000 A 
ATOM     26  C   UNL     1      -2.165  11.807  23.249  0.00  0.00    +0.000 A 
ATOM     27  C   UNL     1      -3.327  12.566  23.383  0.00  0.00    +0.000 A 
ATOM     28 CL   UNL     1      -4.316  12.373  24.776  0.00  0.00    +0.000 Cl
ATOM     29  C   UNL     1      -3.699  13.475  22.392  0.00  0.00    +0.000 A 
ATOM     30  C   UNL     1      -2.905  13.622  21.251  0.00  0.00    +0.000 A 
ATOM     31  C   UNL     1      -1.746  12.860  21.111  0.00  0.00    +0.000 A 
ATOM     32  F   UNL     1      -1.002  13.030  20.011  0.00  0.00    +0.000 F 
ENDBRANCH  22  25
ENDBRANCH  20  22
ENDBRANCH   4  20
TORSDOF 4
ENDMDL
MODEL 2
REMARK VINA RESULT:      -8.7      3.678      4.606
REMARK  Name = 
REMARK  4 active torsions:
REMARK  status: ('A' for Active; 'I' for Inactive)
REMARK    1  A    between atoms: C_7  and  C_8
REMARK    2  A    between atoms: C_11  and  N_12
REMARK    3  A    between atoms: N_12  and  S_13
REMARK    4  A    between atoms: S_13  and  C_16
REMARK                            x       y       z     vdW  Elec       q    Type
REMARK                         _______ _______ _______ _____ _____    ______ ____
ROOT
ATOM      1  C   UNL     1       1.976   7.676  19.358  0.00  0.00    +0.000 A 
ATOM      2  C   UNL     1       1.377   8.436  20.383  0.00  0.00    +0.000 A 
ATOM      3  C   UNL     1       0.848   9.714  20.139  0.00  0.00    +0.000 A 
ATOM      4  C   UNL     1       0.909  10.257  18.859  0.00  0.00    +0.000 A 
ATOM      5  C   UNL     1       1.485   9.530  17.825  0.00  0.00    +0.000 A 
ATOM      6  C   UNL     1       2.015   8.260  18.075  0.00  0.00    +0.000 A 
ENDROOT
BRANCH   1  13
ATOM      7  N   UNL     1       4.802   1.748  20.047  0.00  0.00    +0.000 N 
ATOM      8  C   UNL     1       3.879   2.603  20.498  0.00  0.00    +0.000 A 
ATOM      9  N   UNL     1       3.076   2.321  21.523  0.00  0.00    +0.000 NA
ATOM     10  N   UNL     1       2.307   3.424  21.642  0.00  0.00    +0.000 N 
ATOM     11  C   UNL     1       2.604   4.398  20.731  0.00  0.00    +0.000 A 
ATOM     12  N   UNL     1       2.013   5.598  20.611  0.00  0.00    +0.000 NA
ATOM     13  C   UNL     1       2.539   6.325  19.600  0.00  0.00    +0.000 A 
ATOM     14  N   UNL     1       3.544   5.929  18.775  0.00  0.00    +0.000 NA
ATOM     15  C   UNL     1       4.100   4.706  18.949  0.00  0.00    +0.000 A 
ATOM     16  C   UNL     1       3.629   3.886  19.963  0.00  0.00    +0.000 A 
ATOM     17  H   UNL     1       4.927   0.865  20.529  0.00  0.00    +0.000 HD
ATOM     18  H   UNL     1       5.461   1.945  19.307  0.00  0.00    +0.000 HD
ATOM     19  H   UNL     1       1.597   3.455  22.360  0.00  0.00    +0.000 HD
ENDBRANCH   1  13
BRANCH   4  20
ATOM     20  N   UNL     1       0.344  11.520  18.566  0.00  0.00    +0.000 N 
ATOM     21  H   UNL     1       0.459  11.917  17.634  0.00  0.00    +0.000 HD
BRANCH  20  22
ATOM     22  S   UNL     1      -1.023  12.058  19.376  0.00  0.00    +0.000 S 
ATOM     23  O   UNL     1      -1.140  11.261  20.579  0.00  0.00    +0.000 OA
ATOM     24  O   UNL     1      -0.971  13.504  19.459  0.00  0.00    +0.000 OA
BRANCH  22  25
ATOM     25  C   UNL     1      -2.361  11.616  18.320  0.00  0.00    +0.000 A 
ATOM     26  C   UNL     1      -2.103  11.080  17.054  0.00  0.00    +0.000 A 
ATOM     27  C   UNL     1      -3.171  10.778  16.210  0.00  0.00    +0.000 A 
ATOM     28 CL   UNL     1      -2.869  10.135  14.645  0.00  0.00    +0.000 Cl
ATOM     29  C   UNL     1      -4.486  11.004  16.622  0.00  0.00    +0.000 A 
ATOM     30  C   UNL     1      -4.734  11.541  17.888  0.00  0.00    +0.000 A 
ATOM     31  C   UNL     1      -3.667  11.849  18.732  0.00  0.00    +0.000 A 
ATOM     32  F   UNL     1      -3.937  12.355  19.941  0.00  0.00    +0.000 F 
ENDBRANCH  22  25
ENDBRANCH  20  22
ENDBRANCH   4  20
TORSDOF 4
ENDMDL
MODEL 3
REMARK VINA RESULT:      -8.6      5.269      9.634
REMARK  Name = 
REMARK  4 active torsions:
REMARK  status: ('A' for Active; 'I' for Inactive)
REMARK    1  A    between atoms: C_7  and  C_8
REMARK    2  A    between atoms: C_11  and  N_12
REMARK    3  A    between atoms: N_12  and  S_13
REMARK    4  A    between atoms: S_13  and  C_16
REMARK                            x       y       z     vdW  Elec       q    Type
REMARK                         _______ _______ _______ _____ _____    ______ ____
ROOT
ATOM      1  C   UNL     1       2.219   7.668  19.113  0.00  0.00    +0.000 A 
ATOM      2  C   UNL     1       2.347   6.319  19.504  0.00  0.00    +0.000 A 
ATOM      3  C   UNL     1       3.044   5.388  18.717  0.00  0.00    +0.000 A 
ATOM      4  C   UNL     1       3.628   5.790  17.520  0.00  0.00    +0.000 A 
ATOM      5  C   UNL     1       3.527   7.114  17.112  0.00  0.00    +0.000 A 
ATOM      6  C   UNL     1       2.828   8.036  17.896  0.00  0.00    +0.000 A 
ENDROOT
BRANCH   1  13
ATOM      7  N   UNL     1      -1.058  12.399  22.351  0.00  0.00    +0.000 N 
ATOM      8  C   UNL     1      -0.502  11.185  22.413  0.00  0.00    +0.000 A 
ATOM      9  N   UNL     1      -0.502  10.448  23.523  0.00  0.00    +0.000 NA
ATOM     10  N   UNL     1       0.154   9.325  23.163  0.00  0.00    +0.000 N 
ATOM     11  C   UNL     1       0.561   9.323  21.858  0.00  0.00    +0.000 A 
ATOM     12  N   UNL     1       1.228   8.346  21.222  0.00  0.00    +0.000 NA
ATOM     13  C   UNL     1       1.486   8.663  19.934  0.00  0.00    +0.000 A 
ATOM     14  N   UNL     1       1.135   9.822  19.313  0.00  0.00    +0.000 NA
ATOM     15  C   UNL     1       0.462  10.767  20.011  0.00  0.00    +0.000 A 
ATOM     16  C   UNL     1       0.148  10.533  21.341  0.00  0.00    +0.000 A 
ATOM     17  H   UNL     1      -1.536  12.759  23.169  0.00  0.00    +0.000 HD
ATOM     18  H   UNL     1      -1.121  12.964  21.516  0.00  0.00    +0.000 HD
ATOM     19  H   UNL     1       0.295   8.596  23.847  0.00  0.00    +0.000 HD
ENDBRANCH   1  13
BRANCH   4  20
ATOM     20  N   UNL     1       4.378   4.891  16.726  0.00  0.00    +0.000 N 
ATOM     21  H   UNL     1       3.911   4.097  16.290  0.00  0.00    +0.000 HD
BRANCH  20  22
ATOM     22  S   UNL     1       5.757   5.405  15.919  0.00  0.00    +0.000 S 
ATOM     23  O   UNL     1       6.429   4.218  15.435  0.00  0.00    +0.000 OA
ATOM     24  O   UNL     1       5.386   6.462  14.999  0.00  0.00    +0.000 OA
BRANCH  22  25
ATOM     25  C   UNL     1       6.767   6.104  17.180  0.00  0.00    +0.000 A 
ATOM     26  C   UNL     1       7.177   7.439  17.087  0.00  0.00    +0.000 A 
ATOM     27  C   UNL     1       8.016   7.965  18.068  0.00  0.00    +0.000 A 
ATOM     28 CL   UNL     1       8.542   9.598  17.957  0.00  0.00    +0.000 Cl
ATOM     29  C   UNL     1       8.442   7.173  19.136  0.00  0.00    +0.000 A 
ATOM     30  C   UNL     1       8.028   5.841  19.220  0.00  0.00    +0.000 A 
ATOM     31  C   UNL     1       7.194   5.310  18.237  0.00  0.00    +0.000 A 
ATOM     32  F   UNL     1       6.810   4.033  18.350  0.00  0.00    +0.000 F 
ENDBRANCH  22  25
ENDBRANCH  20  22
ENDBRANCH   4  20
TORSDOF 4
ENDMDL
MODEL 4
REMARK VINA RESULT:      -8.5      1.317      1.632
REMARK  Name = 
REMARK  4 active torsions:
REMARK  status: ('A' for Active; 'I' for Inactive)
REMARK    1  A    between atoms: C_7  and  C_8
REMARK    2  A    between atoms: C_11  and  N_12
REMARK    3  A    between atoms: N_12  and  S_13
REMARK    4  A    between atoms: S_13  and  C_16
REMARK                            x       y       z     vdW  Elec       q    Type
REMARK                         _______ _______ _______ _____ _____    ______ ____
ROOT
ATOM      1  C   UNL     1       2.439   7.700  18.503  0.00  0.00    +0.000 A 
ATOM      2  C   UNL     1       2.099   7.570  19.865  0.00  0.00    +0.000 A 
ATOM      3  C   UNL     1       1.175   8.432  20.479  0.00  0.00    +0.000 A 
ATOM      4  C   UNL     1       0.572   9.443  19.738  0.00  0.00    +0.000 A 
ATOM      5  C   UNL     1       0.878   9.592  18.392  0.00  0.00    +0.000 A 
ATOM      6  C   UNL     1       1.803   8.734  17.787  0.00  0.00    +0.000 A 
ENDROOT
BRANCH   1  13
ATOM      7  N   UNL     1       6.443   3.298  15.642  0.00  0.00    +0.000 N 
ATOM      8  C   UNL     1       6.254   4.575  15.986  0.00  0.00    +0.000 A 
ATOM      9  N   UNL     1       7.148   5.530  15.731  0.00  0.00    +0.000 NA
ATOM     10  N   UNL     1       6.583   6.644  16.240  0.00  0.00    +0.000 N 
ATOM     11  C   UNL     1       5.356   6.428  16.801  0.00  0.00    +0.000 A 
ATOM     12  N   UNL     1       4.559   7.342  17.378  0.00  0.00    +0.000 NA
ATOM     13  C   UNL     1       3.412   6.797  17.841  0.00  0.00    +0.000 A 
ATOM     14  N   UNL     1       3.064   5.485  17.758  0.00  0.00    +0.000 NA
ATOM     15  C   UNL     1       3.912   4.613  17.162  0.00  0.00    +0.000 A 
ATOM     16  C   UNL     1       5.115   5.078  16.653  0.00  0.00    +0.000 A 
ATOM     17  H   UNL     1       7.281   3.049  15.129  0.00  0.00    +0.000 HD
ATOM     18  H   UNL     1       5.768   2.558  15.773  0.00  0.00    +0.000 HD
ATOM     19  H   UNL     1       7.079   7.521  16.178  0.00  0.00    +0.000 HD
ENDBRANCH   1  13
BRANCH   4  20
ATOM     20  N   UNL     1      -0.399  10.299  20.310  0.00  0.00    +0.000 N 
ATOM     21  H   UNL     1      -1.159   9.899  20.859  0.00  0.00    +0.000 HD
BRANCH  20  22
ATOM     22  S   UNL     1      -0.013  11.880  20.720  0.00  0.00    +0.000 S 
ATOM     23  O   UNL     1       1.111  11.817  21.630  0.00  0.00    +0.000 OA
ATOM     24  O   UNL     1       0.073  12.663  19.504  0.00  0.00    +0.000 OA
BRANCH  22  25
ATOM     25  C   UNL     1      -1.404  12.445  21.641  0.00  0.00    +0.000 A 
ATOM     26  C   UNL     1      -2.101  13.584  21.223  0.00  0.00    +0.000 A 
ATOM     27  C   UNL     1      -3.171  14.048  21.988  0.00  0.00    +0.000 A 
ATOM     28 CL   UNL     1      -4.025  15.456  21.497  0.00  0.00    +0.000 Cl
ATOM     29  C   UNL     1      -3.548  13.382  23.156  0.00  0.00    +0.000 A 
ATOM     30  C   UNL     1      -2.845  12.246  23.566  0.00  0.00    +0.000 A 
ATOM     31  C   UNL     1      -1.771  11.784  22.806  0.00  0.00    +0.000 A 
ATOM     32  F   UNL     1      -1.122  10.689  23.221  0.00  0.00    +0.000 F 
ENDBRANCH  22  25
ENDBRANCH  20  22
ENDBRANCH   4  20
TORSDOF 4
ENDMDL
MODEL 5
REMARK VINA RESULT:      -8.4      0.951      1.163
REMARK  Name = 
REMARK  4 active torsions:
REMARK  status: ('A' for Active; 'I' for Inactive)
REMARK    1  A    between atoms: C_7  and  C_8
REMARK    2  A    between atoms: C_11  and  N_12
REMARK    3  A    between atoms: N_12  and  S_13
REMARK    4  A    between atoms: S_13  and  C_16
REMARK                            x       y       z     vdW  Elec       q    Type
REMARK                         _______ _______ _______ _____ _____    ______ ____
ROOT
ATOM      1  C   UNL     1       2.858   7.515  18.737  0.00  0.00    +0.000 A 
ATOM      2  C   UNL     1       2.428   7.072  20.005  0.00  0.00    +0.000 A 
ATOM      3  C   UNL     1       1.409   7.732  20.710  0.00  0.00    +0.000 A 
ATOM      4  C   UNL     1       0.798   8.853  20.158  0.00  0.00    +0.000 A 
ATOM      5  C   UNL     1       1.192   9.311  18.907  0.00  0.00    +0.000 A 
ATOM      6  C   UNL     1       2.211   8.652  18.211  0.00  0.00    +0.000 A 
ENDROOT
BRANCH   1  13
ATOM      7  N   UNL     1       7.505   4.733  14.961  0.00  0.00    +0.000 N 
ATOM      8  C   UNL     1       6.942   4.797  16.172  0.00  0.00    +0.000 A 
ATOM      9  N   UNL     1       7.353   4.052  17.197  0.00  0.00    +0.000 NA
ATOM     10  N   UNL     1       6.530   4.411  18.204  0.00  0.00    +0.000 N 
ATOM     11  C   UNL     1       5.618   5.366  17.853  0.00  0.00    +0.000 A 
ATOM     12  N   UNL     1       4.681   5.916  18.641  0.00  0.00    +0.000 NA
ATOM     13  C   UNL     1       3.933   6.828  17.981  0.00  0.00    +0.000 A 
ATOM     14  N   UNL     1       4.074   7.177  16.674  0.00  0.00    +0.000 NA
ATOM     15  C   UNL     1       5.040   6.584  15.932  0.00  0.00    +0.000 A 
ATOM     16  C   UNL     1       5.861   5.636  16.522  0.00  0.00    +0.000 A 
ATOM     17  H   UNL     1       8.304   4.125  14.825  0.00  0.00    +0.000 HD
ATOM     18  H   UNL     1       7.255   5.317  14.175  0.00  0.00    +0.000 HD
ATOM     19  H   UNL     1       6.636   3.971  19.108  0.00  0.00    +0.000 HD
ENDBRANCH   1  13
BRANCH   4  20
ATOM     20  N   UNL     1      -0.265   9.515  20.817  0.00  0.00    +0.000 N 
ATOM     21  H   UNL     1      -1.151   9.030  20.951  0.00  0.00    +0.000 HD
BRANCH  20  22
ATOM     22  S   UNL     1       0.043  10.710  21.953  0.00  0.00    +0.000 S 
ATOM     23  O   UNL     1       0.213  10.046  23.228  0.00  0.00    +0.000 OA
ATOM     24  O   UNL     1       1.081  11.581  21.438  0.00  0.00    +0.000 OA
BRANCH  22  25
ATOM     25  C   UNL     1      -1.455  11.632  22.037  0.00  0.00    +0.000 A 
ATOM     26  C   UNL     1      -2.172  11.692  23.237  0.00  0.00    +0.000 A 
ATOM     27  C   UNL     1      -3.381  12.386  23.275  0.00  0.00    +0.000 A 
ATOM     28 CL   UNL     1      -4.281  12.454  24.739  0.00  0.00    +0.000 Cl
ATOM     29  C   UNL     1      -3.872  13.019  22.132  0.00  0.00    +0.000 A 
ATOM     30  C   UNL     1      -3.150  12.952  20.938  0.00  0.00    +0.000 A 
ATOM     31  C   UNL     1      -1.944  12.253  20.894  0.00  0.00    +0.000 A 
ATOM     32  F   UNL     1      -1.272  12.214  19.737  0.00  0.00    +0.000 F 
ENDBRANCH  22  25
ENDBRANCH  20  22
ENDBRANCH   4  20
TORSDOF 4
ENDMDL
MODEL 6
REMARK VINA RESULT:      -8.4      5.425      9.838
REMARK  Name = 
REMARK  4 active torsions:
REMARK  status: ('A' for Active; 'I' for Inactive)
REMARK    1  A    between atoms: C_7  and  C_8
REMARK    2  A    between atoms: C_11  and  N_12
REMARK    3  A    between atoms: N_12  and  S_13
REMARK    4  A    between atoms: S_13  and  C_16
REMARK                            x       y       z     vdW  Elec       q    Type
REMARK                         _______ _______ _______ _____ _____    ______ ____
ROOT
ATOM      1  C   UNL     1       1.491   8.469  19.613  0.00  0.00    +0.000 A 
ATOM      2  C   UNL     1       2.306   8.047  18.543  0.00  0.00    +0.000 A 
ATOM      3  C   UNL     1       2.945   6.797  18.553  0.00  0.00    +0.000 A 
ATOM      4  C   UNL     1       2.780   5.942  19.638  0.00  0.00    +0.000 A 
ATOM      5  C   UNL     1       1.976   6.324  20.704  0.00  0.00    +0.000 A 
ATOM      6  C   UNL     1       1.346   7.573  20.692  0.00  0.00    +0.000 A 
ENDROOT
BRANCH   1  13
ATOM      7  N   UNL     1      -1.852  14.151  19.994  0.00  0.00    +0.000 N 
ATOM      8  C   UNL     1      -0.855  13.480  19.408  0.00  0.00    +0.000 A 
ATOM      9  N   UNL     1      -0.085  14.015  18.462  0.00  0.00    +0.000 NA
ATOM     10  N   UNL     1       0.769  13.021  18.142  0.00  0.00    +0.000 N 
ATOM     11  C   UNL     1       0.571  11.877  18.862  0.00  0.00    +0.000 A 
ATOM     12  N   UNL     1       1.266  10.732  18.765  0.00  0.00    +0.000 NA
ATOM     13  C   UNL     1       0.809   9.787  19.616  0.00  0.00    +0.000 A 
ATOM     14  N   UNL     1      -0.229   9.931  20.483  0.00  0.00    +0.000 NA
ATOM     15  C   UNL     1      -0.889  11.113  20.533  0.00  0.00    +0.000 A 
ATOM     16  C   UNL     1      -0.492  12.146  19.698  0.00  0.00    +0.000 A 
ATOM     17  H   UNL     1      -2.004  15.120  19.741  0.00  0.00    +0.000 HD
ATOM     18  H   UNL     1      -2.423  13.796  20.748  0.00  0.00    +0.000 HD
ATOM     19  H   UNL     1       1.464  13.179  17.426  0.00  0.00    +0.000 HD
ENDBRANCH   1  13
BRANCH   4  20
ATOM     20  N   UNL     1       3.369   4.656  19.662  0.00  0.00    +0.000 N 
ATOM     21  H   UNL     1       3.433   4.150  20.544  0.00  0.00    +0.000 HD
BRANCH  20  22
ATOM     22  S   UNL     1       3.330   3.669  18.305  0.00  0.00    +0.000 S 
ATOM     23  O   UNL     1       3.461   2.305  18.772  0.00  0.00    +0.000 OA
ATOM     24  O   UNL     1       2.198   4.056  17.486  0.00  0.00    +0.000 OA
BRANCH  22  25
ATOM     25  C   UNL     1       4.804   4.069  17.429  0.00  0.00    +0.000 A 
ATOM     26  C   UNL     1       4.851   3.924  16.039  0.00  0.00    +0.000 A 
ATOM     27  C   UNL     1       6.040   4.199  15.364  0.00  0.00    +0.000 A 
ATOM     28 CL   UNL     1       6.117   4.009  13.657  0.00  0.00    +0.000 Cl
ATOM     29  C   UNL     1       7.172   4.619  16.064  0.00  0.00    +0.000 A 
ATOM     30  C   UNL     1       7.116   4.759  17.454  0.00  0.00    +0.000 A 
ATOM     31  C   UNL     1       5.931   4.479  18.132  0.00  0.00    +0.000 A 
ATOM     32  F   UNL     1       5.907   4.630  19.461  0.00  0.00    +0.000 F 
ENDBRANCH  22  25
ENDBRANCH  20  22
ENDBRANCH   4  20
TORSDOF 4
ENDMDL
MODEL 7
REMARK VINA RESULT:      -8.3      0.851      1.244
REMARK  Name = 
REMARK  4 active torsions:
REMARK  status: ('A' for Active; 'I' for Inactive)
REMARK    1  A    between atoms: C_7  and  C_8
REMARK    2  A    between atoms: C_11  and  N_12
REMARK    3  A    between atoms: N_12  and  S_13
REMARK    4  A    between atoms: S_13  and  C_16
REMARK                            x       y       z     vdW  Elec       q    Type
REMARK                         _______ _______ _______ _____ _____    ______ ____
ROOT
ATOM      1  C   UNL     1       2.261   7.989  18.838  0.00  0.00    +0.000 A 
ATOM      2  C   UNL     1       1.642   9.034  18.122  0.00  0.00    +0.000 A 
ATOM      3  C   UNL     1       0.638   9.829  18.699  0.00  0.00    +0.000 A 
ATOM      4  C   UNL     1       0.233   9.592  20.008  0.00  0.00    +0.000 A 
ATOM      5  C   UNL     1       0.829   8.577  20.745  0.00  0.00    +0.000 A 
ATOM      6  C   UNL     1       1.825   7.784  20.163  0.00  0.00    +0.000 A 
ENDROOT
BRANCH   1  13
ATOM      7  N   UNL     1       6.961   3.924  16.607  0.00  0.00    +0.000 N 
ATOM      8  C   UNL     1       6.219   5.009  16.367  0.00  0.00    +0.000 A 
ATOM      9  N   UNL     1       6.329   5.724  15.248  0.00  0.00    +0.000 NA
ATOM     10  N   UNL     1       5.428   6.715  15.410  0.00  0.00    +0.000 N 
ATOM     11  C   UNL     1       4.745   6.647  16.592  0.00  0.00    +0.000 A 
ATOM     12  N   UNL     1       3.792   7.488  17.023  0.00  0.00    +0.000 NA
ATOM     13  C   UNL     1       3.322   7.141  18.242  0.00  0.00    +0.000 A 
ATOM     14  N   UNL     1       3.737   6.079  18.983  0.00  0.00    +0.000 NA
ATOM     15  C   UNL     1       4.703   5.267  18.489  0.00  0.00    +0.000 A 
ATOM     16  C   UNL     1       5.246   5.539  17.244  0.00  0.00    +0.000 A 
ATOM     17  H   UNL     1       7.604   3.604  15.892  0.00  0.00    +0.000 HD
ATOM     18  H   UNL     1       6.871   3.329  17.419  0.00  0.00    +0.000 HD
ATOM     19  H   UNL     1       5.324   7.410  14.685  0.00  0.00    +0.000 HD
ENDBRANCH   1  13
BRANCH   4  20
ATOM     20  N   UNL     1      -0.740  10.403  20.639  0.00  0.00    +0.000 N 
ATOM     21  H   UNL     1      -1.718  10.117  20.622  0.00  0.00    +0.000 HD
BRANCH  20  22
ATOM     22  S   UNL     1      -0.332  11.377  21.943  0.00  0.00    +0.000 S 
ATOM     23  O   UNL     1      -0.103  10.498  23.070  0.00  0.00    +0.000 OA
ATOM     24  O   UNL     1       0.697  12.306  21.520  0.00  0.00    +0.000 OA
BRANCH  22  25
ATOM     25  C   UNL     1      -1.796  12.295  22.280  0.00  0.00    +0.000 A 
ATOM     26  C   UNL     1      -2.571  11.984  23.403  0.00  0.00    +0.000 A 
ATOM     27  C   UNL     1      -3.753  12.688  23.632  0.00  0.00    +0.000 A 
ATOM     28 CL   UNL     1      -4.724  12.306  24.999  0.00  0.00    +0.000 Cl
ATOM     29  C   UNL     1      -4.161  13.694  22.754  0.00  0.00    +0.000 A 
ATOM     30  C   UNL     1      -3.381  13.995  21.634  0.00  0.00    +0.000 A 
ATOM     31  C   UNL     1      -2.202  13.289  21.399  0.00  0.00    +0.000 A 
ATOM     32  F   UNL     1      -1.474  13.606  20.322  0.00  0.00    +0.000 F 
ENDBRANCH  22  25
ENDBRANCH  20  22
ENDBRANCH   4  20
TORSDOF 4
ENDMDL
MODEL 8
REMARK VINA RESULT:      -8.3      1.398      1.883
REMARK  Name = 
REMARK  4 active torsions:
REMARK  status: ('A' for Active; 'I' for Inactive)
REMARK    1  A    between atoms: C_7  and  C_8
REMARK    2  A    between atoms: C_11  and  N_12
REMARK    3  A    between atoms: N_12  and  S_13
REMARK    4  A    between atoms: S_13  and  C_16
REMARK                            x       y       z     vdW  Elec       q    Type
REMARK                         _______ _______ _______ _____ _____    ______ ____
ROOT
ATOM      1  C   UNL     1       2.472   7.617  18.526  0.00  0.00    +0.000 A 
ATOM      2  C   UNL     1       1.870   8.719  17.886  0.00  0.00    +0.000 A 
ATOM      3  C   UNL     1       0.949   9.544  18.551  0.00  0.00    +0.000 A 
ATOM      4  C   UNL     1       0.612   9.281  19.875  0.00  0.00    +0.000 A 
ATOM      5  C   UNL     1       1.194   8.208  20.537  0.00  0.00    +0.000 A 
ATOM      6  C   UNL     1       2.107   7.386  19.868  0.00  0.00    +0.000 A 
ENDROOT
BRANCH   1  13
ATOM      7  N   UNL     1       6.480   3.311  15.526  0.00  0.00    +0.000 N 
ATOM      8  C   UNL     1       6.292   4.576  15.915  0.00  0.00    +0.000 A 
ATOM      9  N   UNL     1       7.190   5.537  15.700  0.00  0.00    +0.000 NA
ATOM     10  N   UNL     1       6.624   6.633  16.247  0.00  0.00    +0.000 N 
ATOM     11  C   UNL     1       5.394   6.400  16.793  0.00  0.00    +0.000 A 
ATOM     12  N   UNL     1       4.597   7.295  17.399  0.00  0.00    +0.000 NA
ATOM     13  C   UNL     1       3.447   6.736  17.837  0.00  0.00    +0.000 A 
ATOM     14  N   UNL     1       3.096   5.429  17.704  0.00  0.00    +0.000 NA
ATOM     15  C   UNL     1       3.945   4.577  17.081  0.00  0.00    +0.000 A 
ATOM     16  C   UNL     1       5.150   5.057  16.595  0.00  0.00    +0.000 A 
ATOM     17  H   UNL     1       7.319   3.079  15.008  0.00  0.00    +0.000 HD
ATOM     18  H   UNL     1       5.802   2.569  15.627  0.00  0.00    +0.000 HD
ATOM     19  H   UNL     1       7.123   7.511  16.219  0.00  0.00    +0.000 HD
ENDBRANCH   1  13
BRANCH   4  20
ATOM     20  N   UNL     1      -0.275  10.119  20.592  0.00  0.00    +0.000 N 
ATOM     21  H   UNL     1      -1.243   9.828  20.724  0.00  0.00    +0.000 HD
BRANCH  20  22
ATOM     22  S   UNL     1       0.298  11.160  21.776  0.00  0.00    +0.000 S 
ATOM     23  O   UNL     1       0.506  10.368  22.969  0.00  0.00    +0.000 OA
ATOM     24  O   UNL     1       1.384  11.941  21.218  0.00  0.00    +0.000 OA
BRANCH  22  25
ATOM     25  C   UNL     1      -1.052  12.246  22.095  0.00  0.00    +0.000 A 
ATOM     26  C   UNL     1      -1.102  13.499  21.475  0.00  0.00    +0.000 A 
ATOM     27  C   UNL     1      -2.152  14.366  21.773  0.00  0.00    +0.000 A 
ATOM     28 CL   UNL     1      -2.216  15.916  21.031  0.00  0.00    +0.000 Cl
ATOM     29  C   UNL     1      -3.146  13.991  22.678  0.00  0.00    +0.000 A 
ATOM     30  C   UNL     1      -3.087  12.738  23.293  0.00  0.00    +0.000 A 
ATOM     31  C   UNL     1      -2.035  11.871  23.002  0.00  0.00    +0.000 A 
ATOM     32  F   UNL     1      -2.011  10.675  23.602  0.00  0.00    +0.000 F 
ENDBRANCH  22  25
ENDBRANCH  20  22
ENDBRANCH   4  20
TORSDOF 4
ENDMDL
MODEL 9
REMARK VINA RESULT:      -8.3      0.750      1.184
REMARK  Name = 
REMARK  4 active torsions:
REMARK  status: ('A' for Active; 'I' for Inactive)
REMARK    1  A    between atoms: C_7  and  C_8
REMARK    2  A    between atoms: C_11  and  N_12
REMARK    3  A    between atoms: N_12  and  S_13
REMARK    4  A    between atoms: S_13  and  C_16
REMARK                            x       y       z     vdW  Elec       q    Type
REMARK                         _______ _______ _______ _____ _____    ______ ____
ROOT
ATOM      1  C   UNL     1       2.324   7.763  18.544  0.00  0.00    +0.000 A 
ATOM      2  C   UNL     1       1.727   8.843  17.861  0.00  0.00    +0.000 A 
ATOM      3  C   UNL     1       0.818   9.704  18.497  0.00  0.00    +0.000 A 
ATOM      4  C   UNL     1       0.488   9.500  19.833  0.00  0.00    +0.000 A 
ATOM      5  C   UNL     1       1.065   8.450  20.536  0.00  0.00    +0.000 A 
ATOM      6  C   UNL     1       1.965   7.592  19.897  0.00  0.00    +0.000 A 
ENDROOT
BRANCH   1  13
ATOM      7  N   UNL     1       6.287   3.291  15.734  0.00  0.00    +0.000 N 
ATOM      8  C   UNL     1       6.087   4.582  16.019  0.00  0.00    +0.000 A 
ATOM      9  N   UNL     1       6.948   5.538  15.674  0.00  0.00    +0.000 NA
ATOM     10  N   UNL     1       6.382   6.666  16.149  0.00  0.00    +0.000 N 
ATOM     11  C   UNL     1       5.187   6.457  16.777  0.00  0.00    +0.000 A 
ATOM     12  N   UNL     1       4.398   7.386  17.342  0.00  0.00    +0.000 NA
ATOM     13  C   UNL     1       3.285   6.845  17.885  0.00  0.00    +0.000 A 
ATOM     14  N   UNL     1       2.962   5.523  17.888  0.00  0.00    +0.000 NA
ATOM     15  C   UNL     1       3.801   4.637  17.299  0.00  0.00    +0.000 A 
ATOM     16  C   UNL     1       4.968   5.097  16.711  0.00  0.00    +0.000 A 
ATOM     17  H   UNL     1       7.106   3.031  15.196  0.00  0.00    +0.000 HD
ATOM     18  H   UNL     1       5.635   2.546  15.935  0.00  0.00    +0.000 HD
ATOM     19  H   UNL     1       6.857   7.549  16.019  0.00  0.00    +0.000 HD
ENDBRANCH   1  13
BRANCH   4  20
ATOM     20  N   UNL     1      -0.386  10.375  20.520  0.00  0.00    +0.000 N 
ATOM     21  H   UNL     1      -1.377  10.145  20.585  0.00  0.00    +0.000 HD
BRANCH  20  22
ATOM     22  S   UNL     1       0.178  11.346  21.767  0.00  0.00    +0.000 S 
ATOM     23  O   UNL     1       0.062  10.575  22.986  0.00  0.00    +0.000 OA
ATOM     24  O   UNL     1       1.456  11.905  21.375  0.00  0.00    +0.000 OA
BRANCH  22  25
ATOM     25  C   UNL     1      -0.991  12.660  21.863  0.00  0.00    +0.000 A 
ATOM     26  C   UNL     1      -1.682  12.894  23.057  0.00  0.00    +0.000 A 
ATOM     27  C   UNL     1      -2.638  13.907  23.104  0.00  0.00    +0.000 A 
ATOM     28 CL   UNL     1      -3.507  14.195  24.559  0.00  0.00    +0.000 Cl
ATOM     29  C   UNL     1      -2.905  14.684  21.975  0.00  0.00    +0.000 A 
ATOM     30  C   UNL     1      -2.211  14.441  20.786  0.00  0.00    +0.000 A 
ATOM     31  C   UNL     1      -1.258  13.425  20.734  0.00  0.00    +0.000 A 
ATOM     32  F   UNL     1      -0.606  13.222  19.584  0.00  0.00    +0.000 F 
ENDBRANCH  22  25
ENDBRANCH  20  22
ENDBRANCH   4  20
TORSDOF 4
ENDMDL
