MODEL 1
REMARK VINA RESULT:      -7.4      0.000      0.000
REMARK  Name = 
REMARK  12 active torsions:
REMARK  status: ('A' for Active; 'I' for Inactive)
REMARK    1  A    between atoms: C_1  and  N_2
REMARK    2  A    between atoms: C_5  and  C_6
REMARK    3  A    between atoms: C_5  and  C_7
REMARK    4  A    between atoms: C_10  and  C_11
REMARK    5  A    between atoms: C_11  and  C_13
REMARK    6  A    between atoms: C_13  and  C_14
REMARK    7  A    between atoms: C_14  and  C_15
REMARK    8  A    between atoms: C_15  and  C_16
REMARK    9  A    between atoms: C_20  and  C_21
REMARK   10  A    between atoms: C_21  and  C_22
REMARK   11  A    between atoms: C_21  and  C_23
REMARK   12  A    between atoms: C_21  and  C_24
REMARK                            x       y       z     vdW  Elec       q    Type
REMARK                         _______ _______ _______ _____ _____    ______ ____
ROOT
ATOM      1  C   UNL     1       4.577   2.416  18.916  0.00  0.00    +0.000 C 
ATOM      2  N   UNL     1       4.458   3.536  17.978  0.00  0.00    +0.000 N 
ATOM      3  C   UNL     1       5.461   3.430  16.915  0.00  0.00    +0.000 C 
ATOM      4  C   UNL     1       6.446   4.561  16.995  0.00  0.00    +0.000 C 
ATOM      5  C   UNL     1       5.718   5.863  16.669  0.00  0.00    +0.000 C 
ATOM      6  C   UNL     1       6.709   7.009  16.986  0.00  0.00    +0.000 C 
ATOM      7  C   UNL     1       5.365   5.920  15.164  0.00  0.00    +0.000 C 
ATOM      8  C   UNL     1       4.418   5.955  17.494  0.00  0.00    +0.000 A 
ATOM      9  C   UNL     1       3.805   7.241  17.530  0.00  0.00    +0.000 A 
ATOM     10  C   UNL     1       2.661   7.471  18.260  0.00  0.00    +0.000 A 
ATOM     11  C   UNL     1       2.149   6.400  18.951  0.00  0.00    +0.000 A 
ATOM     12  C   UNL     1       2.688   5.059  18.955  0.00  0.00    +0.000 A 
ATOM     13  C   UNL     1       3.867   4.799  18.182  0.00  0.00    +0.000 A 
ENDROOT
BRANCH  12  14
ATOM     14  C   UNL     1       1.841   4.015  19.729  0.00  0.00    +0.000 C 
ATOM     15  C   UNL     1       0.743   4.708  20.568  0.00  0.00    +0.000 C 
ATOM     16  C   UNL     1       1.285   2.968  18.720  0.00  0.00    +0.000 C 
ATOM     17  C   UNL     1       2.583   3.208  20.814  0.00  0.00    +0.000 C 
ENDBRANCH  12  14
BRANCH  10  18
ATOM     18  C   UNL     1       1.988   8.798  18.331  0.00  0.00    +0.000 C 
ATOM     19  O   UNL     1       2.147   9.615  17.414  0.00  0.00    +0.000 OA
BRANCH  18  20
ATOM     20  C   UNL     1       1.087   9.118  19.509  0.00  0.00    +0.000 C 
BRANCH  20  21
ATOM     21  C   UNL     1       0.249  10.377  19.308  0.00  0.00    +0.000 C 
BRANCH  21  22
ATOM     22  C   UNL     1      -0.386  10.838  20.625  0.00  0.00    +0.000 C 
BRANCH  22  23
ATOM     23  C   UNL     1       0.100  10.148  21.860  0.00  0.00    +0.000 C 
ATOM     24  C   UNL     1      -0.719  10.362  23.111  0.00  0.00    +0.000 C 
ATOM     25  C   UNL     1      -0.576   8.976  22.552  0.00  0.00    +0.000 C 
ENDBRANCH  22  23
ENDBRANCH  21  22
ENDBRANCH  20  21
ENDBRANCH  18  20
ENDBRANCH  10  18
TORSDOF 6
ENDMDL
MODEL 2
REMARK VINA RESULT:      -7.4      1.312      2.059
REMARK  Name = 
REMARK  12 active torsions:
REMARK  status: ('A' for Active; 'I' for Inactive)
REMARK    1  A    between atoms: C_1  and  N_2
REMARK    2  A    between atoms: C_5  and  C_6
REMARK    3  A    between atoms: C_5  and  C_7
REMARK    4  A    between atoms: C_10  and  C_11
REMARK    5  A    between atoms: C_11  and  C_13
REMARK    6  A    between atoms: C_13  and  C_14
REMARK    7  A    between atoms: C_14  and  C_15
REMARK    8  A    between atoms: C_15  and  C_16
REMARK    9  A    between atoms: C_20  and  C_21
REMARK   10  A    between atoms: C_21  and  C_22
REMARK   11  A    between atoms: C_21  and  C_23
REMARK   12  A    between atoms: C_21  and  C_24
REMARK                            x       y       z     vdW  Elec       q    Type
REMARK                         _______ _______ _______ _____ _____    ______ ____
ROOT
ATOM      1  C   UNL     1       4.487   2.431  18.870  0.00  0.00    +0.000 C 
ATOM      2  N   UNL     1       4.414   3.562  17.941  0.00  0.00    +0.000 N 
ATOM      3  C   UNL     1       5.436   3.441  16.897  0.00  0.00    +0.000 C 
ATOM      4  C   UNL     1       6.446   4.548  17.009  0.00  0.00    +0.000 C 
ATOM      5  C   UNL     1       5.757   5.870  16.681  0.00  0.00    +0.000 C 
ATOM      6  C   UNL     1       6.768   6.989  17.029  0.00  0.00    +0.000 C 
ATOM      7  C   UNL     1       5.437   5.949  15.170  0.00  0.00    +0.000 C 
ATOM      8  C   UNL     1       4.442   5.985  17.480  0.00  0.00    +0.000 A 
ATOM      9  C   UNL     1       3.859   7.285  17.516  0.00  0.00    +0.000 A 
ATOM     10  C   UNL     1       2.706   7.536  18.224  0.00  0.00    +0.000 A 
ATOM     11  C   UNL     1       2.154   6.471  18.894  0.00  0.00    +0.000 A 
ATOM     12  C   UNL     1       2.661   5.118  18.896  0.00  0.00    +0.000 A 
ATOM     13  C   UNL     1       3.850   4.836  18.144  0.00  0.00    +0.000 A 
ENDROOT
BRANCH  12  14
ATOM     14  C   UNL     1       1.773   4.087  19.642  0.00  0.00    +0.000 C 
ATOM     15  C   UNL     1       0.695   4.799  20.490  0.00  0.00    +0.000 C 
ATOM     16  C   UNL     1       1.187   3.083  18.607  0.00  0.00    +0.000 C 
ATOM     17  C   UNL     1       2.480   3.231  20.713  0.00  0.00    +0.000 C 
ENDBRANCH  12  14
BRANCH  10  18
ATOM     18  C   UNL     1       2.063   8.878  18.295  0.00  0.00    +0.000 C 
ATOM     19  O   UNL     1       2.253   9.696  17.384  0.00  0.00    +0.000 OA
BRANCH  18  20
ATOM     20  C   UNL     1       1.156   9.213  19.463  0.00  0.00    +0.000 C 
BRANCH  20  21
ATOM     21  C   UNL     1       0.142  10.309  19.150  0.00  0.00    +0.000 C 
BRANCH  21  22
ATOM     22  C   UNL     1      -0.762   9.910  17.978  0.00  0.00    +0.000 C 
BRANCH  22  23
ATOM     23  C   UNL     1      -2.208  10.271  18.117  0.00  0.00    +0.000 C 
ATOM     24  C   UNL     1      -2.764  11.213  17.075  0.00  0.00    +0.000 C 
ATOM     25  C   UNL     1      -3.330   9.828  17.194  0.00  0.00    +0.000 C 
ENDBRANCH  22  23
ENDBRANCH  21  22
ENDBRANCH  20  21
ENDBRANCH  18  20
ENDBRANCH  10  18
TORSDOF 6
ENDMDL
MODEL 3
REMARK VINA RESULT:      -7.2      1.702      2.409
REMARK  Name = 
REMARK  12 active torsions:
REMARK  status: ('A' for Active; 'I' for Inactive)
REMARK    1  A    between atoms: C_1  and  N_2
REMARK    2  A    between atoms: C_5  and  C_6
REMARK    3  A    between atoms: C_5  and  C_7
REMARK    4  A    between atoms: C_10  and  C_11
REMARK    5  A    between atoms: C_11  and  C_13
REMARK    6  A    between atoms: C_13  and  C_14
REMARK    7  A    between atoms: C_14  and  C_15
REMARK    8  A    between atoms: C_15  and  C_16
REMARK    9  A    between atoms: C_20  and  C_21
REMARK   10  A    between atoms: C_21  and  C_22
REMARK   11  A    between atoms: C_21  and  C_23
REMARK   12  A    between atoms: C_21  and  C_24
REMARK                            x       y       z     vdW  Elec       q    Type
REMARK                         _______ _______ _______ _____ _____    ______ ____
ROOT
ATOM      1  C   UNL     1       4.628   2.303  18.325  0.00  0.00    +0.000 C 
ATOM      2  N   UNL     1       4.397   3.572  17.630  0.00  0.00    +0.000 N 
ATOM      3  C   UNL     1       5.331   3.725  16.510  0.00  0.00    +0.000 C 
ATOM      4  C   UNL     1       6.269   4.874  16.750  0.00  0.00    +0.000 C 
ATOM      5  C   UNL     1       5.465   6.172  16.723  0.00  0.00    +0.000 C 
ATOM      6  C   UNL     1       6.424   7.291  17.198  0.00  0.00    +0.000 C 
ATOM      7  C   UNL     1       5.011   6.493  15.280  0.00  0.00    +0.000 C 
ATOM      8  C   UNL     1       4.220   6.033  17.624  0.00  0.00    +0.000 A 
ATOM      9  C   UNL     1       3.555   7.252  17.942  0.00  0.00    +0.000 A 
ATOM     10  C   UNL     1       2.453   7.277  18.766  0.00  0.00    +0.000 A 
ATOM     11  C   UNL     1       2.035   6.067  19.266  0.00  0.00    +0.000 A 
ATOM     12  C   UNL     1       2.632   4.782  18.981  0.00  0.00    +0.000 A 
ATOM     13  C   UNL     1       3.767   4.739  18.106  0.00  0.00    +0.000 A 
ENDROOT
BRANCH  12  14
ATOM     14  C   UNL     1       1.884   3.564  19.586  0.00  0.00    +0.000 C 
ATOM     15  C   UNL     1       1.339   2.643  18.471  0.00  0.00    +0.000 C 
ATOM     16  C   UNL     1       2.828   2.838  20.588  0.00  0.00    +0.000 C 
ATOM     17  C   UNL     1       0.594   3.881  20.370  0.00  0.00    +0.000 C 
ENDBRANCH  12  14
BRANCH  10  18
ATOM     18  C   UNL     1       1.729   8.526  19.130  0.00  0.00    +0.000 C 
ATOM     19  O   UNL     1       1.630   8.852  20.321  0.00  0.00    +0.000 OA
BRANCH  18  20
ATOM     20  C   UNL     1       1.152   9.403  18.035  0.00  0.00    +0.000 C 
BRANCH  20  21
ATOM     21  C   UNL     1      -0.123  10.131  18.449  0.00  0.00    +0.000 C 
BRANCH  21  22
ATOM     22  C   UNL     1      -1.231   9.948  17.406  0.00  0.00    +0.000 C 
BRANCH  22  23
ATOM     23  C   UNL     1      -2.633  10.071  17.914  0.00  0.00    +0.000 C 
ATOM     24  C   UNL     1      -3.141  11.476  18.139  0.00  0.00    +0.000 C 
ATOM     25  C   UNL     1      -3.823  10.597  17.130  0.00  0.00    +0.000 C 
ENDBRANCH  22  23
ENDBRANCH  21  22
ENDBRANCH  20  21
ENDBRANCH  18  20
ENDBRANCH  10  18
TORSDOF 6
ENDMDL
MODEL 4
REMARK VINA RESULT:      -7.2      0.645      1.110
REMARK  Name = 
REMARK  12 active torsions:
REMARK  status: ('A' for Active; 'I' for Inactive)
REMARK    1  A    between atoms: C_1  and  N_2
REMARK    2  A    between atoms: C_5  and  C_6
REMARK    3  A    between atoms: C_5  and  C_7
REMARK    4  A    between atoms: C_10  and  C_11
REMARK    5  A    between atoms: C_11  and  C_13
REMARK    6  A    between atoms: C_13  and  C_14
REMARK    7  A    between atoms: C_14  and  C_15
REMARK    8  A    between atoms: C_15  and  C_16
REMARK    9  A    between atoms: C_20  and  C_21
REMARK   10  A    between atoms: C_21  and  C_22
REMARK   11  A    between atoms: C_21  and  C_23
REMARK   12  A    between atoms: C_21  and  C_24
REMARK                            x       y       z     vdW  Elec       q    Type
REMARK                         _______ _______ _______ _____ _____    ______ ____
ROOT
ATOM      1  C   UNL     1       4.504   2.882  19.544  0.00  0.00    +0.000 C 
ATOM      2  N   UNL     1       4.449   3.857  18.452  0.00  0.00    +0.000 N 
ATOM      3  C   UNL     1       5.505   3.593  17.470  0.00  0.00    +0.000 C 
ATOM      4  C   UNL     1       6.501   4.718  17.441  0.00  0.00    +0.000 C 
ATOM      5  C   UNL     1       5.810   5.965  16.894  0.00  0.00    +0.000 C 
ATOM      6  C   UNL     1       6.799   7.138  17.098  0.00  0.00    +0.000 C 
ATOM      7  C   UNL     1       5.537   5.809  15.380  0.00  0.00    +0.000 C 
ATOM      8  C   UNL     1       4.470   6.182  17.627  0.00  0.00    +0.000 A 
ATOM      9  C   UNL     1       3.873   7.464  17.447  0.00  0.00    +0.000 A 
ATOM     10  C   UNL     1       2.697   7.804  18.073  0.00  0.00    +0.000 A 
ATOM     11  C   UNL     1       2.133   6.846  18.881  0.00  0.00    +0.000 A 
ATOM     12  C   UNL     1       2.653   5.516  19.105  0.00  0.00    +0.000 A 
ATOM     13  C   UNL     1       3.867   5.140  18.441  0.00  0.00    +0.000 A 
ENDROOT
BRANCH  12  14
ATOM     14  C   UNL     1       1.751   4.598  19.972  0.00  0.00    +0.000 C 
ATOM     15  C   UNL     1       1.239   3.393  19.151  0.00  0.00    +0.000 C 
ATOM     16  C   UNL     1       2.530   4.190  21.255  0.00  0.00    +0.000 C 
ATOM     17  C   UNL     1       0.423   5.216  20.458  0.00  0.00    +0.000 C 
ENDBRANCH  12  14
BRANCH  10  18
ATOM     18  C   UNL     1       2.039   9.132  17.918  0.00  0.00    +0.000 C 
ATOM     19  O   UNL     1       2.639  10.048  17.338  0.00  0.00    +0.000 OA
BRANCH  18  20
ATOM     20  C   UNL     1       0.630   9.335  18.443  0.00  0.00    +0.000 C 
BRANCH  20  21
ATOM     21  C   UNL     1       0.557  10.288  19.632  0.00  0.00    +0.000 C 
BRANCH  21  22
ATOM     22  C   UNL     1      -0.175   9.644  20.815  0.00  0.00    +0.000 C 
BRANCH  22  23
ATOM     23  C   UNL     1       0.148  10.203  22.165  0.00  0.00    +0.000 C 
ATOM     24  C   UNL     1      -1.031  10.525  23.054  0.00  0.00    +0.000 C 
ATOM     25  C   UNL     1      -0.037   9.489  23.493  0.00  0.00    +0.000 C 
ENDBRANCH  22  23
ENDBRANCH  21  22
ENDBRANCH  20  21
ENDBRANCH  18  20
ENDBRANCH  10  18
TORSDOF 6
ENDMDL
MODEL 5
REMARK VINA RESULT:      -7.2      1.712      2.523
REMARK  Name = 
REMARK  12 active torsions:
REMARK  status: ('A' for Active; 'I' for Inactive)
REMARK    1  A    between atoms: C_1  and  N_2
REMARK    2  A    between atoms: C_5  and  C_6
REMARK    3  A    between atoms: C_5  and  C_7
REMARK    4  A    between atoms: C_10  and  C_11
REMARK    5  A    between atoms: C_11  and  C_13
REMARK    6  A    between atoms: C_13  and  C_14
REMARK    7  A    between atoms: C_14  and  C_15
REMARK    8  A    between atoms: C_15  and  C_16
REMARK    9  A    between atoms: C_20  and  C_21
REMARK   10  A    between atoms: C_21  and  C_22
REMARK   11  A    between atoms: C_21  and  C_23
REMARK   12  A    between atoms: C_21  and  C_24
REMARK                            x       y       z     vdW  Elec       q    Type
REMARK                         _______ _______ _______ _____ _____    ______ ____
ROOT
ATOM      1  C   UNL     1       4.644   2.313  18.452  0.00  0.00    +0.000 C 
ATOM      2  N   UNL     1       4.425   3.572  17.735  0.00  0.00    +0.000 N 
ATOM      3  C   UNL     1       5.367   3.703  16.620  0.00  0.00    +0.000 C 
ATOM      4  C   UNL     1       6.310   4.850  16.849  0.00  0.00    +0.000 C 
ATOM      5  C   UNL     1       5.513   6.152  16.796  0.00  0.00    +0.000 C 
ATOM      6  C   UNL     1       6.475   7.273  17.260  0.00  0.00    +0.000 C 
ATOM      7  C   UNL     1       5.071   6.453  15.346  0.00  0.00    +0.000 C 
ATOM      8  C   UNL     1       4.262   6.034  17.690  0.00  0.00    +0.000 A 
ATOM      9  C   UNL     1       3.601   7.262  17.985  0.00  0.00    +0.000 A 
ATOM     10  C   UNL     1       2.494   7.305  18.801  0.00  0.00    +0.000 A 
ATOM     11  C   UNL     1       2.066   6.105  19.316  0.00  0.00    +0.000 A 
ATOM     12  C   UNL     1       2.657   4.813  19.056  0.00  0.00    +0.000 A 
ATOM     13  C   UNL     1       3.798   4.750  18.189  0.00  0.00    +0.000 A 
ENDROOT
BRANCH  12  14
ATOM     14  C   UNL     1       1.899   3.609  19.674  0.00  0.00    +0.000 C 
ATOM     15  C   UNL     1       2.820   2.801  20.615  0.00  0.00    +0.000 C 
ATOM     16  C   UNL     1       0.604   4.127  20.365  0.00  0.00    +0.000 C 
ATOM     17  C   UNL     1       1.444   2.513  18.687  0.00  0.00    +0.000 C 
ENDBRANCH  12  14
BRANCH  10  18
ATOM     18  C   UNL     1       1.774   8.564  19.140  0.00  0.00    +0.000 C 
ATOM     19  O   UNL     1       1.496   8.810  20.322  0.00  0.00    +0.000 OA
BRANCH  18  20
ATOM     20  C   UNL     1       1.423   9.546  18.038  0.00  0.00    +0.000 C 
BRANCH  20  21
ATOM     21  C   UNL     1       0.297  10.503  18.415  0.00  0.00    +0.000 C 
BRANCH  21  22
ATOM     22  C   UNL     1      -1.077   9.865  18.178  0.00  0.00    +0.000 C 
BRANCH  22  23
ATOM     23  C   UNL     1      -2.004  10.626  17.284  0.00  0.00    +0.000 C 
ATOM     24  C   UNL     1      -2.668   9.835  16.181  0.00  0.00    +0.000 C 
ATOM     25  C   UNL     1      -3.516  10.483  17.237  0.00  0.00    +0.000 C 
ENDBRANCH  22  23
ENDBRANCH  21  22
ENDBRANCH  20  21
ENDBRANCH  18  20
ENDBRANCH  10  18
TORSDOF 6
ENDMDL
MODEL 6
REMARK VINA RESULT:      -7.0      1.080      1.749
REMARK  Name = 
REMARK  12 active torsions:
REMARK  status: ('A' for Active; 'I' for Inactive)
REMARK    1  A    between atoms: C_1  and  N_2
REMARK    2  A    between atoms: C_5  and  C_6
REMARK    3  A    between atoms: C_5  and  C_7
REMARK    4  A    between atoms: C_10  and  C_11
REMARK    5  A    between atoms: C_11  and  C_13
REMARK    6  A    between atoms: C_13  and  C_14
REMARK    7  A    between atoms: C_14  and  C_15
REMARK    8  A    between atoms: C_15  and  C_16
REMARK    9  A    between atoms: C_20  and  C_21
REMARK   10  A    between atoms: C_21  and  C_22
REMARK   11  A    between atoms: C_21  and  C_23
REMARK   12  A    between atoms: C_21  and  C_24
REMARK                            x       y       z     vdW  Elec       q    Type
REMARK                         _______ _______ _______ _____ _____    ______ ____
ROOT
ATOM      1  C   UNL     1       4.547   2.431  18.826  0.00  0.00    +0.000 C 
ATOM      2  N   UNL     1       4.437   3.585  17.929  0.00  0.00    +0.000 N 
ATOM      3  C   UNL     1       5.461   3.525  16.882  0.00  0.00    +0.000 C 
ATOM      4  C   UNL     1       6.436   4.660  17.023  0.00  0.00    +0.000 C 
ATOM      5  C   UNL     1       5.705   5.967  16.731  0.00  0.00    +0.000 C 
ATOM      6  C   UNL     1       6.681   7.108  17.110  0.00  0.00    +0.000 C 
ATOM      7  C   UNL     1       5.380   6.078  15.224  0.00  0.00    +0.000 C 
ATOM      8  C   UNL     1       4.389   6.020  17.535  0.00  0.00    +0.000 A 
ATOM      9  C   UNL     1       3.765   7.299  17.607  0.00  0.00    +0.000 A 
ATOM     10  C   UNL     1       2.606   7.495  18.322  0.00  0.00    +0.000 A 
ATOM     11  C   UNL     1       2.089   6.395  18.963  0.00  0.00    +0.000 A 
ATOM     12  C   UNL     1       2.638   5.059  18.928  0.00  0.00    +0.000 A 
ATOM     13  C   UNL     1       3.833   4.835  18.168  0.00  0.00    +0.000 A 
ENDROOT
BRANCH  12  14
ATOM     14  C   UNL     1       1.783   3.981  19.645  0.00  0.00    +0.000 C 
ATOM     15  C   UNL     1       0.699   4.636  20.530  0.00  0.00    +0.000 C 
ATOM     16  C   UNL     1       1.211   2.999  18.582  0.00  0.00    +0.000 C 
ATOM     17  C   UNL     1       2.523   3.105  20.678  0.00  0.00    +0.000 C 
ENDBRANCH  12  14
BRANCH  10  18
ATOM     18  C   UNL     1       1.922   8.814  18.430  0.00  0.00    +0.000 C 
ATOM     19  O   UNL     1       1.971   9.608  17.481  0.00  0.00    +0.000 OA
BRANCH  18  20
ATOM     20  C   UNL     1       1.143   9.152  19.687  0.00  0.00    +0.000 C 
BRANCH  20  21
ATOM     21  C   UNL     1      -0.105   9.989  19.420  0.00  0.00    +0.000 C 
BRANCH  21  22
ATOM     22  C   UNL     1       0.048  11.407  19.983  0.00  0.00    +0.000 C 
BRANCH  22  23
ATOM     23  C   UNL     1      -0.805  12.458  19.345  0.00  0.00    +0.000 C 
ATOM     24  C   UNL     1      -0.471  13.890  19.690  0.00  0.00    +0.000 C 
ATOM     25  C   UNL     1      -0.363  13.430  18.265  0.00  0.00    +0.000 C 
ENDBRANCH  22  23
ENDBRANCH  21  22
ENDBRANCH  20  21
ENDBRANCH  18  20
ENDBRANCH  10  18
TORSDOF 6
ENDMDL
MODEL 7
REMARK VINA RESULT:      -7.0      1.061      2.002
REMARK  Name = 
REMARK  12 active torsions:
REMARK  status: ('A' for Active; 'I' for Inactive)
REMARK    1  A    between atoms: C_1  and  N_2
REMARK    2  A    between atoms: C_5  and  C_6
REMARK    3  A    between atoms: C_5  and  C_7
REMARK    4  A    between atoms: C_10  and  C_11
REMARK    5  A    between atoms: C_11  and  C_13
REMARK    6  A    between atoms: C_13  and  C_14
REMARK    7  A    between atoms: C_14  and  C_15
REMARK    8  A    between atoms: C_15  and  C_16
REMARK    9  A    between atoms: C_20  and  C_21
REMARK   10  A    between atoms: C_21  and  C_22
REMARK   11  A    between atoms: C_21  and  C_23
REMARK   12  A    between atoms: C_21  and  C_24
REMARK                            x       y       z     vdW  Elec       q    Type
REMARK                         _______ _______ _______ _____ _____    ______ ____
ROOT
ATOM      1  C   UNL     1       4.560   2.485  18.974  0.00  0.00    +0.000 C 
ATOM      2  N   UNL     1       4.431   3.620  18.056  0.00  0.00    +0.000 N 
ATOM      3  C   UNL     1       5.438   3.542  16.994  0.00  0.00    +0.000 C 
ATOM      4  C   UNL     1       6.411   4.683  17.096  0.00  0.00    +0.000 C 
ATOM      5  C   UNL     1       5.671   5.982  16.790  0.00  0.00    +0.000 C 
ATOM      6  C   UNL     1       6.649   7.133  17.130  0.00  0.00    +0.000 C 
ATOM      7  C   UNL     1       5.322   6.061  15.286  0.00  0.00    +0.000 C 
ATOM      8  C   UNL     1       4.368   6.046  17.613  0.00  0.00    +0.000 A 
ATOM      9  C   UNL     1       3.741   7.325  17.669  0.00  0.00    +0.000 A 
ATOM     10  C   UNL     1       2.593   7.531  18.399  0.00  0.00    +0.000 A 
ATOM     11  C   UNL     1       2.090   6.442  19.070  0.00  0.00    +0.000 A 
ATOM     12  C   UNL     1       2.643   5.108  19.053  0.00  0.00    +0.000 A 
ATOM     13  C   UNL     1       3.827   4.873  18.279  0.00  0.00    +0.000 A 
ENDROOT
BRANCH  12  14
ATOM     14  C   UNL     1       1.804   4.041  19.806  0.00  0.00    +0.000 C 
ATOM     15  C   UNL     1       2.662   3.312  20.865  0.00  0.00    +0.000 C 
ATOM     16  C   UNL     1       0.534   4.720  20.394  0.00  0.00    +0.000 C 
ATOM     17  C   UNL     1       1.299   2.854  18.960  0.00  0.00    +0.000 C 
ENDBRANCH  12  14
BRANCH  10  18
ATOM     18  C   UNL     1       1.905   8.849  18.491  0.00  0.00    +0.000 C 
ATOM     19  O   UNL     1       1.794   9.553  17.478  0.00  0.00    +0.000 OA
BRANCH  18  20
ATOM     20  C   UNL     1       1.320   9.297  19.817  0.00  0.00    +0.000 C 
BRANCH  20  21
ATOM     21  C   UNL     1      -0.193   9.487  19.779  0.00  0.00    +0.000 C 
BRANCH  21  22
ATOM     22  C   UNL     1      -0.563  10.962  19.586  0.00  0.00    +0.000 C 
BRANCH  22  23
ATOM     23  C   UNL     1      -1.167  11.316  18.264  0.00  0.00    +0.000 C 
ATOM     24  C   UNL     1      -1.800  10.181  17.492  0.00  0.00    +0.000 C 
ATOM     25  C   UNL     1      -2.651  11.336  17.937  0.00  0.00    +0.000 C 
ENDBRANCH  22  23
ENDBRANCH  21  22
ENDBRANCH  20  21
ENDBRANCH  18  20
ENDBRANCH  10  18
TORSDOF 6
ENDMDL
MODEL 8
REMARK VINA RESULT:      -7.0      1.712      4.407
REMARK  Name = 
REMARK  12 active torsions:
REMARK  status: ('A' for Active; 'I' for Inactive)
REMARK    1  A    between atoms: C_1  and  N_2
REMARK    2  A    between atoms: C_5  and  C_6
REMARK    3  A    between atoms: C_5  and  C_7
REMARK    4  A    between atoms: C_10  and  C_11
REMARK    5  A    between atoms: C_11  and  C_13
REMARK    6  A    between atoms: C_13  and  C_14
REMARK    7  A    between atoms: C_14  and  C_15
REMARK    8  A    between atoms: C_15  and  C_16
REMARK    9  A    between atoms: C_20  and  C_21
REMARK   10  A    between atoms: C_21  and  C_22
REMARK   11  A    between atoms: C_21  and  C_23
REMARK   12  A    between atoms: C_21  and  C_24
REMARK                            x       y       z     vdW  Elec       q    Type
REMARK                         _______ _______ _______ _____ _____    ______ ____
ROOT
ATOM      1  C   UNL     1       4.930   3.032  17.116  0.00  0.00    +0.000 C 
ATOM      2  N   UNL     1       4.282   3.429  18.369  0.00  0.00    +0.000 N 
ATOM      3  C   UNL     1       3.941   2.250  19.171  0.00  0.00    +0.000 C 
ATOM      4  C   UNL     1       2.452   2.107  19.304  0.00  0.00    +0.000 C 
ATOM      5  C   UNL     1       1.924   3.270  20.139  0.00  0.00    +0.000 C 
ATOM      6  C   UNL     1       0.380   3.205  20.054  0.00  0.00    +0.000 C 
ATOM      7  C   UNL     1       2.342   3.103  21.618  0.00  0.00    +0.000 C 
ATOM      8  C   UNL     1       2.494   4.599  19.602  0.00  0.00    +0.000 A 
ATOM      9  C   UNL     1       1.850   5.779  20.077  0.00  0.00    +0.000 A 
ATOM     10  C   UNL     1       2.233   7.029  19.649  0.00  0.00    +0.000 A 
ATOM     11  C   UNL     1       3.264   7.076  18.741  0.00  0.00    +0.000 A 
ATOM     12  C   UNL     1       3.989   5.939  18.223  0.00  0.00    +0.000 A 
ATOM     13  C   UNL     1       3.614   4.631  18.677  0.00  0.00    +0.000 A 
ENDROOT
BRANCH  12  14
ATOM     14  C   UNL     1       5.185   6.290  17.300  0.00  0.00    +0.000 C 
ATOM     15  C   UNL     1       5.173   7.790  16.927  0.00  0.00    +0.000 C 
ATOM     16  C   UNL     1       6.504   5.829  17.984  0.00  0.00    +0.000 C 
ATOM     17  C   UNL     1       5.180   5.634  15.903  0.00  0.00    +0.000 C 
ENDBRANCH  12  14
BRANCH  10  18
ATOM     18  C   UNL     1       1.587   8.288  20.113  0.00  0.00    +0.000 C 
ATOM     19  O   UNL     1       1.525   8.534  21.326  0.00  0.00    +0.000 OA
BRANCH  18  20
ATOM     20  C   UNL     1       1.044   9.271  19.093  0.00  0.00    +0.000 C 
BRANCH  20  21
ATOM     21  C   UNL     1       0.056  10.273  19.681  0.00  0.00    +0.000 C 
BRANCH  21  22
ATOM     22  C   UNL     1      -0.823  10.893  18.590  0.00  0.00    +0.000 C 
BRANCH  22  23
ATOM     23  C   UNL     1      -1.405   9.935  17.599  0.00  0.00    +0.000 C 
ATOM     24  C   UNL     1      -2.898   9.712  17.681  0.00  0.00    +0.000 C 
ATOM     25  C   UNL     1      -2.307  10.297  16.431  0.00  0.00    +0.000 C 
ENDBRANCH  22  23
ENDBRANCH  21  22
ENDBRANCH  20  21
ENDBRANCH  18  20
ENDBRANCH  10  18
TORSDOF 6
ENDMDL
MODEL 9
REMARK VINA RESULT:      -7.0      1.117      1.664
REMARK  Name = 
REMARK  12 active torsions:
REMARK  status: ('A' for Active; 'I' for Inactive)
REMARK    1  A    between atoms: C_1  and  N_2
REMARK    2  A    between atoms: C_5  and  C_6
REMARK    3  A    between atoms: C_5  and  C_7
REMARK    4  A    between atoms: C_10  and  C_11
REMARK    5  A    between atoms: C_11  and  C_13
REMARK    6  A    between atoms: C_13  and  C_14
REMARK    7  A    between atoms: C_14  and  C_15
REMARK    8  A    between atoms: C_15  and  C_16
REMARK    9  A    between atoms: C_20  and  C_21
REMARK   10  A    between atoms: C_21  and  C_22
REMARK   11  A    between atoms: C_21  and  C_23
REMARK   12  A    between atoms: C_21  and  C_24
REMARK                            x       y       z     vdW  Elec       q    Type
REMARK                         _______ _______ _______ _____ _____    ______ ____
ROOT
ATOM      1  C   UNL     1       4.571   2.170  18.322  0.00  0.00    +0.000 C 
ATOM      2  N   UNL     1       4.376   3.451  17.637  0.00  0.00    +0.000 N 
ATOM      3  C   UNL     1       5.312   3.586  16.517  0.00  0.00    +0.000 C 
ATOM      4  C   UNL     1       6.283   4.706  16.765  0.00  0.00    +0.000 C 
ATOM      5  C   UNL     1       5.516   6.026  16.750  0.00  0.00    +0.000 C 
ATOM      6  C   UNL     1       6.507   7.113  17.232  0.00  0.00    +0.000 C 
ATOM      7  C   UNL     1       5.070   6.372  15.310  0.00  0.00    +0.000 C 
ATOM      8  C   UNL     1       4.269   5.915  17.651  0.00  0.00    +0.000 A 
ATOM      9  C   UNL     1       3.639   7.151  17.979  0.00  0.00    +0.000 A 
ATOM     10  C   UNL     1       2.540   7.200  18.805  0.00  0.00    +0.000 A 
ATOM     11  C   UNL     1       2.088   5.999  19.296  0.00  0.00    +0.000 A 
ATOM     12  C   UNL     1       2.647   4.699  19.001  0.00  0.00    +0.000 A 
ATOM     13  C   UNL     1       3.780   4.631  18.123  0.00  0.00    +0.000 A 
ENDROOT
BRANCH  12  14
ATOM     14  C   UNL     1       1.866   3.499  19.596  0.00  0.00    +0.000 C 
ATOM     15  C   UNL     1       1.289   2.605  18.475  0.00  0.00    +0.000 C 
ATOM     16  C   UNL     1       2.791   2.735  20.588  0.00  0.00    +0.000 C 
ATOM     17  C   UNL     1       0.588   3.847  20.389  0.00  0.00    +0.000 C 
ENDBRANCH  12  14
BRANCH  10  18
ATOM     18  C   UNL     1       1.852   8.467  19.180  0.00  0.00    +0.000 C 
ATOM     19  O   UNL     1       1.518   8.657  20.358  0.00  0.00    +0.000 OA
BRANCH  18  20
ATOM     20  C   UNL     1       1.602   9.525  18.122  0.00  0.00    +0.000 C 
BRANCH  20  21
ATOM     21  C   UNL     1       0.149   9.986  18.057  0.00  0.00    +0.000 C 
BRANCH  21  22
ATOM     22  C   UNL     1      -0.036  11.336  18.759  0.00  0.00    +0.000 C 
BRANCH  22  23
ATOM     23  C   UNL     1      -1.165  11.414  19.737  0.00  0.00    +0.000 C 
ATOM     24  C   UNL     1      -0.814  11.161  21.185  0.00  0.00    +0.000 C 
ATOM     25  C   UNL     1      -1.367  12.498  20.783  0.00  0.00    +0.000 C 
ENDBRANCH  22  23
ENDBRANCH  21  22
ENDBRANCH  20  21
ENDBRANCH  18  20
ENDBRANCH  10  18
TORSDOF 6
ENDMDL
