MODEL 1
REMARK VINA RESULT:      -7.5      0.000      0.000
REMARK  Name = 
REMARK  2 active torsions:
REMARK  status: ('A' for Active; 'I' for Inactive)
REMARK    1  A    between atoms: C_5  and  C_7
REMARK    2  A    between atoms: C_9  and  C_10
REMARK                            x       y       z     vdW  Elec       q    Type
REMARK                         _______ _______ _______ _____ _____    ______ ____
ROOT
ATOM      1  N   UNL     1       6.162   3.552  14.294  0.00  0.00    +0.000 NA
ATOM      2  C   UNL     1       6.484   4.601  14.958  0.00  0.00    +0.000 C 
ATOM      3  N   UNL     1       7.557   5.363  14.661  0.00  0.00    +0.000 N 
ATOM      4  N   UNL     1       5.665   4.913  15.996  0.00  0.00    +0.000 N 
ATOM      5  C   UNL     1       5.761   6.008  16.832  0.00  0.00    +0.000 C 
ATOM      6  O   UNL     1       6.577   6.915  16.700  0.00  0.00    +0.000 OA
ATOM      7  H   UNL     1       6.865   3.400  13.566  0.00  0.00    +0.000 HD
ATOM      8  H   UNL     1       7.839   5.404  13.692  0.00  0.00    +0.000 HD
ATOM      9  H   UNL     1       7.554   6.278  15.118  0.00  0.00    +0.000 HD
ATOM     10  H   UNL     1       4.900   4.264  16.112  0.00  0.00    +0.000 HD
ENDROOT
BRANCH   5  11
ATOM     11  C   UNL     1       4.731   6.054  17.904  0.00  0.00    +0.000 C 
ATOM     12  C   UNL     1       3.488   6.894  17.765  0.00  0.00    +0.000 C 
ATOM     13  C   UNL     1       3.387   5.393  17.626  0.00  0.00    +0.000 C 
BRANCH  13  14
ATOM     14  C   UNL     1       2.719   4.540  18.688  0.00  0.00    +0.000 A 
ATOM     15  C   UNL     1       1.877   5.138  19.646  0.00  0.00    +0.000 A 
ATOM     16  C   UNL     1       1.182   4.380  20.596  0.00  0.00    +0.000 A 
ATOM     17  C   UNL     1       1.314   2.995  20.614  0.00  0.00    +0.000 A 
ATOM     18  C   UNL     1       2.140   2.371  19.683  0.00  0.00    +0.000 A 
ATOM     19  C   UNL     1       2.827   3.134  18.731  0.00  0.00    +0.000 A 
ATOM     20 CL   UNL     1       3.798   2.271  17.586  0.00  0.00    +0.000 Cl
ENDBRANCH  13  14
ENDBRANCH   5  11
TORSDOF 2
ENDMDL
MODEL 2
REMARK VINA RESULT:      -7.4      1.209      1.405
REMARK  Name = 
REMARK  2 active torsions:
REMARK  status: ('A' for Active; 'I' for Inactive)
REMARK    1  A    between atoms: C_5  and  C_7
REMARK    2  A    between atoms: C_9  and  C_10
REMARK                            x       y       z     vdW  Elec       q    Type
REMARK                         _______ _______ _______ _____ _____    ______ ____
ROOT
ATOM      1  N   UNL     1       6.154   3.604  13.637  0.00  0.00    +0.000 NA
ATOM      2  C   UNL     1       6.684   4.348  14.538  0.00  0.00    +0.000 C 
ATOM      3  N   UNL     1       7.677   5.224  14.281  0.00  0.00    +0.000 N 
ATOM      4  N   UNL     1       6.176   4.207  15.789  0.00  0.00    +0.000 N 
ATOM      5  C   UNL     1       6.536   4.916  16.918  0.00  0.00    +0.000 C 
ATOM      6  O   UNL     1       7.331   5.851  16.929  0.00  0.00    +0.000 OA
ATOM      7  H   UNL     1       6.637   3.773  12.751  0.00  0.00    +0.000 HD
ATOM      8  H   UNL     1       7.702   5.638  13.360  0.00  0.00    +0.000 HD
ATOM      9  H   UNL     1       7.835   5.903  15.030  0.00  0.00    +0.000 HD
ATOM     10  H   UNL     1       5.438   3.519  15.847  0.00  0.00    +0.000 HD
ENDROOT
BRANCH   5  11
ATOM     11  C   UNL     1       5.820   4.504  18.156  0.00  0.00    +0.000 C 
ATOM     12  C   UNL     1       5.863   5.344  19.405  0.00  0.00    +0.000 C 
ATOM     13  C   UNL     1       4.601   5.316  18.575  0.00  0.00    +0.000 C 
BRANCH  13  14
ATOM     14  C   UNL     1       3.345   4.616  19.060  0.00  0.00    +0.000 A 
ATOM     15  C   UNL     1       2.884   4.828  20.374  0.00  0.00    +0.000 A 
ATOM     16  C   UNL     1       1.690   4.262  20.838  0.00  0.00    +0.000 A 
ATOM     17  C   UNL     1       0.924   3.464  19.996  0.00  0.00    +0.000 A 
ATOM     18  C   UNL     1       1.352   3.232  18.692  0.00  0.00    +0.000 A 
ATOM     19  C   UNL     1       2.542   3.805  18.231  0.00  0.00    +0.000 A 
ATOM     20 CL   UNL     1       2.975   3.497  16.583  0.00  0.00    +0.000 Cl
ENDBRANCH  13  14
ENDBRANCH   5  11
TORSDOF 2
ENDMDL
MODEL 3
REMARK VINA RESULT:      -7.3      1.813      2.320
REMARK  Name = 
REMARK  2 active torsions:
REMARK  status: ('A' for Active; 'I' for Inactive)
REMARK    1  A    between atoms: C_5  and  C_7
REMARK    2  A    between atoms: C_9  and  C_10
REMARK                            x       y       z     vdW  Elec       q    Type
REMARK                         _______ _______ _______ _____ _____    ______ ____
ROOT
ATOM      1  N   UNL     1       6.263   3.551  13.550  0.00  0.00    +0.000 NA
ATOM      2  C   UNL     1       6.775   4.419  14.345  0.00  0.00    +0.000 C 
ATOM      3  N   UNL     1       7.587   5.412  13.929  0.00  0.00    +0.000 N 
ATOM      4  N   UNL     1       6.443   4.281  15.655  0.00  0.00    +0.000 N 
ATOM      5  C   UNL     1       6.820   5.103  16.698  0.00  0.00    +0.000 C 
ATOM      6  O   UNL     1       7.459   6.143  16.571  0.00  0.00    +0.000 OA
ATOM      7  H   UNL     1       6.609   3.734  12.604  0.00  0.00    +0.000 HD
ATOM      8  H   UNL     1       7.441   5.768  12.996  0.00  0.00    +0.000 HD
ATOM      9  H   UNL     1       7.726   6.151  14.623  0.00  0.00    +0.000 HD
ATOM     10  H   UNL     1       5.830   3.499  15.834  0.00  0.00    +0.000 HD
ENDROOT
BRANCH   5  11
ATOM     11  C   UNL     1       6.324   4.668  18.032  0.00  0.00    +0.000 C 
ATOM     12  C   UNL     1       6.562   5.496  19.268  0.00  0.00    +0.000 C 
ATOM     13  C   UNL     1       5.180   5.458  18.657  0.00  0.00    +0.000 C 
BRANCH  13  14
ATOM     14  C   UNL     1       4.031   4.736  19.334  0.00  0.00    +0.000 A 
ATOM     15  C   UNL     1       4.157   3.375  19.675  0.00  0.00    +0.000 A 
ATOM     16  C   UNL     1       3.151   2.690  20.367  0.00  0.00    +0.000 A 
ATOM     17  C   UNL     1       1.985   3.352  20.736  0.00  0.00    +0.000 A 
ATOM     18  C   UNL     1       1.826   4.697  20.412  0.00  0.00    +0.000 A 
ATOM     19  C   UNL     1       2.838   5.379  19.727  0.00  0.00    +0.000 A 
ATOM     20 CL   UNL     1       2.573   7.059  19.404  0.00  0.00    +0.000 Cl
ENDBRANCH  13  14
ENDBRANCH   5  11
TORSDOF 2
ENDMDL
MODEL 4
REMARK VINA RESULT:      -7.2      1.466      1.576
REMARK  Name = 
REMARK  2 active torsions:
REMARK  status: ('A' for Active; 'I' for Inactive)
REMARK    1  A    between atoms: C_5  and  C_7
REMARK    2  A    between atoms: C_9  and  C_10
REMARK                            x       y       z     vdW  Elec       q    Type
REMARK                         _______ _______ _______ _____ _____    ______ ____
ROOT
ATOM      1  N   UNL     1       8.021   4.172  17.056  0.00  0.00    +0.000 NA
ATOM      2  C   UNL     1       7.195   5.070  16.658  0.00  0.00    +0.000 C 
ATOM      3  N   UNL     1       7.410   5.840  15.572  0.00  0.00    +0.000 N 
ATOM      4  N   UNL     1       6.067   5.202  17.404  0.00  0.00    +0.000 N 
ATOM      5  C   UNL     1       5.008   6.054  17.166  0.00  0.00    +0.000 C 
ATOM      6  O   UNL     1       4.902   6.775  16.178  0.00  0.00    +0.000 OA
ATOM      7  H   UNL     1       8.839   4.189  16.442  0.00  0.00    +0.000 HD
ATOM      8  H   UNL     1       7.951   5.439  14.820  0.00  0.00    +0.000 HD
ATOM      9  H   UNL     1       6.577   6.337  15.247  0.00  0.00    +0.000 HD
ATOM     10  H   UNL     1       6.029   4.566  18.189  0.00  0.00    +0.000 HD
ENDROOT
BRANCH   5  11
ATOM     11  C   UNL     1       3.928   5.992  18.188  0.00  0.00    +0.000 C 
ATOM     12  C   UNL     1       2.493   6.280  17.834  0.00  0.00    +0.000 C 
ATOM     13  C   UNL     1       2.921   4.854  18.089  0.00  0.00    +0.000 C 
BRANCH  13  14
ATOM     14  C   UNL     1       2.488   4.104  19.335  0.00  0.00    +0.000 A 
ATOM     15  C   UNL     1       1.160   4.207  19.793  0.00  0.00    +0.000 A 
ATOM     16  C   UNL     1       0.700   3.474  20.894  0.00  0.00    +0.000 A 
ATOM     17  C   UNL     1       1.560   2.615  21.569  0.00  0.00    +0.000 A 
ATOM     18  C   UNL     1       2.880   2.491  21.144  0.00  0.00    +0.000 A 
ATOM     19  C   UNL     1       3.334   3.221  20.039  0.00  0.00    +0.000 A 
ATOM     20 CL   UNL     1       4.977   2.972  19.555  0.00  0.00    +0.000 Cl
ENDBRANCH  13  14
ENDBRANCH   5  11
TORSDOF 2
ENDMDL
MODEL 5
REMARK VINA RESULT:      -7.2      1.673      2.147
REMARK  Name = 
REMARK  2 active torsions:
REMARK  status: ('A' for Active; 'I' for Inactive)
REMARK    1  A    between atoms: C_5  and  C_7
REMARK    2  A    between atoms: C_9  and  C_10
REMARK                            x       y       z     vdW  Elec       q    Type
REMARK                         _______ _______ _______ _____ _____    ______ ____
ROOT
ATOM      1  N   UNL     1       6.013   3.812  13.351  0.00  0.00    +0.000 NA
ATOM      2  C   UNL     1       6.606   4.415  14.315  0.00  0.00    +0.000 C 
ATOM      3  N   UNL     1       7.699   5.186  14.143  0.00  0.00    +0.000 N 
ATOM      4  N   UNL     1       6.058   4.234  15.545  0.00  0.00    +0.000 N 
ATOM      5  C   UNL     1       6.473   4.805  16.732  0.00  0.00    +0.000 C 
ATOM      6  O   UNL     1       7.371   5.636  16.829  0.00  0.00    +0.000 OA
ATOM      7  H   UNL     1       6.530   3.993  12.487  0.00  0.00    +0.000 HD
ATOM      8  H   UNL     1       7.790   5.666  13.259  0.00  0.00    +0.000 HD
ATOM      9  H   UNL     1       7.917   5.780  14.947  0.00  0.00    +0.000 HD
ATOM     10  H   UNL     1       5.245   3.635  15.538  0.00  0.00    +0.000 HD
ENDROOT
BRANCH   5  11
ATOM     11  C   UNL     1       5.689   4.381  17.924  0.00  0.00    +0.000 C 
ATOM     12  C   UNL     1       5.559   5.268  19.135  0.00  0.00    +0.000 C 
ATOM     13  C   UNL     1       4.379   5.106  18.205  0.00  0.00    +0.000 C 
BRANCH  13  14
ATOM     14  C   UNL     1       3.144   4.325  18.616  0.00  0.00    +0.000 A 
ATOM     15  C   UNL     1       2.979   2.993  18.187  0.00  0.00    +0.000 A 
ATOM     16  C   UNL     1       1.893   2.213  18.603  0.00  0.00    +0.000 A 
ATOM     17  C   UNL     1       0.939   2.748  19.462  0.00  0.00    +0.000 A 
ATOM     18  C   UNL     1       1.071   4.062  19.903  0.00  0.00    +0.000 A 
ATOM     19  C   UNL     1       2.162   4.835  19.490  0.00  0.00    +0.000 A 
ATOM     20 CL   UNL     1       2.267   6.444  20.121  0.00  0.00    +0.000 Cl
ENDBRANCH  13  14
ENDBRANCH   5  11
TORSDOF 2
ENDMDL
MODEL 6
REMARK VINA RESULT:      -7.1      2.478      3.141
REMARK  Name = 
REMARK  2 active torsions:
REMARK  status: ('A' for Active; 'I' for Inactive)
REMARK    1  A    between atoms: C_5  and  C_7
REMARK    2  A    between atoms: C_9  and  C_10
REMARK                            x       y       z     vdW  Elec       q    Type
REMARK                         _______ _______ _______ _____ _____    ______ ____
ROOT
ATOM      1  N   UNL     1       8.165   5.471  20.240  0.00  0.00    +0.000 NA
ATOM      2  C   UNL     1       7.721   6.106  19.217  0.00  0.00    +0.000 C 
ATOM      3  N   UNL     1       8.328   7.197  18.706  0.00  0.00    +0.000 N 
ATOM      4  N   UNL     1       6.586   5.606  18.663  0.00  0.00    +0.000 N 
ATOM      5  C   UNL     1       5.936   6.071  17.538  0.00  0.00    +0.000 C 
ATOM      6  O   UNL     1       6.347   6.978  16.820  0.00  0.00    +0.000 OA
ATOM      7  H   UNL     1       8.996   5.956  20.588  0.00  0.00    +0.000 HD
ATOM      8  H   UNL     1       9.330   7.257  18.806  0.00  0.00    +0.000 HD
ATOM      9  H   UNL     1       8.001   7.452  17.770  0.00  0.00    +0.000 HD
ATOM     10  H   UNL     1       6.234   4.788  19.140  0.00  0.00    +0.000 HD
ENDROOT
BRANCH   5  11
ATOM     11  C   UNL     1       4.690   5.331  17.199  0.00  0.00    +0.000 C 
ATOM     12  C   UNL     1       4.726   4.057  16.398  0.00  0.00    +0.000 C 
ATOM     13  C   UNL     1       4.453   3.990  17.882  0.00  0.00    +0.000 C 
BRANCH  13  14
ATOM     14  C   UNL     1       3.079   3.639  18.423  0.00  0.00    +0.000 A 
ATOM     15  C   UNL     1       2.433   2.463  17.994  0.00  0.00    +0.000 A 
ATOM     16  C   UNL     1       1.200   2.063  18.523  0.00  0.00    +0.000 A 
ATOM     17  C   UNL     1       0.577   2.833  19.499  0.00  0.00    +0.000 A 
ATOM     18  C   UNL     1       1.187   4.003  19.944  0.00  0.00    +0.000 A 
ATOM     19  C   UNL     1       2.423   4.395  19.417  0.00  0.00    +0.000 A 
ATOM     20 CL   UNL     1       3.128   5.840  20.060  0.00  0.00    +0.000 Cl
ENDBRANCH  13  14
ENDBRANCH   5  11
TORSDOF 2
ENDMDL
MODEL 7
REMARK VINA RESULT:      -7.1      2.026      2.875
REMARK  Name = 
REMARK  2 active torsions:
REMARK  status: ('A' for Active; 'I' for Inactive)
REMARK    1  A    between atoms: C_5  and  C_7
REMARK    2  A    between atoms: C_9  and  C_10
REMARK                            x       y       z     vdW  Elec       q    Type
REMARK                         _______ _______ _______ _____ _____    ______ ____
ROOT
ATOM      1  N   UNL     1       5.499   2.953  11.824  0.00  0.00    +0.000 NA
ATOM      2  C   UNL     1       6.297   3.682  12.515  0.00  0.00    +0.000 C 
ATOM      3  N   UNL     1       7.375   4.298  11.990  0.00  0.00    +0.000 N 
ATOM      4  N   UNL     1       5.987   3.804  13.832  0.00  0.00    +0.000 N 
ATOM      5  C   UNL     1       6.651   4.563  14.775  0.00  0.00    +0.000 C 
ATOM      6  O   UNL     1       7.592   5.311  14.531  0.00  0.00    +0.000 OA
ATOM      7  H   UNL     1       5.850   2.907  10.864  0.00  0.00    +0.000 HD
ATOM      8  H   UNL     1       7.321   4.579  11.022  0.00  0.00    +0.000 HD
ATOM      9  H   UNL     1       7.775   5.020  12.596  0.00  0.00    +0.000 HD
ATOM     10  H   UNL     1       5.156   3.294  14.098  0.00  0.00    +0.000 HD
ENDROOT
BRANCH   5  11
ATOM     11  C   UNL     1       6.088   4.463  16.150  0.00  0.00    +0.000 C 
ATOM     12  C   UNL     1       6.224   5.591  17.138  0.00  0.00    +0.000 C 
ATOM     13  C   UNL     1       4.885   5.334  16.489  0.00  0.00    +0.000 C 
BRANCH  13  14
ATOM     14  C   UNL     1       3.719   4.758  17.271  0.00  0.00    +0.000 A 
ATOM     15  C   UNL     1       3.470   3.372  17.245  0.00  0.00    +0.000 A 
ATOM     16  C   UNL     1       2.452   2.790  18.011  0.00  0.00    +0.000 A 
ATOM     17  C   UNL     1       1.652   3.584  18.825  0.00  0.00    +0.000 A 
ATOM     18  C   UNL     1       1.870   4.958  18.873  0.00  0.00    +0.000 A 
ATOM     19  C   UNL     1       2.893   5.534  18.111  0.00  0.00    +0.000 A 
ATOM     20 CL   UNL     1       3.119   7.244  18.265  0.00  0.00    +0.000 Cl
ENDBRANCH  13  14
ENDBRANCH   5  11
TORSDOF 2
ENDMDL
MODEL 8
REMARK VINA RESULT:      -7.0      2.105      3.058
REMARK  Name = 
REMARK  2 active torsions:
REMARK  status: ('A' for Active; 'I' for Inactive)
REMARK    1  A    between atoms: C_5  and  C_7
REMARK    2  A    between atoms: C_9  and  C_10
REMARK                            x       y       z     vdW  Elec       q    Type
REMARK                         _______ _______ _______ _____ _____    ______ ____
ROOT
ATOM      1  N   UNL     1       5.713   2.734  12.047  0.00  0.00    +0.000 NA
ATOM      2  C   UNL     1       6.425   3.598  12.674  0.00  0.00    +0.000 C 
ATOM      3  N   UNL     1       7.273   4.444  12.054  0.00  0.00    +0.000 N 
ATOM      4  N   UNL     1       6.272   3.617  14.024  0.00  0.00    +0.000 N 
ATOM      5  C   UNL     1       6.882   4.474  14.917  0.00  0.00    +0.000 C 
ATOM      6  O   UNL     1       7.607   5.412  14.600  0.00  0.00    +0.000 OA
ATOM      7  H   UNL     1       5.936   2.790  11.051  0.00  0.00    +0.000 HD
ATOM      8  H   UNL     1       7.034   4.732  11.116  0.00  0.00    +0.000 HD
ATOM      9  H   UNL     1       7.590   5.218  12.644  0.00  0.00    +0.000 HD
ATOM     10  H   UNL     1       5.609   2.934  14.362  0.00  0.00    +0.000 HD
ENDROOT
BRANCH   5  11
ATOM     11  C   UNL     1       6.539   4.220  16.343  0.00  0.00    +0.000 C 
ATOM     12  C   UNL     1       7.280   4.902  17.463  0.00  0.00    +0.000 C 
ATOM     13  C   UNL     1       5.877   5.348  17.125  0.00  0.00    +0.000 C 
BRANCH  13  14
ATOM     14  C   UNL     1       4.706   5.057  18.045  0.00  0.00    +0.000 A 
ATOM     15  C   UNL     1       4.667   3.855  18.777  0.00  0.00    +0.000 A 
ATOM     16  C   UNL     1       3.644   3.580  19.693  0.00  0.00    +0.000 A 
ATOM     17  C   UNL     1       2.627   4.505  19.900  0.00  0.00    +0.000 A 
ATOM     18  C   UNL     1       2.633   5.703  19.191  0.00  0.00    +0.000 A 
ATOM     19  C   UNL     1       3.662   5.976  18.282  0.00  0.00    +0.000 A 
ATOM     20 CL   UNL     1       3.612   7.508  17.477  0.00  0.00    +0.000 Cl
ENDBRANCH  13  14
ENDBRANCH   5  11
TORSDOF 2
ENDMDL
MODEL 9
REMARK VINA RESULT:      -7.0      1.458      1.849
REMARK  Name = 
REMARK  2 active torsions:
REMARK  status: ('A' for Active; 'I' for Inactive)
REMARK    1  A    between atoms: C_5  and  C_7
REMARK    2  A    between atoms: C_9  and  C_10
REMARK                            x       y       z     vdW  Elec       q    Type
REMARK                         _______ _______ _______ _____ _____    ______ ____
ROOT
ATOM      1  N   UNL     1       6.288   3.428  14.300  0.00  0.00    +0.000 NA
ATOM      2  C   UNL     1       6.482   4.547  14.897  0.00  0.00    +0.000 C 
ATOM      3  N   UNL     1       7.421   5.436  14.511  0.00  0.00    +0.000 N 
ATOM      4  N   UNL     1       5.672   4.795  15.958  0.00  0.00    +0.000 N 
ATOM      5  C   UNL     1       5.645   5.935  16.736  0.00  0.00    +0.000 C 
ATOM      6  O   UNL     1       6.315   6.941  16.521  0.00  0.00    +0.000 OA
ATOM      7  H   UNL     1       6.973   3.339  13.546  0.00  0.00    +0.000 HD
ATOM      8  H   UNL     1       7.653   5.465  13.529  0.00  0.00    +0.000 HD
ATOM      9  H   UNL     1       7.305   6.365  14.924  0.00  0.00    +0.000 HD
ATOM     10  H   UNL     1       5.014   4.051  16.143  0.00  0.00    +0.000 HD
ENDROOT
BRANCH   5  11
ATOM     11  C   UNL     1       4.664   5.893  17.855  0.00  0.00    +0.000 C 
ATOM     12  C   UNL     1       3.668   7.001  18.069  0.00  0.00    +0.000 C 
ATOM     13  C   UNL     1       3.197   5.681  17.505  0.00  0.00    +0.000 C 
BRANCH  13  14
ATOM     14  C   UNL     1       2.345   4.726  18.320  0.00  0.00    +0.000 A 
ATOM     15  C   UNL     1       2.120   3.414  17.859  0.00  0.00    +0.000 A 
ATOM     16  C   UNL     1       1.404   2.478  18.615  0.00  0.00    +0.000 A 
ATOM     17  C   UNL     1       0.890   2.832  19.857  0.00  0.00    +0.000 A 
ATOM     18  C   UNL     1       1.091   4.122  20.342  0.00  0.00    +0.000 A 
ATOM     19  C   UNL     1       1.814   5.052  19.586  0.00  0.00    +0.000 A 
ATOM     20 CL   UNL     1       2.051   6.617  20.285  0.00  0.00    +0.000 Cl
ENDBRANCH  13  14
ENDBRANCH   5  11
TORSDOF 2
ENDMDL
