MODEL 1
REMARK VINA RESULT:      -7.8      0.000      0.000
REMARK  Name = 
REMARK  12 active torsions:
REMARK  status: ('A' for Active; 'I' for Inactive)
REMARK    1  A    between atoms: C_1  and  O_2
REMARK    2  A    between atoms: O_2  and  C_3
REMARK    3  A    between atoms: C_6  and  C_7
REMARK    4  A    between atoms: N_9  and  C_10
REMARK    5  A    between atoms: C_10  and  C_11
REMARK    6  A    between atoms: C_11  and  O_13
REMARK    7  A    between atoms: O_13  and  C_14
REMARK    8  A    between atoms: C_14  and  C_15
REMARK    9  A    between atoms: N_17  and  C_18
REMARK   10  A    between atoms: C_22  and  C_23
REMARK   11  A    between atoms: C_26  and  O_27
REMARK   12  A    between atoms: O_27  and  C_28
REMARK                            x       y       z     vdW  Elec       q    Type
REMARK                         _______ _______ _______ _____ _____    ______ ____
ROOT
ATOM      1  C   UNL     1       7.764   6.807  18.254  0.00  0.00    +0.000 C 
ENDROOT
BRANCH   1   4
ATOM      2  C   UNL     1       8.370   9.182  18.316  0.00  0.00    +0.000 C 
ATOM      3  O   UNL     1       7.492   9.485  17.515  0.00  0.00    +0.000 OA
ATOM      4  N   UNL     1       8.586   7.893  18.750  0.00  0.00    +0.000 N 
ATOM      5  H   UNL     1       9.356   7.670  19.364  0.00  0.00    +0.000 HD
BRANCH   2   9
ATOM      6  C   UNL     1      10.896  12.367  19.688  0.00  0.00    +0.000 A 
ATOM      7  C   UNL     1      11.070  11.797  18.420  0.00  0.00    +0.000 A 
ATOM      8  C   UNL     1      10.242  10.757  17.989  0.00  0.00    +0.000 A 
ATOM      9  C   UNL     1       9.274  10.232  18.845  0.00  0.00    +0.000 A 
ATOM     10  C   UNL     1       9.153  10.745  20.136  0.00  0.00    +0.000 A 
ATOM     11  C   UNL     1       9.963  11.805  20.574  0.00  0.00    +0.000 A 
BRANCH   6  13
ATOM     12  C   UNL     1      11.198  14.712  19.574  0.00  0.00    +0.000 C 
ATOM     13  O   UNL     1      11.641  13.451  20.077  0.00  0.00    +0.000 OA
ENDBRANCH   6  13
BRANCH  11  14
ATOM     14  O   UNL     1       9.669  12.164  21.862  0.00  0.00    +0.000 OA
ATOM     15  C   UNL     1       8.388  11.869  22.393  0.00  0.00    +0.000 C 
ENDBRANCH  11  14
ENDBRANCH   2   9
ENDBRANCH   1   4
BRANCH   1  16
ATOM     16  C   UNL     1       7.775   5.589  19.166  0.00  0.00    +0.000 C 
ATOM     17  O   UNL     1       7.918   5.631  20.384  0.00  0.00    +0.000 OA
BRANCH  16  18
ATOM     18  O   UNL     1       7.582   4.450  18.446  0.00  0.00    +0.000 OA
BRANCH  18  19
ATOM     19  C   UNL     1       7.196   4.659  17.087  0.00  0.00    +0.000 C 
BRANCH  19  20
ATOM     20  C   UNL     1       5.711   4.322  16.956  0.00  0.00    +0.000 C 
ATOM     21  O   UNL     1       5.103   4.452  15.893  0.00  0.00    +0.000 OA
ATOM     22  N   UNL     1       5.121   3.925  18.147  0.00  0.00    +0.000 N 
ATOM     23  H   UNL     1       5.503   4.313  19.003  0.00  0.00    +0.000 HD
BRANCH  22  24
ATOM     24  C   UNL     1       3.765   3.658  18.150  0.00  0.00    +0.000 A 
ATOM     25  S   UNL     1       3.395   2.000  18.059  0.00  0.00    +0.000 S 
ATOM     26  C   UNL     1       1.728   2.310  18.309  0.00  0.00    +0.000 A 
ATOM     27  C   UNL     1       1.457   3.662  18.332  0.00  0.00    +0.000 A 
ATOM     28  C   UNL     1       2.644   4.455  18.224  0.00  0.00    +0.000 A 
BRANCH  28  29
ATOM     29  C   UNL     1       2.641   5.887  18.134  0.00  0.00    +0.000 C 
ATOM     30  N   UNL     1       2.607   7.048  18.133  0.00  0.00    +0.000 NA
ENDBRANCH  28  29
ENDBRANCH  22  24
ENDBRANCH  19  20
ENDBRANCH  18  19
ENDBRANCH  16  18
ENDBRANCH   1  16
TORSDOF 10
ENDMDL
MODEL 2
REMARK VINA RESULT:      -7.6      4.571      7.168
REMARK  Name = 
REMARK  12 active torsions:
REMARK  status: ('A' for Active; 'I' for Inactive)
REMARK    1  A    between atoms: C_1  and  O_2
REMARK    2  A    between atoms: O_2  and  C_3
REMARK    3  A    between atoms: C_6  and  C_7
REMARK    4  A    between atoms: N_9  and  C_10
REMARK    5  A    between atoms: C_10  and  C_11
REMARK    6  A    between atoms: C_11  and  O_13
REMARK    7  A    between atoms: O_13  and  C_14
REMARK    8  A    between atoms: C_14  and  C_15
REMARK    9  A    between atoms: N_17  and  C_18
REMARK   10  A    between atoms: C_22  and  C_23
REMARK   11  A    between atoms: C_26  and  O_27
REMARK   12  A    between atoms: O_27  and  C_28
REMARK                            x       y       z     vdW  Elec       q    Type
REMARK                         _______ _______ _______ _____ _____    ______ ____
ROOT
ATOM      1  C   UNL     1       3.265   1.711  18.904  0.00  0.00    +0.000 C 
ENDROOT
BRANCH   1   4
ATOM      2  C   UNL     1       4.047   3.460  17.373  0.00  0.00    +0.000 C 
ATOM      3  O   UNL     1       2.959   4.025  17.371  0.00  0.00    +0.000 OA
ATOM      4  N   UNL     1       4.306   2.318  18.097  0.00  0.00    +0.000 N 
ATOM      5  H   UNL     1       5.197   1.845  18.030  0.00  0.00    +0.000 HD
BRANCH   2   9
ATOM      6  C   UNL     1       7.094   5.079  14.822  0.00  0.00    +0.000 A 
ATOM      7  C   UNL     1       6.392   3.919  14.470  0.00  0.00    +0.000 A 
ATOM      8  C   UNL     1       5.406   3.401  15.313  0.00  0.00    +0.000 A 
ATOM      9  C   UNL     1       5.156   4.000  16.548  0.00  0.00    +0.000 A 
ATOM     10  C   UNL     1       5.910   5.107  16.936  0.00  0.00    +0.000 A 
ATOM     11  C   UNL     1       6.888   5.651  16.088  0.00  0.00    +0.000 A 
BRANCH   6  13
ATOM     12  C   UNL     1       7.853   5.257  12.587  0.00  0.00    +0.000 C 
ATOM     13  O   UNL     1       7.993   5.645  13.955  0.00  0.00    +0.000 OA
ENDBRANCH   6  13
BRANCH  11  14
ATOM     14  O   UNL     1       7.495   6.740  16.654  0.00  0.00    +0.000 OA
ATOM     15  C   UNL     1       7.744   6.751  18.050  0.00  0.00    +0.000 C 
ENDBRANCH  11  14
ENDBRANCH   2   9
ENDBRANCH   1   4
BRANCH   1  16
ATOM     16  C   UNL     1       3.294   2.169  20.354  0.00  0.00    +0.000 C 
ATOM     17  O   UNL     1       4.233   1.992  21.123  0.00  0.00    +0.000 OA
BRANCH  16  18
ATOM     18  O   UNL     1       2.142   2.821  20.673  0.00  0.00    +0.000 OA
BRANCH  18  19
ATOM     19  C   UNL     1       2.319   4.003  21.456  0.00  0.00    +0.000 C 
BRANCH  19  20
ATOM     20  C   UNL     1       1.755   5.186  20.669  0.00  0.00    +0.000 C 
ATOM     21  O   UNL     1       0.634   5.157  20.162  0.00  0.00    +0.000 OA
ATOM     22  N   UNL     1       2.644   6.243  20.536  0.00  0.00    +0.000 N 
ATOM     23  H   UNL     1       3.632   6.015  20.515  0.00  0.00    +0.000 HD
BRANCH  22  24
ATOM     24  C   UNL     1       2.254   7.336  19.787  0.00  0.00    +0.000 A 
ATOM     25  S   UNL     1       2.780   7.281  18.170  0.00  0.00    +0.000 S 
ATOM     26  C   UNL     1       1.863   8.673  17.774  0.00  0.00    +0.000 A 
ATOM     27  C   UNL     1       1.275   9.232  18.888  0.00  0.00    +0.000 A 
ATOM     28  C   UNL     1       1.513   8.462  20.072  0.00  0.00    +0.000 A 
BRANCH  28  29
ATOM     29  C   UNL     1       1.089   8.863  21.382  0.00  0.00    +0.000 C 
ATOM     30  N   UNL     1       0.790   9.129  22.473  0.00  0.00    +0.000 NA
ENDBRANCH  28  29
ENDBRANCH  22  24
ENDBRANCH  19  20
ENDBRANCH  18  19
ENDBRANCH  16  18
ENDBRANCH   1  16
TORSDOF 10
ENDMDL
MODEL 3
REMARK VINA RESULT:      -7.5      5.258      7.286
REMARK  Name = 
REMARK  12 active torsions:
REMARK  status: ('A' for Active; 'I' for Inactive)
REMARK    1  A    between atoms: C_1  and  O_2
REMARK    2  A    between atoms: O_2  and  C_3
REMARK    3  A    between atoms: C_6  and  C_7
REMARK    4  A    between atoms: N_9  and  C_10
REMARK    5  A    between atoms: C_10  and  C_11
REMARK    6  A    between atoms: C_11  and  O_13
REMARK    7  A    between atoms: O_13  and  C_14
REMARK    8  A    between atoms: C_14  and  C_15
REMARK    9  A    between atoms: N_17  and  C_18
REMARK   10  A    between atoms: C_22  and  C_23
REMARK   11  A    between atoms: C_26  and  O_27
REMARK   12  A    between atoms: O_27  and  C_28
REMARK                            x       y       z     vdW  Elec       q    Type
REMARK                         _______ _______ _______ _____ _____    ______ ____
ROOT
ATOM      1  C   UNL     1       2.207   4.046  21.192  0.00  0.00    +0.000 C 
ENDROOT
BRANCH   1   4
ATOM      2  C   UNL     1       2.560   6.178  20.034  0.00  0.00    +0.000 C 
ATOM      3  O   UNL     1       3.665   5.839  19.625  0.00  0.00    +0.000 OA
ATOM      4  N   UNL     1       1.758   5.370  20.808  0.00  0.00    +0.000 N 
ATOM      5  H   UNL     1       0.878   5.704  21.177  0.00  0.00    +0.000 HD
BRANCH   2   9
ATOM      6  C   UNL     1       0.903   9.988  18.961  0.00  0.00    +0.000 A 
ATOM      7  C   UNL     1       1.578   9.199  18.021  0.00  0.00    +0.000 A 
ATOM      8  C   UNL     1       2.117   7.962  18.386  0.00  0.00    +0.000 A 
ATOM      9  C   UNL     1       2.042   7.531  19.711  0.00  0.00    +0.000 A 
ATOM     10  C   UNL     1       1.441   8.351  20.664  0.00  0.00    +0.000 A 
ATOM     11  C   UNL     1       0.876   9.585  20.306  0.00  0.00    +0.000 A 
BRANCH   6  13
ATOM     12  C   UNL     1      -1.102  11.046  18.277  0.00  0.00    +0.000 C 
ATOM     13  O   UNL     1       0.289  11.155  18.584  0.00  0.00    +0.000 OA
ENDBRANCH   6  13
BRANCH  11  14
ATOM     14  O   UNL     1       0.325  10.219  21.387  0.00  0.00    +0.000 OA
ATOM     15  C   UNL     1      -0.319   9.453  22.391  0.00  0.00    +0.000 C 
ENDBRANCH  11  14
ENDBRANCH   2   9
ENDBRANCH   1   4
BRANCH   1  16
ATOM     16  C   UNL     1       1.820   2.972  20.186  0.00  0.00    +0.000 C 
ATOM     17  O   UNL     1       0.685   2.796  19.755  0.00  0.00    +0.000 OA
BRANCH  16  18
ATOM     18  O   UNL     1       2.912   2.247  19.816  0.00  0.00    +0.000 OA
BRANCH  18  19
ATOM     19  C   UNL     1       2.988   1.950  18.421  0.00  0.00    +0.000 C 
BRANCH  19  20
ATOM     20  C   UNL     1       3.634   3.141  17.714  0.00  0.00    +0.000 C 
ATOM     21  O   UNL     1       2.978   3.933  17.037  0.00  0.00    +0.000 OA
ATOM     22  N   UNL     1       5.012   3.197  17.860  0.00  0.00    +0.000 N 
ATOM     23  H   UNL     1       5.501   2.316  17.966  0.00  0.00    +0.000 HD
BRANCH  22  24
ATOM     24  C   UNL     1       5.700   4.202  17.206  0.00  0.00    +0.000 A 
ATOM     25  S   UNL     1       5.496   4.182  15.517  0.00  0.00    +0.000 S 
ATOM     26  C   UNL     1       6.336   5.666  15.350  0.00  0.00    +0.000 A 
ATOM     27  C   UNL     1       6.867   6.091  16.550  0.00  0.00    +0.000 A 
ATOM     28  C   UNL     1       6.510   5.230  17.637  0.00  0.00    +0.000 A 
BRANCH  28  29
ATOM     29  C   UNL     1       7.000   5.390  18.975  0.00  0.00    +0.000 C 
ATOM     30  N   UNL     1       7.409   5.443  20.061  0.00  0.00    +0.000 NA
ENDBRANCH  28  29
ENDBRANCH  22  24
ENDBRANCH  19  20
ENDBRANCH  18  19
ENDBRANCH  16  18
ENDBRANCH   1  16
TORSDOF 10
ENDMDL
MODEL 4
REMARK VINA RESULT:      -7.3      1.570      2.604
REMARK  Name = 
REMARK  12 active torsions:
REMARK  status: ('A' for Active; 'I' for Inactive)
REMARK    1  A    between atoms: C_1  and  O_2
REMARK    2  A    between atoms: O_2  and  C_3
REMARK    3  A    between atoms: C_6  and  C_7
REMARK    4  A    between atoms: N_9  and  C_10
REMARK    5  A    between atoms: C_10  and  C_11
REMARK    6  A    between atoms: C_11  and  O_13
REMARK    7  A    between atoms: O_13  and  C_14
REMARK    8  A    between atoms: C_14  and  C_15
REMARK    9  A    between atoms: N_17  and  C_18
REMARK   10  A    between atoms: C_22  and  C_23
REMARK   11  A    between atoms: C_26  and  O_27
REMARK   12  A    between atoms: O_27  and  C_28
REMARK                            x       y       z     vdW  Elec       q    Type
REMARK                         _______ _______ _______ _____ _____    ______ ____
ROOT
ATOM      1  C   UNL     1       7.864   6.906  18.175  0.00  0.00    +0.000 C 
ENDROOT
BRANCH   1   4
ATOM      2  C   UNL     1       8.304   9.317  18.125  0.00  0.00    +0.000 C 
ATOM      3  O   UNL     1       7.527   9.498  17.194  0.00  0.00    +0.000 OA
ATOM      4  N   UNL     1       8.540   8.082  18.687  0.00  0.00    +0.000 N 
ATOM      5  H   UNL     1       9.231   7.960  19.414  0.00  0.00    +0.000 HD
BRANCH   2   9
ATOM      6  C   UNL     1      10.660  12.489  19.799  0.00  0.00    +0.000 A 
ATOM      7  C   UNL     1      10.112  11.486  20.609  0.00  0.00    +0.000 A 
ATOM      8  C   UNL     1       9.343  10.462  20.050  0.00  0.00    +0.000 A 
ATOM      9  C   UNL     1       9.059  10.466  18.684  0.00  0.00    +0.000 A 
ATOM     10  C   UNL     1       9.537  11.508  17.890  0.00  0.00    +0.000 A 
ATOM     11  C   UNL     1      10.329  12.530  18.435  0.00  0.00    +0.000 A 
BRANCH   6  13
ATOM     12  C   UNL     1      10.862  14.657  20.729  0.00  0.00    +0.000 C 
ATOM     13  O   UNL     1      11.494  13.440  20.329  0.00  0.00    +0.000 OA
ENDBRANCH   6  13
BRANCH  11  14
ATOM     14  O   UNL     1      10.704  13.439  17.482  0.00  0.00    +0.000 OA
ATOM     15  C   UNL     1      11.975  13.317  16.865  0.00  0.00    +0.000 C 
ENDBRANCH  11  14
ENDBRANCH   2   9
ENDBRANCH   1   4
BRANCH   1  16
ATOM     16  C   UNL     1       7.981   5.703  19.100  0.00  0.00    +0.000 C 
ATOM     17  O   UNL     1       8.191   5.769  20.307  0.00  0.00    +0.000 OA
BRANCH  16  18
ATOM     18  O   UNL     1       7.802   4.546  18.406  0.00  0.00    +0.000 OA
BRANCH  18  19
ATOM     19  C   UNL     1       6.784   4.600  17.406  0.00  0.00    +0.000 C 
BRANCH  19  20
ATOM     20  C   UNL     1       5.431   4.409  18.091  0.00  0.00    +0.000 C 
ATOM     21  O   UNL     1       4.983   5.227  18.894  0.00  0.00    +0.000 OA
ATOM     22  N   UNL     1       4.806   3.212  17.768  0.00  0.00    +0.000 N 
ATOM     23  H   UNL     1       5.404   2.424  17.547  0.00  0.00    +0.000 HD
BRANCH  22  24
ATOM     24  C   UNL     1       3.606   2.913  18.384  0.00  0.00    +0.000 A 
ATOM     25  S   UNL     1       2.241   3.412  17.499  0.00  0.00    +0.000 S 
ATOM     26  C   UNL     1       1.184   2.621  18.591  0.00  0.00    +0.000 A 
ATOM     27  C   UNL     1       1.863   2.100  19.673  0.00  0.00    +0.000 A 
ATOM     28  C   UNL     1       3.279   2.282  19.564  0.00  0.00    +0.000 A 
BRANCH  28  29
ATOM     29  C   UNL     1       4.211   1.913  20.589  0.00  0.00    +0.000 C 
ATOM     30  N   UNL     1       5.018   1.598  21.363  0.00  0.00    +0.000 NA
ENDBRANCH  28  29
ENDBRANCH  22  24
ENDBRANCH  19  20
ENDBRANCH  18  19
ENDBRANCH  16  18
ENDBRANCH   1  16
TORSDOF 10
ENDMDL
MODEL 5
REMARK VINA RESULT:      -7.3      5.508      7.952
REMARK  Name = 
REMARK  12 active torsions:
REMARK  status: ('A' for Active; 'I' for Inactive)
REMARK    1  A    between atoms: C_1  and  O_2
REMARK    2  A    between atoms: O_2  and  C_3
REMARK    3  A    between atoms: C_6  and  C_7
REMARK    4  A    between atoms: N_9  and  C_10
REMARK    5  A    between atoms: C_10  and  C_11
REMARK    6  A    between atoms: C_11  and  O_13
REMARK    7  A    between atoms: O_13  and  C_14
REMARK    8  A    between atoms: C_14  and  C_15
REMARK    9  A    between atoms: N_17  and  C_18
REMARK   10  A    between atoms: C_22  and  C_23
REMARK   11  A    between atoms: C_26  and  O_27
REMARK   12  A    between atoms: O_27  and  C_28
REMARK                            x       y       z     vdW  Elec       q    Type
REMARK                         _______ _______ _______ _____ _____    ______ ____
ROOT
ATOM      1  C   UNL     1       2.368   5.475  20.313  0.00  0.00    +0.000 C 
ENDROOT
BRANCH   1   4
ATOM      2  C   UNL     1       1.592   7.801  20.292  0.00  0.00    +0.000 C 
ATOM      3  O   UNL     1       2.171   8.045  19.239  0.00  0.00    +0.000 OA
ATOM      4  N   UNL     1       1.620   6.568  20.904  0.00  0.00    +0.000 N 
ATOM      5  H   UNL     1       1.181   6.418  21.802  0.00  0.00    +0.000 HD
BRANCH   2   9
ATOM      6  C   UNL     1      -0.446  10.904  22.444  0.00  0.00    +0.000 A 
ATOM      7  C   UNL     1      -0.372   9.599  22.947  0.00  0.00    +0.000 A 
ATOM      8  C   UNL     1       0.291   8.598  22.233  0.00  0.00    +0.000 A 
ATOM      9  C   UNL     1       0.832   8.875  20.977  0.00  0.00    +0.000 A 
ATOM     10  C   UNL     1       0.689  10.154  20.439  0.00  0.00    +0.000 A 
ATOM     11  C   UNL     1       0.045  11.174  21.156  0.00  0.00    +0.000 A 
BRANCH   6  13
ATOM     12  C   UNL     1      -2.433  12.014  23.096  0.00  0.00    +0.000 C 
ATOM     13  O   UNL     1      -1.010  11.910  23.185  0.00  0.00    +0.000 OA
ENDBRANCH   6  13
BRANCH  11  14
ATOM     14  O   UNL     1       0.030  12.350  20.454  0.00  0.00    +0.000 OA
ATOM     15  C   UNL     1      -0.385  12.347  19.098  0.00  0.00    +0.000 C 
ENDBRANCH  11  14
ENDBRANCH   2   9
ENDBRANCH   1   4
BRANCH   1  16
ATOM     16  C   UNL     1       1.475   4.369  19.770  0.00  0.00    +0.000 C 
ATOM     17  O   UNL     1       0.884   3.547  20.463  0.00  0.00    +0.000 OA
BRANCH  16  18
ATOM     18  O   UNL     1       1.408   4.431  18.412  0.00  0.00    +0.000 OA
BRANCH  18  19
ATOM     19  C   UNL     1       1.896   3.271  17.735  0.00  0.00    +0.000 C 
BRANCH  19  20
ATOM     20  C   UNL     1       3.423   3.306  17.768  0.00  0.00    +0.000 C 
ATOM     21  O   UNL     1       4.088   2.383  18.240  0.00  0.00    +0.000 OA
ATOM     22  N   UNL     1       3.966   4.487  17.280  0.00  0.00    +0.000 N 
ATOM     23  H   UNL     1       3.414   5.329  17.394  0.00  0.00    +0.000 HD
BRANCH  22  24
ATOM     24  C   UNL     1       5.338   4.645  17.325  0.00  0.00    +0.000 A 
ATOM     25  S   UNL     1       5.904   5.285  18.796  0.00  0.00    +0.000 S 
ATOM     26  C   UNL     1       7.535   5.040  18.330  0.00  0.00    +0.000 A 
ATOM     27  C   UNL     1       7.633   4.598  17.028  0.00  0.00    +0.000 A 
ATOM     28  C   UNL     1       6.351   4.379  16.430  0.00  0.00    +0.000 A 
BRANCH  28  29
ATOM     29  C   UNL     1       6.164   4.004  15.059  0.00  0.00    +0.000 C 
ATOM     30  N   UNL     1       5.976   3.769  13.937  0.00  0.00    +0.000 NA
ENDBRANCH  28  29
ENDBRANCH  22  24
ENDBRANCH  19  20
ENDBRANCH  18  19
ENDBRANCH  16  18
ENDBRANCH   1  16
TORSDOF 10
ENDMDL
MODEL 6
REMARK VINA RESULT:      -7.0      5.352      7.400
REMARK  Name = 
REMARK  12 active torsions:
REMARK  status: ('A' for Active; 'I' for Inactive)
REMARK    1  A    between atoms: C_1  and  O_2
REMARK    2  A    between atoms: O_2  and  C_3
REMARK    3  A    between atoms: C_6  and  C_7
REMARK    4  A    between atoms: N_9  and  C_10
REMARK    5  A    between atoms: C_10  and  C_11
REMARK    6  A    between atoms: C_11  and  O_13
REMARK    7  A    between atoms: O_13  and  C_14
REMARK    8  A    between atoms: C_14  and  C_15
REMARK    9  A    between atoms: N_17  and  C_18
REMARK   10  A    between atoms: C_22  and  C_23
REMARK   11  A    between atoms: C_26  and  O_27
REMARK   12  A    between atoms: O_27  and  C_28
REMARK                            x       y       z     vdW  Elec       q    Type
REMARK                         _______ _______ _______ _____ _____    ______ ____
ROOT
ATOM      1  C   UNL     1       2.431   4.714  21.046  0.00  0.00    +0.000 C 
ENDROOT
BRANCH   1   4
ATOM      2  C   UNL     1       2.161   6.860  19.891  0.00  0.00    +0.000 C 
ATOM      3  O   UNL     1       2.827   6.491  18.930  0.00  0.00    +0.000 OA
ATOM      4  N   UNL     1       1.902   6.062  20.983  0.00  0.00    +0.000 N 
ATOM      5  H   UNL     1       1.399   6.417  21.784  0.00  0.00    +0.000 HD
BRANCH   2   9
ATOM      6  C   UNL     1       0.403  10.773  19.813  0.00  0.00    +0.000 A 
ATOM      7  C   UNL     1       1.049  10.245  18.688  0.00  0.00    +0.000 A 
ATOM      8  C   UNL     1       1.621   8.970  18.730  0.00  0.00    +0.000 A 
ATOM      9  C   UNL     1       1.610   8.237  19.917  0.00  0.00    +0.000 A 
ATOM     10  C   UNL     1       1.038   8.795  21.060  0.00  0.00    +0.000 A 
ATOM     11  C   UNL     1       0.440  10.064  21.026  0.00  0.00    +0.000 A 
BRANCH   6  13
ATOM     12  C   UNL     1      -0.330  12.560  18.444  0.00  0.00    +0.000 C 
ATOM     13  O   UNL     1      -0.243  11.981  19.747  0.00  0.00    +0.000 OA
ENDBRANCH   6  13
BRANCH  11  14
ATOM     14  O   UNL     1      -0.072  10.412  22.246  0.00  0.00    +0.000 OA
ATOM     15  C   UNL     1       0.009   9.494  23.324  0.00  0.00    +0.000 C 
ENDBRANCH  11  14
ENDBRANCH   2   9
ENDBRANCH   1   4
BRANCH   1  16
ATOM     16  C   UNL     1       1.513   3.683  20.406  0.00  0.00    +0.000 C 
ATOM     17  O   UNL     1       0.353   3.897  20.069  0.00  0.00    +0.000 OA
BRANCH  16  18
ATOM     18  O   UNL     1       2.164   2.498  20.243  0.00  0.00    +0.000 OA
BRANCH  18  19
ATOM     19  C   UNL     1       2.647   2.258  18.921  0.00  0.00    +0.000 C 
BRANCH  19  20
ATOM     20  C   UNL     1       4.080   2.781  18.835  0.00  0.00    +0.000 C 
ATOM     21  O   UNL     1       4.990   2.312  19.519  0.00  0.00    +0.000 OA
ATOM     22  N   UNL     1       4.230   3.858  17.973  0.00  0.00    +0.000 N 
ATOM     23  H   UNL     1       3.434   4.475  17.861  0.00  0.00    +0.000 HD
BRANCH  22  24
ATOM     24  C   UNL     1       5.476   4.447  17.871  0.00  0.00    +0.000 A 
ATOM     25  S   UNL     1       5.971   5.249  19.287  0.00  0.00    +0.000 S 
ATOM     26  C   UNL     1       7.531   5.534  18.638  0.00  0.00    +0.000 A 
ATOM     27  C   UNL     1       7.618   5.133  17.321  0.00  0.00    +0.000 A 
ATOM     28  C   UNL     1       6.414   4.511  16.863  0.00  0.00    +0.000 A 
BRANCH  28  29
ATOM     29  C   UNL     1       6.203   4.081  15.510  0.00  0.00    +0.000 C 
ATOM     30  N   UNL     1       6.041   3.659  14.440  0.00  0.00    +0.000 NA
ENDBRANCH  28  29
ENDBRANCH  22  24
ENDBRANCH  19  20
ENDBRANCH  18  19
ENDBRANCH  16  18
ENDBRANCH   1  16
TORSDOF 10
ENDMDL
MODEL 7
REMARK VINA RESULT:      -6.9      5.359      7.695
REMARK  Name = 
REMARK  12 active torsions:
REMARK  status: ('A' for Active; 'I' for Inactive)
REMARK    1  A    between atoms: C_1  and  O_2
REMARK    2  A    between atoms: O_2  and  C_3
REMARK    3  A    between atoms: C_6  and  C_7
REMARK    4  A    between atoms: N_9  and  C_10
REMARK    5  A    between atoms: C_10  and  C_11
REMARK    6  A    between atoms: C_11  and  O_13
REMARK    7  A    between atoms: O_13  and  C_14
REMARK    8  A    between atoms: C_14  and  C_15
REMARK    9  A    between atoms: N_17  and  C_18
REMARK   10  A    between atoms: C_22  and  C_23
REMARK   11  A    between atoms: C_26  and  O_27
REMARK   12  A    between atoms: O_27  and  C_28
REMARK                            x       y       z     vdW  Elec       q    Type
REMARK                         _______ _______ _______ _____ _____    ______ ____
ROOT
ATOM      1  C   UNL     1       2.774   4.991  20.498  0.00  0.00    +0.000 C 
ENDROOT
BRANCH   1   4
ATOM      2  C   UNL     1       2.032   7.282  20.037  0.00  0.00    +0.000 C 
ATOM      3  O   UNL     1       2.724   7.364  19.028  0.00  0.00    +0.000 OA
ATOM      4  N   UNL     1       1.979   6.157  20.830  0.00  0.00    +0.000 N 
ATOM      5  H   UNL     1       1.444   6.144  21.687  0.00  0.00    +0.000 HD
BRANCH   2   9
ATOM      6  C   UNL     1      -0.169  10.693  21.430  0.00  0.00    +0.000 A 
ATOM      7  C   UNL     1       0.004   9.561  22.237  0.00  0.00    +0.000 A 
ATOM      8  C   UNL     1       0.720   8.456  21.768  0.00  0.00    +0.000 A 
ATOM      9  C   UNL     1       1.214   8.444  20.463  0.00  0.00    +0.000 A 
ATOM     10  C   UNL     1       0.973   9.537  19.632  0.00  0.00    +0.000 A 
ATOM     11  C   UNL     1       0.276  10.663  20.098  0.00  0.00    +0.000 A 
BRANCH   6  13
ATOM     12  C   UNL     1      -1.622  11.607  23.059  0.00  0.00    +0.000 C 
ATOM     13  O   UNL     1      -0.785  11.815  21.920  0.00  0.00    +0.000 OA
ENDBRANCH   6  13
BRANCH  11  14
ATOM     14  O   UNL     1       0.166  11.624  19.129  0.00  0.00    +0.000 OA
ATOM     15  C   UNL     1      -1.060  11.775  18.433  0.00  0.00    +0.000 C 
ENDBRANCH  11  14
ENDBRANCH   2   9
ENDBRANCH   1   4
BRANCH   1  16
ATOM     16  C   UNL     1       1.936   3.735  20.306  0.00  0.00    +0.000 C 
ATOM     17  O   UNL     1       0.749   3.637  20.599  0.00  0.00    +0.000 OA
BRANCH  16  18
ATOM     18  O   UNL     1       2.681   2.743  19.745  0.00  0.00    +0.000 OA
BRANCH  18  19
ATOM     19  C   UNL     1       2.534   2.611  18.330  0.00  0.00    +0.000 C 
BRANCH  19  20
ATOM     20  C   UNL     1       3.468   3.616  17.657  0.00  0.00    +0.000 C 
ATOM     21  O   UNL     1       3.047   4.638  17.115  0.00  0.00    +0.000 OA
ATOM     22  N   UNL     1       4.802   3.232  17.666  0.00  0.00    +0.000 N 
ATOM     23  H   UNL     1       4.995   2.237  17.652  0.00  0.00    +0.000 HD
BRANCH  22  24
ATOM     24  C   UNL     1       5.721   4.042  17.026  0.00  0.00    +0.000 A 
ATOM     25  S   UNL     1       5.765   3.824  15.339  0.00  0.00    +0.000 S 
ATOM     26  C   UNL     1       6.835   5.150  15.149  0.00  0.00    +0.000 A 
ATOM     27  C   UNL     1       7.241   5.657  16.365  0.00  0.00    +0.000 A 
ATOM     28  C   UNL     1       6.604   5.003  17.467  0.00  0.00    +0.000 A 
BRANCH  28  29
ATOM     29  C   UNL     1       6.910   5.275  18.842  0.00  0.00    +0.000 C 
ATOM     30  N   UNL     1       7.199   5.427  19.956  0.00  0.00    +0.000 NA
ENDBRANCH  28  29
ENDBRANCH  22  24
ENDBRANCH  19  20
ENDBRANCH  18  19
ENDBRANCH  16  18
ENDBRANCH   1  16
TORSDOF 10
ENDMDL
MODEL 8
REMARK VINA RESULT:      -6.9      2.017      2.767
REMARK  Name = 
REMARK  12 active torsions:
REMARK  status: ('A' for Active; 'I' for Inactive)
REMARK    1  A    between atoms: C_1  and  O_2
REMARK    2  A    between atoms: O_2  and  C_3
REMARK    3  A    between atoms: C_6  and  C_7
REMARK    4  A    between atoms: N_9  and  C_10
REMARK    5  A    between atoms: C_10  and  C_11
REMARK    6  A    between atoms: C_11  and  O_13
REMARK    7  A    between atoms: O_13  and  C_14
REMARK    8  A    between atoms: C_14  and  C_15
REMARK    9  A    between atoms: N_17  and  C_18
REMARK   10  A    between atoms: C_22  and  C_23
REMARK   11  A    between atoms: C_26  and  O_27
REMARK   12  A    between atoms: O_27  and  C_28
REMARK                            x       y       z     vdW  Elec       q    Type
REMARK                         _______ _______ _______ _____ _____    ______ ____
ROOT
ATOM      1  C   UNL     1       6.986   6.397  16.825  0.00  0.00    +0.000 C 
ENDROOT
BRANCH   1   4
ATOM      2  C   UNL     1       8.164   8.071  18.175  0.00  0.00    +0.000 C 
ATOM      3  O   UNL     1       8.534   7.235  18.992  0.00  0.00    +0.000 OA
ATOM      4  N   UNL     1       7.402   7.764  17.069  0.00  0.00    +0.000 N 
ATOM      5  H   UNL     1       7.065   8.486  16.448  0.00  0.00    +0.000 HD
BRANCH   2   9
ATOM      6  C   UNL     1       9.416  12.146  18.668  0.00  0.00    +0.000 A 
ATOM      7  C   UNL     1       9.929  11.125  19.478  0.00  0.00    +0.000 A 
ATOM      8  C   UNL     1       9.508   9.803  19.309  0.00  0.00    +0.000 A 
ATOM      9  C   UNL     1       8.521   9.498  18.371  0.00  0.00    +0.000 A 
ATOM     10  C   UNL     1       7.951  10.525  17.619  0.00  0.00    +0.000 A 
ATOM     11  C   UNL     1       8.381  11.853  17.763  0.00  0.00    +0.000 A 
BRANCH   6  13
ATOM     12  C   UNL     1      11.304  13.538  18.982  0.00  0.00    +0.000 C 
ATOM     13  O   UNL     1       9.897  13.426  18.765  0.00  0.00    +0.000 OA
ENDBRANCH   6  13
BRANCH  11  14
ATOM     14  O   UNL     1       7.705  12.695  16.922  0.00  0.00    +0.000 OA
ATOM     15  C   UNL     1       6.974  13.782  17.464  0.00  0.00    +0.000 C 
ENDBRANCH  11  14
ENDBRANCH   2   9
ENDBRANCH   1   4
BRANCH   1  16
ATOM     16  C   UNL     1       5.750   6.300  15.942  0.00  0.00    +0.000 C 
ATOM     17  O   UNL     1       5.044   7.251  15.625  0.00  0.00    +0.000 OA
BRANCH  16  18
ATOM     18  O   UNL     1       5.550   5.015  15.539  0.00  0.00    +0.000 OA
BRANCH  18  19
ATOM     19  C   UNL     1       5.775   4.029  16.547  0.00  0.00    +0.000 C 
BRANCH  19  20
ATOM     20  C   UNL     1       4.511   3.922  17.401  0.00  0.00    +0.000 C 
ATOM     21  O   UNL     1       3.408   3.685  16.908  0.00  0.00    +0.000 OA
ATOM     22  N   UNL     1       4.724   4.179  18.748  0.00  0.00    +0.000 N 
ATOM     23  H   UNL     1       5.468   4.825  18.983  0.00  0.00    +0.000 HD
BRANCH  22  24
ATOM     24  C   UNL     1       3.633   4.170  19.596  0.00  0.00    +0.000 A 
ATOM     25  S   UNL     1       3.373   2.672  20.360  0.00  0.00    +0.000 S 
ATOM     26  C   UNL     1       2.138   3.335  21.345  0.00  0.00    +0.000 A 
ATOM     27  C   UNL     1       1.852   4.639  20.999  0.00  0.00    +0.000 A 
ATOM     28  C   UNL     1       2.714   5.128  19.966  0.00  0.00    +0.000 A 
BRANCH  28  29
ATOM     29  C   UNL     1       2.577   6.420  19.358  0.00  0.00    +0.000 C 
ATOM     30  N   UNL     1       2.400   7.441  18.833  0.00  0.00    +0.000 NA
ENDBRANCH  28  29
ENDBRANCH  22  24
ENDBRANCH  19  20
ENDBRANCH  18  19
ENDBRANCH  16  18
ENDBRANCH   1  16
TORSDOF 10
ENDMDL
MODEL 9
REMARK VINA RESULT:      -6.9      5.840      9.594
REMARK  Name = 
REMARK  12 active torsions:
REMARK  status: ('A' for Active; 'I' for Inactive)
REMARK    1  A    between atoms: C_1  and  O_2
REMARK    2  A    between atoms: O_2  and  C_3
REMARK    3  A    between atoms: C_6  and  C_7
REMARK    4  A    between atoms: N_9  and  C_10
REMARK    5  A    between atoms: C_10  and  C_11
REMARK    6  A    between atoms: C_11  and  O_13
REMARK    7  A    between atoms: O_13  and  C_14
REMARK    8  A    between atoms: C_14  and  C_15
REMARK    9  A    between atoms: N_17  and  C_18
REMARK   10  A    between atoms: C_22  and  C_23
REMARK   11  A    between atoms: C_26  and  O_27
REMARK   12  A    between atoms: O_27  and  C_28
REMARK                            x       y       z     vdW  Elec       q    Type
REMARK                         _______ _______ _______ _____ _____    ______ ____
ROOT
ATOM      1  C   UNL     1       2.114   8.740  18.487  0.00  0.00    +0.000 C 
ENDROOT
BRANCH   1   4
ATOM      2  C   UNL     1       0.132  10.166  18.711  0.00  0.00    +0.000 C 
ATOM      3  O   UNL     1       0.629  10.810  19.628  0.00  0.00    +0.000 OA
ATOM      4  N   UNL     1       0.780   9.129  18.076  0.00  0.00    +0.000 N 
ATOM      5  H   UNL     1       0.318   8.580  17.364  0.00  0.00    +0.000 HD
BRANCH   2   9
ATOM      6  C   UNL     1      -3.775  11.299  17.345  0.00  0.00    +0.000 A 
ATOM      7  C   UNL     1      -3.240  11.820  18.531  0.00  0.00    +0.000 A 
ATOM      8  C   UNL     1      -1.968  11.437  18.965  0.00  0.00    +0.000 A 
ATOM      9  C   UNL     1      -1.243  10.481  18.253  0.00  0.00    +0.000 A 
ATOM     10  C   UNL     1      -1.807   9.903  17.117  0.00  0.00    +0.000 A 
ATOM     11  C   UNL     1      -3.074  10.295  16.657  0.00  0.00    +0.000 A 
BRANCH   6  13
ATOM     12  C   UNL     1      -6.087  11.596  17.755  0.00  0.00    +0.000 C 
ATOM     13  O   UNL     1      -4.979  11.745  16.865  0.00  0.00    +0.000 OA
ENDBRANCH   6  13
BRANCH  11  14
ATOM     14  O   UNL     1      -3.429   9.617  15.521  0.00  0.00    +0.000 OA
ATOM     15  C   UNL     1      -3.085  10.153  14.254  0.00  0.00    +0.000 C 
ENDBRANCH  11  14
ENDBRANCH   2   9
ENDBRANCH   1   4
BRANCH   1  16
ATOM     16  C   UNL     1       2.116   7.639  19.538  0.00  0.00    +0.000 C 
ATOM     17  O   UNL     1       1.838   7.804  20.721  0.00  0.00    +0.000 OA
BRANCH  16  18
ATOM     18  O   UNL     1       2.448   6.443  18.978  0.00  0.00    +0.000 OA
BRANCH  18  19
ATOM     19  C   UNL     1       3.291   5.618  19.784  0.00  0.00    +0.000 C 
BRANCH  19  20
ATOM     20  C   UNL     1       4.429   5.097  18.907  0.00  0.00    +0.000 C 
ATOM     21  O   UNL     1       5.263   4.295  19.328  0.00  0.00    +0.000 OA
ATOM     22  N   UNL     1       4.460   5.660  17.639  0.00  0.00    +0.000 N 
ATOM     23  H   UNL     1       4.110   6.607  17.546  0.00  0.00    +0.000 HD
BRANCH  22  24
ATOM     24  C   UNL     1       5.489   5.303  16.789  0.00  0.00    +0.000 A 
ATOM     25  S   UNL     1       5.162   3.912  15.866  0.00  0.00    +0.000 S 
ATOM     26  C   UNL     1       6.596   4.123  14.952  0.00  0.00    +0.000 A 
ATOM     27  C   UNL     1       7.362   5.162  15.436  0.00  0.00    +0.000 A 
ATOM     28  C   UNL     1       6.727   5.846  16.521  0.00  0.00    +0.000 A 
BRANCH  28  29
ATOM     29  C   UNL     1       7.342   6.908  17.263  0.00  0.00    +0.000 C 
ATOM     30  N   UNL     1       7.856   7.803  17.797  0.00  0.00    +0.000 NA
ENDBRANCH  28  29
ENDBRANCH  22  24
ENDBRANCH  19  20
ENDBRANCH  18  19
ENDBRANCH  16  18
ENDBRANCH   1  16
TORSDOF 10
ENDMDL
