MODEL 1
REMARK VINA RESULT:      -8.4      0.000      0.000
REMARK  Name = 
REMARK  1 active torsions:
REMARK  status: ('A' for Active; 'I' for Inactive)
REMARK    1  A    between atoms: N_11  and  C_12
REMARK                            x       y       z     vdW  Elec       q    Type
REMARK                         _______ _______ _______ _____ _____    ______ ____
ROOT
ATOM      1  O   UNL     1       2.752   3.291  16.583  0.00  0.00    +0.000 OA
ATOM      2  C   UNL     1       3.803   3.682  17.053  0.00  0.00    +0.000 C 
ATOM      3  C   UNL     1       4.951   4.083  16.236  0.00  0.00    +0.000 A 
ATOM      4  C   UNL     1       5.110   4.106  14.865  0.00  0.00    +0.000 A 
ATOM      5  C   UNL     1       6.342   4.547  14.370  0.00  0.00    +0.000 A 
ATOM      6  C   UNL     1       7.373   4.946  15.245  0.00  0.00    +0.000 A 
ATOM      7  C   UNL     1       7.182   4.930  16.630  0.00  0.00    +0.000 A 
ATOM      8  C   UNL     1       5.951   4.509  17.094  0.00  0.00    +0.000 A 
ATOM      9  C   UNL     1       5.438   4.420  18.460  0.00  0.00    +0.000 C 
ATOM     10  O   UNL     1       6.097   4.698  19.442  0.00  0.00    +0.000 OA
ATOM     11  N   UNL     1       4.163   3.919  18.356  0.00  0.00    +0.000 N 
ENDROOT
BRANCH  11  12
ATOM     12  C   UNL     1       3.311   3.717  19.454  0.00  0.00    +0.000 A 
ATOM     13  C   UNL     1       2.255   4.591  19.712  0.00  0.00    +0.000 A 
ATOM     14  F   UNL     1       1.996   5.606  18.874  0.00  0.00    +0.000 F 
ATOM     15  C   UNL     1       1.396   4.381  20.791  0.00  0.00    +0.000 A 
ATOM     16  C   UNL     1       1.610   3.304  21.653  0.00  0.00    +0.000 A 
ATOM     17  C   UNL     1       2.674   2.434  21.418  0.00  0.00    +0.000 A 
ATOM     18  C   UNL     1       3.504   2.636  20.314  0.00  0.00    +0.000 A 
ATOM     19  F   UNL     1       4.550   1.812  20.141  0.00  0.00    +0.000 F 
ENDBRANCH  11  12
TORSDOF 1
ENDMDL
MODEL 2
REMARK VINA RESULT:      -8.4      0.010      1.894
REMARK  Name = 
REMARK  1 active torsions:
REMARK  status: ('A' for Active; 'I' for Inactive)
REMARK    1  A    between atoms: N_11  and  C_12
REMARK                            x       y       z     vdW  Elec       q    Type
REMARK                         _______ _______ _______ _____ _____    ______ ____
ROOT
ATOM      1  O   UNL     1       2.757   3.276  16.586  0.00  0.00    +0.000 OA
ATOM      2  C   UNL     1       3.806   3.672  17.056  0.00  0.00    +0.000 C 
ATOM      3  C   UNL     1       4.953   4.077  16.239  0.00  0.00    +0.000 A 
ATOM      4  C   UNL     1       5.112   4.100  14.868  0.00  0.00    +0.000 A 
ATOM      5  C   UNL     1       6.342   4.546  14.373  0.00  0.00    +0.000 A 
ATOM      6  C   UNL     1       7.371   4.950  15.248  0.00  0.00    +0.000 A 
ATOM      7  C   UNL     1       7.179   4.936  16.633  0.00  0.00    +0.000 A 
ATOM      8  C   UNL     1       5.950   4.509  17.097  0.00  0.00    +0.000 A 
ATOM      9  C   UNL     1       5.437   4.420  18.463  0.00  0.00    +0.000 C 
ATOM     10  O   UNL     1       6.095   4.701  19.445  0.00  0.00    +0.000 OA
ATOM     11  N   UNL     1       4.164   3.912  18.359  0.00  0.00    +0.000 N 
ENDROOT
BRANCH  11  12
ATOM     12  C   UNL     1       3.313   3.708  19.457  0.00  0.00    +0.000 A 
ATOM     13  C   UNL     1       3.505   2.632  20.323  0.00  0.00    +0.000 A 
ATOM     14  F   UNL     1       4.550   1.807  20.156  0.00  0.00    +0.000 F 
ATOM     15  C   UNL     1       2.672   2.438  21.425  0.00  0.00    +0.000 A 
ATOM     16  C   UNL     1       1.606   3.309  21.653  0.00  0.00    +0.000 A 
ATOM     17  C   UNL     1       1.390   4.379  20.785  0.00  0.00    +0.000 A 
ATOM     18  C   UNL     1       2.252   4.580  19.706  0.00  0.00    +0.000 A 
ATOM     19  F   UNL     1       1.992   5.588  18.858  0.00  0.00    +0.000 F 
ENDBRANCH  11  12
TORSDOF 1
ENDMDL
MODEL 3
REMARK VINA RESULT:      -8.4      0.213      2.770
REMARK  Name = 
REMARK  1 active torsions:
REMARK  status: ('A' for Active; 'I' for Inactive)
REMARK    1  A    between atoms: N_11  and  C_12
REMARK                            x       y       z     vdW  Elec       q    Type
REMARK                         _______ _______ _______ _____ _____    ______ ____
ROOT
ATOM      1  O   UNL     1       6.028   4.938  19.635  0.00  0.00    +0.000 OA
ATOM      2  C   UNL     1       5.435   4.595  18.632  0.00  0.00    +0.000 C 
ATOM      3  C   UNL     1       6.019   4.657  17.289  0.00  0.00    +0.000 A 
ATOM      4  C   UNL     1       7.264   5.086  16.874  0.00  0.00    +0.000 A 
ATOM      5  C   UNL     1       7.539   5.024  15.504  0.00  0.00    +0.000 A 
ATOM      6  C   UNL     1       6.574   4.546  14.592  0.00  0.00    +0.000 A 
ATOM      7  C   UNL     1       5.327   4.100  15.040  0.00  0.00    +0.000 A 
ATOM      8  C   UNL     1       5.086   4.154  16.399  0.00  0.00    +0.000 A 
ATOM      9  C   UNL     1       3.916   3.731  17.168  0.00  0.00    +0.000 C 
ATOM     10  O   UNL     1       2.911   3.273  16.660  0.00  0.00    +0.000 OA
ATOM     11  N   UNL     1       4.194   4.028  18.480  0.00  0.00    +0.000 N 
ENDROOT
BRANCH  11  12
ATOM     12  C   UNL     1       3.328   3.740  19.546  0.00  0.00    +0.000 A 
ATOM     13  C   UNL     1       3.566   2.655  20.390  0.00  0.00    +0.000 A 
ATOM     14  F   UNL     1       4.666   1.904  20.234  0.00  0.00    +0.000 F 
ATOM     15  C   UNL     1       2.716   2.378  21.462  0.00  0.00    +0.000 A 
ATOM     16  C   UNL     1       1.589   3.172  21.680  0.00  0.00    +0.000 A 
ATOM     17  C   UNL     1       1.329   4.249  20.833  0.00  0.00    +0.000 A 
ATOM     18  C   UNL     1       2.206   4.534  19.785  0.00  0.00    +0.000 A 
ATOM     19  F   UNL     1       1.904   5.546  18.956  0.00  0.00    +0.000 F 
ENDBRANCH  11  12
TORSDOF 1
ENDMDL
MODEL 4
REMARK VINA RESULT:      -8.3      0.162      2.018
REMARK  Name = 
REMARK  1 active torsions:
REMARK  status: ('A' for Active; 'I' for Inactive)
REMARK    1  A    between atoms: N_11  and  C_12
REMARK                            x       y       z     vdW  Elec       q    Type
REMARK                         _______ _______ _______ _____ _____    ______ ____
ROOT
ATOM      1  O   UNL     1       5.969   4.902  19.575  0.00  0.00    +0.000 OA
ATOM      2  C   UNL     1       5.360   4.565  18.578  0.00  0.00    +0.000 C 
ATOM      3  C   UNL     1       5.928   4.621  17.229  0.00  0.00    +0.000 A 
ATOM      4  C   UNL     1       7.172   5.038  16.798  0.00  0.00    +0.000 A 
ATOM      5  C   UNL     1       7.429   4.973  15.425  0.00  0.00    +0.000 A 
ATOM      6  C   UNL     1       6.450   4.504  14.525  0.00  0.00    +0.000 A 
ATOM      7  C   UNL     1       5.203   4.071  14.988  0.00  0.00    +0.000 A 
ATOM      8  C   UNL     1       4.980   4.126  16.350  0.00  0.00    +0.000 A 
ATOM      9  C   UNL     1       3.815   3.715  17.133  0.00  0.00    +0.000 C 
ATOM     10  O   UNL     1       2.800   3.266  16.637  0.00  0.00    +0.000 OA
ATOM     11  N   UNL     1       4.112   4.009  18.441  0.00  0.00    +0.000 N 
ENDROOT
BRANCH  11  12
ATOM     12  C   UNL     1       3.256   3.729  19.518  0.00  0.00    +0.000 A 
ATOM     13  C   UNL     1       2.134   4.519  19.767  0.00  0.00    +0.000 A 
ATOM     14  F   UNL     1       1.819   5.526  18.939  0.00  0.00    +0.000 F 
ATOM     15  C   UNL     1       1.272   4.231  20.825  0.00  0.00    +0.000 A 
ATOM     16  C   UNL     1       1.547   3.159  21.675  0.00  0.00    +0.000 A 
ATOM     17  C   UNL     1       2.676   2.371  21.450  0.00  0.00    +0.000 A 
ATOM     18  C   UNL     1       3.511   2.650  20.367  0.00  0.00    +0.000 A 
ATOM     19  F   UNL     1       4.616   1.907  20.204  0.00  0.00    +0.000 F 
ENDBRANCH  11  12
TORSDOF 1
ENDMDL
MODEL 5
REMARK VINA RESULT:      -7.7      2.386      2.714
REMARK  Name = 
REMARK  1 active torsions:
REMARK  status: ('A' for Active; 'I' for Inactive)
REMARK    1  A    between atoms: N_11  and  C_12
REMARK                            x       y       z     vdW  Elec       q    Type
REMARK                         _______ _______ _______ _____ _____    ______ ____
ROOT
ATOM      1  O   UNL     1       2.928   6.498  17.510  0.00  0.00    +0.000 OA
ATOM      2  C   UNL     1       3.856   5.869  17.978  0.00  0.00    +0.000 C 
ATOM      3  C   UNL     1       5.251   6.314  17.902  0.00  0.00    +0.000 A 
ATOM      4  C   UNL     1       5.800   7.443  17.329  0.00  0.00    +0.000 A 
ATOM      5  C   UNL     1       7.187   7.598  17.419  0.00  0.00    +0.000 A 
ATOM      6  C   UNL     1       7.983   6.631  18.067  0.00  0.00    +0.000 A 
ATOM      7  C   UNL     1       7.401   5.504  18.655  0.00  0.00    +0.000 A 
ATOM      8  C   UNL     1       6.027   5.383  18.570  0.00  0.00    +0.000 A 
ATOM      9  C   UNL     1       5.135   4.359  19.110  0.00  0.00    +0.000 C 
ATOM     10  O   UNL     1       5.527   3.386  19.724  0.00  0.00    +0.000 OA
ATOM     11  N   UNL     1       3.867   4.711  18.716  0.00  0.00    +0.000 N 
ENDROOT
BRANCH  11  12
ATOM     12  C   UNL     1       2.713   3.995  19.067  0.00  0.00    +0.000 A 
ATOM     13  C   UNL     1       2.133   3.088  18.180  0.00  0.00    +0.000 A 
ATOM     14  F   UNL     1       2.710   2.839  16.995  0.00  0.00    +0.000 F 
ATOM     15  C   UNL     1       0.996   2.361  18.535  0.00  0.00    +0.000 A 
ATOM     16  C   UNL     1       0.402   2.564  19.781  0.00  0.00    +0.000 A 
ATOM     17  C   UNL     1       0.959   3.481  20.671  0.00  0.00    +0.000 A 
ATOM     18  C   UNL     1       2.116   4.176  20.316  0.00  0.00    +0.000 A 
ATOM     19  F   UNL     1       2.602   5.088  21.172  0.00  0.00    +0.000 F 
ENDBRANCH  11  12
TORSDOF 1
ENDMDL
MODEL 6
REMARK VINA RESULT:      -7.7      2.396      2.626
REMARK  Name = 
REMARK  1 active torsions:
REMARK  status: ('A' for Active; 'I' for Inactive)
REMARK    1  A    between atoms: N_11  and  C_12
REMARK                            x       y       z     vdW  Elec       q    Type
REMARK                         _______ _______ _______ _____ _____    ______ ____
ROOT
ATOM      1  O   UNL     1       2.936   6.526  17.487  0.00  0.00    +0.000 OA
ATOM      2  C   UNL     1       3.862   5.900  17.963  0.00  0.00    +0.000 C 
ATOM      3  C   UNL     1       5.256   6.345  17.895  0.00  0.00    +0.000 A 
ATOM      4  C   UNL     1       5.808   7.473  17.323  0.00  0.00    +0.000 A 
ATOM      5  C   UNL     1       7.195   7.629  17.422  0.00  0.00    +0.000 A 
ATOM      6  C   UNL     1       7.987   6.665  18.078  0.00  0.00    +0.000 A 
ATOM      7  C   UNL     1       7.402   5.539  18.665  0.00  0.00    +0.000 A 
ATOM      8  C   UNL     1       6.030   5.417  18.571  0.00  0.00    +0.000 A 
ATOM      9  C   UNL     1       5.134   4.394  19.108  0.00  0.00    +0.000 C 
ATOM     10  O   UNL     1       5.523   3.423  19.728  0.00  0.00    +0.000 OA
ATOM     11  N   UNL     1       3.869   4.744  18.705  0.00  0.00    +0.000 N 
ENDROOT
BRANCH  11  12
ATOM     12  C   UNL     1       2.712   4.028  19.050  0.00  0.00    +0.000 A 
ATOM     13  C   UNL     1       2.105   4.202  20.294  0.00  0.00    +0.000 A 
ATOM     14  F   UNL     1       2.584   5.109  21.159  0.00  0.00    +0.000 F 
ATOM     15  C   UNL     1       0.945   3.505  20.632  0.00  0.00    +0.000 A 
ATOM     16  C   UNL     1       0.396   2.591  19.732  0.00  0.00    +0.000 A 
ATOM     17  C   UNL     1       1.002   2.392  18.493  0.00  0.00    +0.000 A 
ATOM     18  C   UNL     1       2.143   3.121  18.154  0.00  0.00    +0.000 A 
ATOM     19  F   UNL     1       2.734   2.874  16.975  0.00  0.00    +0.000 F 
ENDBRANCH  11  12
TORSDOF 1
ENDMDL
MODEL 7
REMARK VINA RESULT:      -7.6      2.412      5.396
REMARK  Name = 
REMARK  1 active torsions:
REMARK  status: ('A' for Active; 'I' for Inactive)
REMARK    1  A    between atoms: N_11  and  C_12
REMARK                            x       y       z     vdW  Elec       q    Type
REMARK                         _______ _______ _______ _____ _____    ______ ____
ROOT
ATOM      1  O   UNL     1       4.825   3.328  16.841  0.00  0.00    +0.000 OA
ATOM      2  C   UNL     1       4.164   3.923  17.669  0.00  0.00    +0.000 C 
ATOM      3  C   UNL     1       2.903   3.412  18.213  0.00  0.00    +0.000 A 
ATOM      4  C   UNL     1       2.219   2.245  17.940  0.00  0.00    +0.000 A 
ATOM      5  C   UNL     1       1.021   2.027  18.630  0.00  0.00    +0.000 A 
ATOM      6  C   UNL     1       0.540   2.971  19.561  0.00  0.00    +0.000 A 
ATOM      7  C   UNL     1       1.261   4.138  19.834  0.00  0.00    +0.000 A 
ATOM      8  C   UNL     1       2.450   4.320  19.154  0.00  0.00    +0.000 A 
ATOM      9  C   UNL     1       3.434   5.398  19.247  0.00  0.00    +0.000 C 
ATOM     10  O   UNL     1       3.300   6.366  19.970  0.00  0.00    +0.000 OA
ATOM     11  N   UNL     1       4.417   5.096  18.336  0.00  0.00    +0.000 N 
ENDROOT
BRANCH  11  12
ATOM     12  C   UNL     1       5.569   5.874  18.144  0.00  0.00    +0.000 A 
ATOM     13  C   UNL     1       6.688   5.713  18.962  0.00  0.00    +0.000 A 
ATOM     14  F   UNL     1       6.702   4.764  19.910  0.00  0.00    +0.000 F 
ATOM     15  C   UNL     1       7.841   6.473  18.761  0.00  0.00    +0.000 A 
ATOM     16  C   UNL     1       7.873   7.435  17.751  0.00  0.00    +0.000 A 
ATOM     17  C   UNL     1       6.756   7.620  16.938  0.00  0.00    +0.000 A 
ATOM     18  C   UNL     1       5.621   6.830  17.128  0.00  0.00    +0.000 A 
ATOM     19  F   UNL     1       4.543   7.063  16.363  0.00  0.00    +0.000 F 
ENDBRANCH  11  12
TORSDOF 1
ENDMDL
MODEL 8
REMARK VINA RESULT:      -7.6      2.401      5.108
REMARK  Name = 
REMARK  1 active torsions:
REMARK  status: ('A' for Active; 'I' for Inactive)
REMARK    1  A    between atoms: N_11  and  C_12
REMARK                            x       y       z     vdW  Elec       q    Type
REMARK                         _______ _______ _______ _____ _____    ______ ____
ROOT
ATOM      1  O   UNL     1       4.821   3.360  16.758  0.00  0.00    +0.000 OA
ATOM      2  C   UNL     1       4.172   3.935  17.610  0.00  0.00    +0.000 C 
ATOM      3  C   UNL     1       2.920   3.409  18.161  0.00  0.00    +0.000 A 
ATOM      4  C   UNL     1       2.232   2.248  17.870  0.00  0.00    +0.000 A 
ATOM      5  C   UNL     1       1.046   2.013  18.573  0.00  0.00    +0.000 A 
ATOM      6  C   UNL     1       0.578   2.933  19.534  0.00  0.00    +0.000 A 
ATOM      7  C   UNL     1       1.302   4.094  19.823  0.00  0.00    +0.000 A 
ATOM      8  C   UNL     1       2.480   4.294  19.129  0.00  0.00    +0.000 A 
ATOM      9  C   UNL     1       3.464   5.371  19.233  0.00  0.00    +0.000 C 
ATOM     10  O   UNL     1       3.341   6.321  19.981  0.00  0.00    +0.000 OA
ATOM     11  N   UNL     1       4.434   5.092  18.301  0.00  0.00    +0.000 N 
ENDROOT
BRANCH  11  12
ATOM     12  C   UNL     1       5.582   5.876  18.110  0.00  0.00    +0.000 A 
ATOM     13  C   UNL     1       5.643   6.823  17.088  0.00  0.00    +0.000 A 
ATOM     14  F   UNL     1       4.576   7.045  16.307  0.00  0.00    +0.000 F 
ATOM     15  C   UNL     1       6.777   7.616  16.909  0.00  0.00    +0.000 A 
ATOM     16  C   UNL     1       7.886   7.442  17.737  0.00  0.00    +0.000 A 
ATOM     17  C   UNL     1       7.847   6.486  18.752  0.00  0.00    +0.000 A 
ATOM     18  C   UNL     1       6.693   5.723  18.941  0.00  0.00    +0.000 A 
ATOM     19  F   UNL     1       6.701   4.777  19.893  0.00  0.00    +0.000 F 
ENDBRANCH  11  12
TORSDOF 1
ENDMDL
MODEL 9
REMARK VINA RESULT:      -7.6      2.398      3.205
REMARK  Name = 
REMARK  1 active torsions:
REMARK  status: ('A' for Active; 'I' for Inactive)
REMARK    1  A    between atoms: N_11  and  C_12
REMARK                            x       y       z     vdW  Elec       q    Type
REMARK                         _______ _______ _______ _____ _____    ______ ____
ROOT
ATOM      1  O   UNL     1       5.527   3.554  19.869  0.00  0.00    +0.000 OA
ATOM      2  C   UNL     1       5.170   4.509  19.206  0.00  0.00    +0.000 C 
ATOM      3  C   UNL     1       6.097   5.506  18.665  0.00  0.00    +0.000 A 
ATOM      4  C   UNL     1       7.469   5.603  18.772  0.00  0.00    +0.000 A 
ATOM      5  C   UNL     1       8.087   6.685  18.135  0.00  0.00    +0.000 A 
ATOM      6  C   UNL     1       7.328   7.634  17.421  0.00  0.00    +0.000 A 
ATOM      7  C   UNL     1       5.940   7.505  17.313  0.00  0.00    +0.000 A 
ATOM      8  C   UNL     1       5.356   6.418  17.934  0.00  0.00    +0.000 A 
ATOM      9  C   UNL     1       3.958   5.990  17.968  0.00  0.00    +0.000 C 
ATOM     10  O   UNL     1       3.055   6.609  17.439  0.00  0.00    +0.000 OA
ATOM     11  N   UNL     1       3.925   4.857  18.743  0.00  0.00    +0.000 N 
ENDROOT
BRANCH  11  12
ATOM     12  C   UNL     1       2.760   4.115  18.993  0.00  0.00    +0.000 A 
ATOM     13  C   UNL     1       2.410   3.034  18.183  0.00  0.00    +0.000 A 
ATOM     14  F   UNL     1       3.219   2.647  17.185  0.00  0.00    +0.000 F 
ATOM     15  C   UNL     1       1.262   2.284  18.441  0.00  0.00    +0.000 A 
ATOM     16  C   UNL     1       0.426   2.634  19.502  0.00  0.00    +0.000 A 
ATOM     17  C   UNL     1       0.754   3.722  20.309  0.00  0.00    +0.000 A 
ATOM     18  C   UNL     1       1.923   4.443  20.061  0.00  0.00    +0.000 A 
ATOM     19  F   UNL     1       2.187   5.516  20.822  0.00  0.00    +0.000 F 
ENDBRANCH  11  12
TORSDOF 1
ENDMDL
