MODEL 1
REMARK VINA RESULT:      -7.2      0.000      0.000
REMARK  Name = 
REMARK  5 active torsions:
REMARK  status: ('A' for Active; 'I' for Inactive)
REMARK    1  A    between atoms: C_1  and  S_2
REMARK    2  A    between atoms: S_2  and  C_3
REMARK    3  A    between atoms: C_5  and  O_6
REMARK    4  A    between atoms: N_13  and  C_14
REMARK    5  A    between atoms: C_14  and  C_15
REMARK                            x       y       z     vdW  Elec       q    Type
REMARK                         _______ _______ _______ _____ _____    ______ ____
ROOT
ATOM      1  C   UNL     1       3.181   4.304  17.650  0.00  0.00    +0.000 A 
ATOM      2  N   UNL     1       3.876   3.644  16.760  0.00  0.00    +0.000 NA
ATOM      3  C   UNL     1       5.246   3.712  16.846  0.00  0.00    +0.000 A 
ATOM      4  C   UNL     1       5.914   4.414  17.766  0.00  0.00    +0.000 A 
ATOM      5  N   UNL     1       7.230   4.588  18.068  0.00  0.00    +0.000 NA
ATOM      6  C   UNL     1       7.185   5.333  19.134  0.00  0.00    +0.000 A 
ATOM      7  N   UNL     1       8.302   5.737  19.773  0.00  0.00    +0.000 N 
ATOM      8  N   UNL     1       5.929   5.710  19.583  0.00  0.00    +0.000 NA
ATOM      9  C   UNL     1       5.106   5.140  18.749  0.00  0.00    +0.000 A 
ATOM     10  N   UNL     1       3.729   5.085  18.671  0.00  0.00    +0.000 N 
ATOM     11  H   UNL     1       9.129   5.654  19.195  0.00  0.00    +0.000 HD
ATOM     12  H   UNL     1       8.204   6.624  20.247  0.00  0.00    +0.000 HD
ENDROOT
BRANCH   1  14
ATOM     13  C   UNL     1       1.223   2.660  18.570  0.00  0.00    +0.000 C 
ATOM     14  S   UNL     1       1.435   4.102  17.503  0.00  0.00    +0.000 S 
ENDBRANCH   1  14
BRANCH   3  15
ATOM     15  O   UNL     1       5.922   2.957  15.916  0.00  0.00    +0.000 OA
ATOM     16  H   UNL     1       5.628   2.053  16.122  0.00  0.00    +0.000 HD
ENDBRANCH   3  15
BRANCH  10  17
ATOM     17  C   UNL     1       2.955   5.598  19.801  0.00  0.00    +0.000 C 
BRANCH  17  18
ATOM     18  C   UNL     1       2.420   7.008  19.624  0.00  0.00    +0.000 A 
ATOM     19  C   UNL     1       2.508   7.671  18.388  0.00  0.00    +0.000 A 
ATOM     20  C   UNL     1       1.868   8.897  18.185  0.00  0.00    +0.000 A 
ATOM     21  C   UNL     1       1.132   9.479  19.212  0.00  0.00    +0.000 A 
ATOM     22  C   UNL     1       1.065   8.853  20.455  0.00  0.00    +0.000 A 
ATOM     23  C   UNL     1       1.713   7.632  20.664  0.00  0.00    +0.000 A 
ENDBRANCH  17  18
ENDBRANCH  10  17
TORSDOF 4
ENDMDL
MODEL 2
REMARK VINA RESULT:      -7.2      2.687      5.059
REMARK  Name = 
REMARK  5 active torsions:
REMARK  status: ('A' for Active; 'I' for Inactive)
REMARK    1  A    between atoms: C_1  and  S_2
REMARK    2  A    between atoms: S_2  and  C_3
REMARK    3  A    between atoms: C_5  and  O_6
REMARK    4  A    between atoms: N_13  and  C_14
REMARK    5  A    between atoms: C_14  and  C_15
REMARK                            x       y       z     vdW  Elec       q    Type
REMARK                         _______ _______ _______ _____ _____    ______ ____
ROOT
ATOM      1  C   UNL     1       2.609   6.106  18.452  0.00  0.00    +0.000 A 
ATOM      2  N   UNL     1       1.793   5.740  19.406  0.00  0.00    +0.000 NA
ATOM      3  C   UNL     1       1.768   4.408  19.745  0.00  0.00    +0.000 A 
ATOM      4  C   UNL     1       2.510   3.463  19.159  0.00  0.00    +0.000 A 
ATOM      5  N   UNL     1       2.684   2.127  19.351  0.00  0.00    +0.000 NA
ATOM      6  C   UNL     1       3.613   1.830  18.489  0.00  0.00    +0.000 A 
ATOM      7  N   UNL     1       4.095   0.578  18.358  0.00  0.00    +0.000 N 
ATOM      8  N   UNL     1       4.081   2.862  17.692  0.00  0.00    +0.000 NA
ATOM      9  C   UNL     1       3.414   3.907  18.095  0.00  0.00    +0.000 A 
ATOM     10  N   UNL     1       3.445   5.241  17.741  0.00  0.00    +0.000 N 
ATOM     11  H   UNL     1       3.480  -0.117  18.766  0.00  0.00    +0.000 HD
ATOM     12  H   UNL     1       4.420   0.359  17.427  0.00  0.00    +0.000 HD
ENDROOT
BRANCH   1  14
ATOM     13  C   UNL     1       1.705   8.404  19.584  0.00  0.00    +0.000 C 
ATOM     14  S   UNL     1       2.622   7.842  18.134  0.00  0.00    +0.000 S 
ENDBRANCH   1  14
BRANCH   3  15
ATOM     15  O   UNL     1       0.931   4.092  20.789  0.00  0.00    +0.000 OA
ATOM     16  H   UNL     1       0.457   4.927  20.941  0.00  0.00    +0.000 HD
ENDBRANCH   3  15
BRANCH  10  17
ATOM     17  C   UNL     1       4.526   5.696  16.868  0.00  0.00    +0.000 C 
BRANCH  17  18
ATOM     18  C   UNL     1       5.770   6.184  17.588  0.00  0.00    +0.000 A 
ATOM     19  C   UNL     1       6.334   5.451  18.647  0.00  0.00    +0.000 A 
ATOM     20  C   UNL     1       7.567   5.816  19.194  0.00  0.00    +0.000 A 
ATOM     21  C   UNL     1       8.254   6.918  18.696  0.00  0.00    +0.000 A 
ATOM     22  C   UNL     1       7.693   7.677  17.671  0.00  0.00    +0.000 A 
ATOM     23  C   UNL     1       6.453   7.320  17.129  0.00  0.00    +0.000 A 
ENDBRANCH  17  18
ENDBRANCH  10  17
TORSDOF 4
ENDMDL
MODEL 3
REMARK VINA RESULT:      -7.2      2.685      5.022
REMARK  Name = 
REMARK  5 active torsions:
REMARK  status: ('A' for Active; 'I' for Inactive)
REMARK    1  A    between atoms: C_1  and  S_2
REMARK    2  A    between atoms: S_2  and  C_3
REMARK    3  A    between atoms: C_5  and  O_6
REMARK    4  A    between atoms: N_13  and  C_14
REMARK    5  A    between atoms: C_14  and  C_15
REMARK                            x       y       z     vdW  Elec       q    Type
REMARK                         _______ _______ _______ _____ _____    ______ ____
ROOT
ATOM      1  C   UNL     1       2.832   6.224  18.267  0.00  0.00    +0.000 A 
ATOM      2  N   UNL     1       2.036   5.954  19.269  0.00  0.00    +0.000 NA
ATOM      3  C   UNL     1       1.957   4.645  19.682  0.00  0.00    +0.000 A 
ATOM      4  C   UNL     1       2.625   3.632  19.122  0.00  0.00    +0.000 A 
ATOM      5  N   UNL     1       2.737   2.301  19.381  0.00  0.00    +0.000 NA
ATOM      6  C   UNL     1       3.615   1.908  18.504  0.00  0.00    +0.000 A 
ATOM      7  N   UNL     1       4.026   0.627  18.425  0.00  0.00    +0.000 N 
ATOM      8  N   UNL     1       4.104   2.870  17.634  0.00  0.00    +0.000 NA
ATOM      9  C   UNL     1       3.508   3.969  18.003  0.00  0.00    +0.000 A 
ATOM     10  N   UNL     1       3.594   5.279  17.575  0.00  0.00    +0.000 N 
ATOM     11  H   UNL     1       3.393  -0.011  18.892  0.00  0.00    +0.000 HD
ATOM     12  H   UNL     1       4.303   0.342  17.496  0.00  0.00    +0.000 HD
ENDROOT
BRANCH   1  14
ATOM     13  C   UNL     1       1.741   8.583  19.057  0.00  0.00    +0.000 C 
ATOM     14  S   UNL     1       2.922   7.937  17.853  0.00  0.00    +0.000 S 
ENDBRANCH   1  14
BRANCH   3  15
ATOM     15  O   UNL     1       1.146   4.430  20.772  0.00  0.00    +0.000 OA
ATOM     16  H   UNL     1       1.782   4.394  21.506  0.00  0.00    +0.000 HD
ENDBRANCH   3  15
BRANCH  10  17
ATOM     17  C   UNL     1       4.662   5.628  16.639  0.00  0.00    +0.000 C 
BRANCH  17  18
ATOM     18  C   UNL     1       5.969   6.050  17.286  0.00  0.00    +0.000 A 
ATOM     19  C   UNL     1       6.580   7.274  16.964  0.00  0.00    +0.000 A 
ATOM     20  C   UNL     1       7.689   7.732  17.682  0.00  0.00    +0.000 A 
ATOM     21  C   UNL     1       8.205   6.975  18.729  0.00  0.00    +0.000 A 
ATOM     22  C   UNL     1       7.634   5.742  19.038  0.00  0.00    +0.000 A 
ATOM     23  C   UNL     1       6.531   5.277  18.314  0.00  0.00    +0.000 A 
ENDBRANCH  17  18
ENDBRANCH  10  17
TORSDOF 4
ENDMDL
MODEL 4
REMARK VINA RESULT:      -7.1      0.145      1.087
REMARK  Name = 
REMARK  5 active torsions:
REMARK  status: ('A' for Active; 'I' for Inactive)
REMARK    1  A    between atoms: C_1  and  S_2
REMARK    2  A    between atoms: S_2  and  C_3
REMARK    3  A    between atoms: C_5  and  O_6
REMARK    4  A    between atoms: N_13  and  C_14
REMARK    5  A    between atoms: C_14  and  C_15
REMARK                            x       y       z     vdW  Elec       q    Type
REMARK                         _______ _______ _______ _____ _____    ______ ____
ROOT
ATOM      1  C   UNL     1       3.239   4.281  17.697  0.00  0.00    +0.000 A 
ATOM      2  N   UNL     1       3.925   3.660  16.772  0.00  0.00    +0.000 NA
ATOM      3  C   UNL     1       5.296   3.743  16.836  0.00  0.00    +0.000 A 
ATOM      4  C   UNL     1       5.972   4.422  17.767  0.00  0.00    +0.000 A 
ATOM      5  N   UNL     1       7.290   4.603  18.051  0.00  0.00    +0.000 NA
ATOM      6  C   UNL     1       7.257   5.311  19.143  0.00  0.00    +0.000 A 
ATOM      7  N   UNL     1       8.379   5.708  19.776  0.00  0.00    +0.000 N 
ATOM      8  N   UNL     1       6.005   5.657  19.626  0.00  0.00    +0.000 NA
ATOM      9  C   UNL     1       5.173   5.104  18.788  0.00  0.00    +0.000 A 
ATOM     10  N   UNL     1       3.795   5.034  18.733  0.00  0.00    +0.000 N 
ATOM     11  H   UNL     1       9.197   5.655  19.180  0.00  0.00    +0.000 HD
ATOM     12  H   UNL     1       8.280   6.577  20.280  0.00  0.00    +0.000 HD
ENDROOT
BRANCH   1  14
ATOM     13  C   UNL     1       1.324   2.558  18.559  0.00  0.00    +0.000 C 
ATOM     14  S   UNL     1       1.493   4.062  17.574  0.00  0.00    +0.000 S 
ENDBRANCH   1  14
BRANCH   3  15
ATOM     15  O   UNL     1       5.964   3.028  15.870  0.00  0.00    +0.000 OA
ATOM     16  H   UNL     1       6.837   3.456  15.854  0.00  0.00    +0.000 HD
ENDBRANCH   3  15
BRANCH  10  17
ATOM     17  C   UNL     1       3.036   5.500  19.893  0.00  0.00    +0.000 C 
BRANCH  17  18
ATOM     18  C   UNL     1       2.310   6.818  19.697  0.00  0.00    +0.000 A 
ATOM     19  C   UNL     1       1.616   7.433  20.754  0.00  0.00    +0.000 A 
ATOM     20  C   UNL     1       1.094   8.722  20.615  0.00  0.00    +0.000 A 
ATOM     21  C   UNL     1       1.253   9.415  19.419  0.00  0.00    +0.000 A 
ATOM     22  C   UNL     1       1.906   8.807  18.349  0.00  0.00    +0.000 A 
ATOM     23  C   UNL     1       2.421   7.513  18.483  0.00  0.00    +0.000 A 
ENDBRANCH  17  18
ENDBRANCH  10  17
TORSDOF 4
ENDMDL
MODEL 5
REMARK VINA RESULT:      -7.1      2.392      4.035
REMARK  Name = 
REMARK  5 active torsions:
REMARK  status: ('A' for Active; 'I' for Inactive)
REMARK    1  A    between atoms: C_1  and  S_2
REMARK    2  A    between atoms: S_2  and  C_3
REMARK    3  A    between atoms: C_5  and  O_6
REMARK    4  A    between atoms: N_13  and  C_14
REMARK    5  A    between atoms: C_14  and  C_15
REMARK                            x       y       z     vdW  Elec       q    Type
REMARK                         _______ _______ _______ _____ _____    ______ ____
ROOT
ATOM      1  C   UNL     1       5.157   4.860  18.767  0.00  0.00    +0.000 A 
ATOM      2  N   UNL     1       5.588   3.761  19.328  0.00  0.00    +0.000 NA
ATOM      3  C   UNL     1       4.653   2.810  19.663  0.00  0.00    +0.000 A 
ATOM      4  C   UNL     1       3.338   2.939  19.467  0.00  0.00    +0.000 A 
ATOM      5  N   UNL     1       2.257   2.137  19.669  0.00  0.00    +0.000 NA
ATOM      6  C   UNL     1       1.278   2.844  19.185  0.00  0.00    +0.000 A 
ATOM      7  N   UNL     1       0.005   2.398  19.181  0.00  0.00    +0.000 N 
ATOM      8  N   UNL     1       1.597   4.095  18.682  0.00  0.00    +0.000 NA
ATOM      9  C   UNL     1       2.889   4.182  18.836  0.00  0.00    +0.000 A 
ATOM     10  N   UNL     1       3.817   5.147  18.498  0.00  0.00    +0.000 N 
ATOM     11  H   UNL     1      -0.137   1.632  19.829  0.00  0.00    +0.000 HD
ATOM     12  H   UNL     1      -0.686   3.132  19.237  0.00  0.00    +0.000 HD
ENDROOT
BRANCH   1  14
ATOM     13  C   UNL     1       7.553   4.837  17.486  0.00  0.00    +0.000 C 
ATOM     14  S   UNL     1       6.433   5.990  18.310  0.00  0.00    +0.000 S 
ENDBRANCH   1  14
BRANCH   3  15
ATOM     15  O   UNL     1       5.170   1.655  20.201  0.00  0.00    +0.000 OA
ATOM     16  H   UNL     1       4.996   1.000  19.504  0.00  0.00    +0.000 HD
ENDBRANCH   3  15
BRANCH  10  17
ATOM     17  C   UNL     1       3.380   6.253  17.646  0.00  0.00    +0.000 C 
BRANCH  17  18
ATOM     18  C   UNL     1       2.687   7.389  18.375  0.00  0.00    +0.000 A 
ATOM     19  C   UNL     1       2.269   8.546  17.694  0.00  0.00    +0.000 A 
ATOM     20  C   UNL     1       1.486   9.511  18.333  0.00  0.00    +0.000 A 
ATOM     21  C   UNL     1       1.111   9.338  19.661  0.00  0.00    +0.000 A 
ATOM     22  C   UNL     1       1.547   8.216  20.363  0.00  0.00    +0.000 A 
ATOM     23  C   UNL     1       2.339   7.254  19.728  0.00  0.00    +0.000 A 
ENDBRANCH  17  18
ENDBRANCH  10  17
TORSDOF 4
ENDMDL
MODEL 6
REMARK VINA RESULT:      -7.0      1.483      1.831
REMARK  Name = 
REMARK  5 active torsions:
REMARK  status: ('A' for Active; 'I' for Inactive)
REMARK    1  A    between atoms: C_1  and  S_2
REMARK    2  A    between atoms: S_2  and  C_3
REMARK    3  A    between atoms: C_5  and  O_6
REMARK    4  A    between atoms: N_13  and  C_14
REMARK    5  A    between atoms: C_14  and  C_15
REMARK                            x       y       z     vdW  Elec       q    Type
REMARK                         _______ _______ _______ _____ _____    ______ ____
ROOT
ATOM      1  C   UNL     1       3.765   4.165  17.420  0.00  0.00    +0.000 A 
ATOM      2  N   UNL     1       4.412   3.590  16.440  0.00  0.00    +0.000 NA
ATOM      3  C   UNL     1       5.568   4.193  16.002  0.00  0.00    +0.000 A 
ATOM      4  C   UNL     1       6.065   5.330  16.500  0.00  0.00    +0.000 A 
ATOM      5  N   UNL     1       7.183   6.068  16.265  0.00  0.00    +0.000 NA
ATOM      6  C   UNL     1       7.097   7.015  17.154  0.00  0.00    +0.000 A 
ATOM      7  N   UNL     1       8.034   7.977  17.270  0.00  0.00    +0.000 N 
ATOM      8  N   UNL     1       5.981   7.001  17.976  0.00  0.00    +0.000 NA
ATOM      9  C   UNL     1       5.316   5.947  17.597  0.00  0.00    +0.000 A 
ATOM     10  N   UNL     1       4.151   5.355  18.043  0.00  0.00    +0.000 N 
ATOM     11  H   UNL     1       8.616   8.050  16.444  0.00  0.00    +0.000 HD
ATOM     12  H   UNL     1       7.676   8.858  17.613  0.00  0.00    +0.000 HD
ENDROOT
BRANCH   1  14
ATOM     13  C   UNL     1       3.125   1.744  18.474  0.00  0.00    +0.000 C 
ATOM     14  S   UNL     1       2.334   3.284  17.959  0.00  0.00    +0.000 S 
ENDBRANCH   1  14
BRANCH   3  15
ATOM     15  O   UNL     1       6.232   3.516  15.007  0.00  0.00    +0.000 OA
ATOM     16  H   UNL     1       5.851   3.899  14.199  0.00  0.00    +0.000 HD
ENDBRANCH   3  15
BRANCH  10  17
ATOM     17  C   UNL     1       3.567   5.841  19.293  0.00  0.00    +0.000 C 
BRANCH  17  18
ATOM     18  C   UNL     1       2.626   7.023  19.144  0.00  0.00    +0.000 A 
ATOM     19  C   UNL     1       1.942   7.554  20.251  0.00  0.00    +0.000 A 
ATOM     20  C   UNL     1       1.211   8.740  20.140  0.00  0.00    +0.000 A 
ATOM     21  C   UNL     1       1.149   9.411  18.923  0.00  0.00    +0.000 A 
ATOM     22  C   UNL     1       1.791   8.879  17.806  0.00  0.00    +0.000 A 
ATOM     23  C   UNL     1       2.514   7.687  17.913  0.00  0.00    +0.000 A 
ENDBRANCH  17  18
ENDBRANCH  10  17
TORSDOF 4
ENDMDL
MODEL 7
REMARK VINA RESULT:      -7.0      2.901      4.968
REMARK  Name = 
REMARK  5 active torsions:
REMARK  status: ('A' for Active; 'I' for Inactive)
REMARK    1  A    between atoms: C_1  and  S_2
REMARK    2  A    between atoms: S_2  and  C_3
REMARK    3  A    between atoms: C_5  and  O_6
REMARK    4  A    between atoms: N_13  and  C_14
REMARK    5  A    between atoms: C_14  and  C_15
REMARK                            x       y       z     vdW  Elec       q    Type
REMARK                         _______ _______ _______ _____ _____    ______ ____
ROOT
ATOM      1  C   UNL     1       2.443   5.855  19.642  0.00  0.00    +0.000 A 
ATOM      2  N   UNL     1       1.970   5.278  20.716  0.00  0.00    +0.000 NA
ATOM      3  C   UNL     1       2.129   3.917  20.828  0.00  0.00    +0.000 A 
ATOM      4  C   UNL     1       2.722   3.146  19.912  0.00  0.00    +0.000 A 
ATOM      5  N   UNL     1       3.027   1.822  19.828  0.00  0.00    +0.000 NA
ATOM      6  C   UNL     1       3.676   1.746  18.703  0.00  0.00    +0.000 A 
ATOM      7  N   UNL     1       4.175   0.581  18.240  0.00  0.00    +0.000 N 
ATOM      8  N   UNL     1       3.823   2.921  17.983  0.00  0.00    +0.000 NA
ATOM      9  C   UNL     1       3.241   3.824  18.722  0.00  0.00    +0.000 A 
ATOM     10  N   UNL     1       3.083   5.190  18.594  0.00  0.00    +0.000 N 
ATOM     11  H   UNL     1       3.753  -0.224  18.687  0.00  0.00    +0.000 HD
ATOM     12  H   UNL     1       4.223   0.528  17.233  0.00  0.00    +0.000 HD
ENDROOT
BRANCH   1  14
ATOM     13  C   UNL     1       1.256   7.809  21.110  0.00  0.00    +0.000 C 
ATOM     14  S   UNL     1       2.254   7.610  19.618  0.00  0.00    +0.000 S 
ENDBRANCH   1  14
BRANCH   3  15
ATOM     15  O   UNL     1       1.660   3.375  22.001  0.00  0.00    +0.000 OA
ATOM     16  H   UNL     1       1.246   4.138  22.437  0.00  0.00    +0.000 HD
ENDBRANCH   3  15
BRANCH  10  17
ATOM     17  C   UNL     1       3.827   5.872  17.536  0.00  0.00    +0.000 C 
BRANCH  17  18
ATOM     18  C   UNL     1       5.307   6.066  17.816  0.00  0.00    +0.000 A 
ATOM     19  C   UNL     1       6.071   6.995  17.089  0.00  0.00    +0.000 A 
ATOM     20  C   UNL     1       7.386   7.289  17.460  0.00  0.00    +0.000 A 
ATOM     21  C   UNL     1       7.958   6.659  18.560  0.00  0.00    +0.000 A 
ATOM     22  C   UNL     1       7.228   5.708  19.270  0.00  0.00    +0.000 A 
ATOM     23  C   UNL     1       5.915   5.404  18.893  0.00  0.00    +0.000 A 
ENDBRANCH  17  18
ENDBRANCH  10  17
TORSDOF 4
ENDMDL
MODEL 8
REMARK VINA RESULT:      -7.0      2.860      5.134
REMARK  Name = 
REMARK  5 active torsions:
REMARK  status: ('A' for Active; 'I' for Inactive)
REMARK    1  A    between atoms: C_1  and  S_2
REMARK    2  A    between atoms: S_2  and  C_3
REMARK    3  A    between atoms: C_5  and  O_6
REMARK    4  A    between atoms: N_13  and  C_14
REMARK    5  A    between atoms: C_14  and  C_15
REMARK                            x       y       z     vdW  Elec       q    Type
REMARK                         _______ _______ _______ _____ _____    ______ ____
ROOT
ATOM      1  C   UNL     1       2.719   6.029  18.963  0.00  0.00    +0.000 A 
ATOM      2  N   UNL     1       1.658   5.485  19.498  0.00  0.00    +0.000 NA
ATOM      3  C   UNL     1       1.785   4.217  20.013  0.00  0.00    +0.000 A 
ATOM      4  C   UNL     1       2.913   3.500  19.992  0.00  0.00    +0.000 A 
ATOM      5  N   UNL     1       3.279   2.279  20.468  0.00  0.00    +0.000 NA
ATOM      6  C   UNL     1       4.547   2.224  20.178  0.00  0.00    +0.000 A 
ATOM      7  N   UNL     1       5.309   1.158  20.493  0.00  0.00    +0.000 N 
ATOM      8  N   UNL     1       5.084   3.313  19.510  0.00  0.00    +0.000 NA
ATOM      9  C   UNL     1       4.083   4.139  19.386  0.00  0.00    +0.000 A 
ATOM     10  N   UNL     1       3.968   5.411  18.860  0.00  0.00    +0.000 N 
ATOM     11  H   UNL     1       4.755   0.334  20.695  0.00  0.00    +0.000 HD
ATOM     12  H   UNL     1       6.080   1.003  19.859  0.00  0.00    +0.000 HD
ENDROOT
BRANCH   1  14
ATOM     13  C   UNL     1       1.677   8.374  19.854  0.00  0.00    +0.000 C 
ATOM     14  S   UNL     1       2.479   7.681  18.392  0.00  0.00    +0.000 S 
ENDBRANCH   1  14
BRANCH   3  15
ATOM     15  O   UNL     1       0.651   3.718  20.610  0.00  0.00    +0.000 OA
ATOM     16  H   UNL     1       0.532   2.865  20.160  0.00  0.00    +0.000 HD
ENDBRANCH   3  15
BRANCH  10  17
ATOM     17  C   UNL     1       5.195   6.119  18.499  0.00  0.00    +0.000 C 
BRANCH  17  18
ATOM     18  C   UNL     1       5.793   5.725  17.160  0.00  0.00    +0.000 A 
ATOM     19  C   UNL     1       7.027   5.058  17.081  0.00  0.00    +0.000 A 
ATOM     20  C   UNL     1       7.491   4.550  15.864  0.00  0.00    +0.000 A 
ATOM     21  C   UNL     1       6.732   4.704  14.709  0.00  0.00    +0.000 A 
ATOM     22  C   UNL     1       5.523   5.394  14.762  0.00  0.00    +0.000 A 
ATOM     23  C   UNL     1       5.062   5.912  15.977  0.00  0.00    +0.000 A 
ENDBRANCH  17  18
ENDBRANCH  10  17
TORSDOF 4
ENDMDL
MODEL 9
REMARK VINA RESULT:      -7.0      2.391      4.153
REMARK  Name = 
REMARK  5 active torsions:
REMARK  status: ('A' for Active; 'I' for Inactive)
REMARK    1  A    between atoms: C_1  and  S_2
REMARK    2  A    between atoms: S_2  and  C_3
REMARK    3  A    between atoms: C_5  and  O_6
REMARK    4  A    between atoms: N_13  and  C_14
REMARK    5  A    between atoms: C_14  and  C_15
REMARK                            x       y       z     vdW  Elec       q    Type
REMARK                         _______ _______ _______ _____ _____    ______ ____
ROOT
ATOM      1  C   UNL     1       5.189   4.852  18.854  0.00  0.00    +0.000 A 
ATOM      2  N   UNL     1       5.603   3.732  19.388  0.00  0.00    +0.000 NA
ATOM      3  C   UNL     1       4.657   2.776  19.673  0.00  0.00    +0.000 A 
ATOM      4  C   UNL     1       3.346   2.919  19.454  0.00  0.00    +0.000 A 
ATOM      5  N   UNL     1       2.257   2.117  19.608  0.00  0.00    +0.000 NA
ATOM      6  C   UNL     1       1.292   2.845  19.127  0.00  0.00    +0.000 A 
ATOM      7  N   UNL     1       0.017   2.406  19.083  0.00  0.00    +0.000 N 
ATOM      8  N   UNL     1       1.628   4.110  18.672  0.00  0.00    +0.000 NA
ATOM      9  C   UNL     1       2.916   4.185  18.854  0.00  0.00    +0.000 A 
ATOM     10  N   UNL     1       3.855   5.155  18.568  0.00  0.00    +0.000 N 
ATOM     11  H   UNL     1      -0.142   1.620  19.702  0.00  0.00    +0.000 HD
ATOM     12  H   UNL     1      -0.672   3.142  19.148  0.00  0.00    +0.000 HD
ENDROOT
BRANCH   1  14
ATOM     13  C   UNL     1       7.692   4.825  17.797  0.00  0.00    +0.000 C 
ATOM     14  S   UNL     1       6.480   5.989  18.460  0.00  0.00    +0.000 S 
ENDBRANCH   1  14
BRANCH   3  15
ATOM     15  O   UNL     1       5.156   1.602  20.183  0.00  0.00    +0.000 OA
ATOM     16  H   UNL     1       4.538   1.404  20.907  0.00  0.00    +0.000 HD
ENDBRANCH   3  15
BRANCH  10  17
ATOM     17  C   UNL     1       3.442   6.290  17.743  0.00  0.00    +0.000 C 
BRANCH  17  18
ATOM     18  C   UNL     1       2.537   7.291  18.438  0.00  0.00    +0.000 A 
ATOM     19  C   UNL     1       2.282   7.209  19.818  0.00  0.00    +0.000 A 
ATOM     20  C   UNL     1       1.587   8.225  20.480  0.00  0.00    +0.000 A 
ATOM     21  C   UNL     1       1.134   9.335  19.775  0.00  0.00    +0.000 A 
ATOM     22  C   UNL     1       1.346   9.416  18.401  0.00  0.00    +0.000 A 
ATOM     23  C   UNL     1       2.032   8.395  17.734  0.00  0.00    +0.000 A 
ENDBRANCH  17  18
ENDBRANCH  10  17
TORSDOF 4
ENDMDL
