MODEL 1
REMARK VINA RESULT:      -7.8      0.000      0.000
REMARK  Name = 
REMARK  6 active torsions:
REMARK  status: ('A' for Active; 'I' for Inactive)
REMARK    1  A    between atoms: C_2  and  O_3
REMARK    2  A    between atoms: C_2  and  C_4
REMARK    3  A    between atoms: C_7  and  N_8
REMARK    4  A    between atoms: C_10  and  C_11
REMARK    5  A    between atoms: C_11  and  C_13
REMARK    6  A    between atoms: C_27  and  C_28
REMARK                            x       y       z     vdW  Elec       q    Type
REMARK                         _______ _______ _______ _____ _____    ______ ____
ROOT
ATOM      1  N   UNL     1       0.689   9.929  19.069  0.00  0.00    +0.000 N 
ATOM      2  C   UNL     1       1.133  11.047  19.749  0.00  0.00    +0.000 A 
ATOM      3  C   UNL     1       0.039  11.744  20.225  0.00  0.00    +0.000 A 
ATOM      4  C   UNL     1      -0.958  11.450  19.266  0.00  0.00    +0.000 A 
ATOM      5  C   UNL     1      -2.088  12.183  18.862  0.00  0.00    +0.000 A 
ATOM      6  C   UNL     1      -2.875  11.725  17.818  0.00  0.00    +0.000 A 
ATOM      7  C   UNL     1      -2.598  10.486  17.253  0.00  0.00    +0.000 A 
ATOM      8  C   UNL     1      -1.476   9.719  17.640  0.00  0.00    +0.000 A 
ATOM      9  C   UNL     1      -0.603  10.253  18.613  0.00  0.00    +0.000 A 
ENDROOT
BRANCH   1  13
ATOM     10  C   UNL     1       3.415   6.757  18.058  0.00  0.00    +0.000 A 
ATOM     11  C   UNL     1       3.285   7.894  17.274  0.00  0.00    +0.000 A 
ATOM     12  C   UNL     1       2.387   8.895  17.660  0.00  0.00    +0.000 A 
ATOM     13  C   UNL     1       1.576   8.815  18.825  0.00  0.00    +0.000 A 
ATOM     14  C   UNL     1       1.785   7.718  19.682  0.00  0.00    +0.000 A 
ATOM     15  C   UNL     1       2.687   6.692  19.256  0.00  0.00    +0.000 A 
BRANCH  14  16
ATOM     16  C   UNL     1       1.265   7.549  21.094  0.00  0.00    +0.000 C 
ATOM     17  F   UNL     1      -0.062   7.734  21.258  0.00  0.00    +0.000 F 
ATOM     18  F   UNL     1       1.558   6.319  21.598  0.00  0.00    +0.000 F 
ATOM     19  F   UNL     1       1.855   8.442  21.948  0.00  0.00    +0.000 F 
ENDBRANCH  14  16
BRANCH  10  21
ATOM     20  O   UNL     1       4.699   5.501  16.513  0.00  0.00    +0.000 OA
ATOM     21  C   UNL     1       4.243   5.589  17.648  0.00  0.00    +0.000 C 
BRANCH  21  22
ATOM     22  O   UNL     1       4.468   4.657  18.588  0.00  0.00    +0.000 OA
ATOM     23  H   UNL     1       3.984   4.747  19.427  0.00  0.00    +0.000 HD
ENDBRANCH  21  22
ENDBRANCH  10  21
ENDBRANCH   1  13
BRANCH   3  24
ATOM     24  C   UNL     1      -0.017  12.701  21.337  0.00  0.00    +0.000 C 
ATOM     25  O   UNL     1       0.933  13.406  21.642  0.00  0.00    +0.000 OA
BRANCH  24  26
ATOM     26  C   UNL     1      -1.286  12.860  22.068  0.00  0.00    +0.000 A 
ATOM     27  C   UNL     1      -1.760  11.857  22.912  0.00  0.00    +0.000 A 
ATOM     28 CL   UNL     1      -0.912  10.370  23.199  0.00  0.00    +0.000 Cl
ATOM     29  C   UNL     1      -2.966  12.025  23.607  0.00  0.00    +0.000 A 
ATOM     30  C   UNL     1      -3.667  13.223  23.503  0.00  0.00    +0.000 A 
ATOM     31  C   UNL     1      -3.203  14.225  22.653  0.00  0.00    +0.000 A 
ATOM     32  C   UNL     1      -2.049  14.021  21.893  0.00  0.00    +0.000 A 
ATOM     33 CL   UNL     1      -1.678  15.231  20.708  0.00  0.00    +0.000 Cl
ENDBRANCH  24  26
ENDBRANCH   3  24
TORSDOF 6
ENDMDL
MODEL 2
REMARK VINA RESULT:      -7.7      0.207      1.631
REMARK  Name = 
REMARK  6 active torsions:
REMARK  status: ('A' for Active; 'I' for Inactive)
REMARK    1  A    between atoms: C_2  and  O_3
REMARK    2  A    between atoms: C_2  and  C_4
REMARK    3  A    between atoms: C_7  and  N_8
REMARK    4  A    between atoms: C_10  and  C_11
REMARK    5  A    between atoms: C_11  and  C_13
REMARK    6  A    between atoms: C_27  and  C_28
REMARK                            x       y       z     vdW  Elec       q    Type
REMARK                         _______ _______ _______ _____ _____    ______ ____
ROOT
ATOM      1  N   UNL     1       0.591  10.039  19.144  0.00  0.00    +0.000 N 
ATOM      2  C   UNL     1       1.039  11.161  19.816  0.00  0.00    +0.000 A 
ATOM      3  C   UNL     1      -0.050  11.843  20.322  0.00  0.00    +0.000 A 
ATOM      4  C   UNL     1      -1.068  11.541  19.388  0.00  0.00    +0.000 A 
ATOM      5  C   UNL     1      -2.216  12.261  19.016  0.00  0.00    +0.000 A 
ATOM      6  C   UNL     1      -3.025  11.797  17.991  0.00  0.00    +0.000 A 
ATOM      7  C   UNL     1      -2.748  10.563  17.415  0.00  0.00    +0.000 A 
ATOM      8  C   UNL     1      -1.608   9.809  17.770  0.00  0.00    +0.000 A 
ATOM      9  C   UNL     1      -0.717  10.350  18.722  0.00  0.00    +0.000 A 
ENDROOT
BRANCH   1  13
ATOM     10  C   UNL     1       3.332   6.906  18.056  0.00  0.00    +0.000 A 
ATOM     11  C   UNL     1       3.186   8.054  17.292  0.00  0.00    +0.000 A 
ATOM     12  C   UNL     1       2.284   9.042  17.703  0.00  0.00    +0.000 A 
ATOM     13  C   UNL     1       1.484   8.936  18.874  0.00  0.00    +0.000 A 
ATOM     14  C   UNL     1       1.709   7.827  19.710  0.00  0.00    +0.000 A 
ATOM     15  C   UNL     1       2.615   6.815  19.259  0.00  0.00    +0.000 A 
BRANCH  14  16
ATOM     16  C   UNL     1       1.204   7.631  21.123  0.00  0.00    +0.000 C 
ATOM     17  F   UNL     1      -0.120   7.824  21.307  0.00  0.00    +0.000 F 
ATOM     18  F   UNL     1       1.492   6.388  21.597  0.00  0.00    +0.000 F 
ATOM     19  F   UNL     1       1.811   8.499  21.991  0.00  0.00    +0.000 F 
ENDBRANCH  14  16
BRANCH  10  21
ATOM     20  O   UNL     1       4.791   5.783  16.565  0.00  0.00    +0.000 OA
ATOM     21  C   UNL     1       4.165   5.752  17.619  0.00  0.00    +0.000 C 
BRANCH  21  22
ATOM     22  O   UNL     1       4.200   4.694  18.445  0.00  0.00    +0.000 OA
ATOM     23  H   UNL     1       4.694   3.911  18.144  0.00  0.00    +0.000 HD
ENDBRANCH  21  22
ENDBRANCH  10  21
ENDBRANCH   1  13
BRANCH   3  24
ATOM     24  C   UNL     1      -0.088  12.797  21.438  0.00  0.00    +0.000 C 
ATOM     25  O   UNL     1       0.874  13.486  21.744  0.00  0.00    +0.000 OA
BRANCH  24  26
ATOM     26  C   UNL     1      -1.353  12.973  22.173  0.00  0.00    +0.000 A 
ATOM     27  C   UNL     1      -2.055  14.176  22.118  0.00  0.00    +0.000 A 
ATOM     28 CL   UNL     1      -1.536  15.543  21.183  0.00  0.00    +0.000 Cl
ATOM     29  C   UNL     1      -3.261  14.327  22.816  0.00  0.00    +0.000 A 
ATOM     30  C   UNL     1      -3.795  13.251  23.521  0.00  0.00    +0.000 A 
ATOM     31  C   UNL     1      -3.092  12.050  23.587  0.00  0.00    +0.000 A 
ATOM     32  C   UNL     1      -1.847  11.930  22.965  0.00  0.00    +0.000 A 
ATOM     33 CL   UNL     1      -0.956  10.479  23.289  0.00  0.00    +0.000 Cl
ENDBRANCH  24  26
ENDBRANCH   3  24
TORSDOF 6
ENDMDL
MODEL 3
REMARK VINA RESULT:      -7.7      6.783      9.225
REMARK  Name = 
REMARK  6 active torsions:
REMARK  status: ('A' for Active; 'I' for Inactive)
REMARK    1  A    between atoms: C_2  and  O_3
REMARK    2  A    between atoms: C_2  and  C_4
REMARK    3  A    between atoms: C_7  and  N_8
REMARK    4  A    between atoms: C_10  and  C_11
REMARK    5  A    between atoms: C_11  and  C_13
REMARK    6  A    between atoms: C_27  and  C_28
REMARK                            x       y       z     vdW  Elec       q    Type
REMARK                         _______ _______ _______ _____ _____    ______ ____
ROOT
ATOM      1  N   UNL     1       6.138   6.077  16.784  0.00  0.00    +0.000 N 
ATOM      2  C   UNL     1       4.804   5.961  17.126  0.00  0.00    +0.000 A 
ATOM      3  C   UNL     1       4.337   4.736  16.689  0.00  0.00    +0.000 A 
ATOM      4  C   UNL     1       5.132   4.489  15.547  0.00  0.00    +0.000 A 
ATOM      5  C   UNL     1       4.871   3.732  14.391  0.00  0.00    +0.000 A 
ATOM      6  C   UNL     1       5.783   3.718  13.349  0.00  0.00    +0.000 A 
ATOM      7  C   UNL     1       7.001   4.371  13.505  0.00  0.00    +0.000 A 
ATOM      8  C   UNL     1       7.301   5.133  14.655  0.00  0.00    +0.000 A 
ATOM      9  C   UNL     1       6.313   5.251  15.657  0.00  0.00    +0.000 A 
ENDROOT
BRANCH   1  13
ATOM     10  C   UNL     1       8.544   9.163  18.575  0.00  0.00    +0.000 A 
ATOM     11  C   UNL     1       7.594   9.441  17.603  0.00  0.00    +0.000 A 
ATOM     12  C   UNL     1       6.837   8.395  17.064  0.00  0.00    +0.000 A 
ATOM     13  C   UNL     1       6.988   7.036  17.453  0.00  0.00    +0.000 A 
ATOM     14  C   UNL     1       7.870   6.763  18.515  0.00  0.00    +0.000 A 
ATOM     15  C   UNL     1       8.655   7.841  19.034  0.00  0.00    +0.000 A 
BRANCH  14  16
ATOM     16  C   UNL     1       7.995   5.468  19.289  0.00  0.00    +0.000 C 
ATOM     17  F   UNL     1       8.927   5.456  20.266  0.00  0.00    +0.000 F 
ATOM     18  F   UNL     1       6.816   5.103  19.862  0.00  0.00    +0.000 F 
ATOM     19  F   UNL     1       8.335   4.430  18.464  0.00  0.00    +0.000 F 
ENDBRANCH  14  16
BRANCH  10  21
ATOM     20  O   UNL     1      10.159  10.881  18.340  0.00  0.00    +0.000 OA
ATOM     21  C   UNL     1       9.483  10.194  19.098  0.00  0.00    +0.000 C 
BRANCH  21  22
ATOM     22  O   UNL     1       9.534  10.333  20.433  0.00  0.00    +0.000 OA
ATOM     23  H   UNL     1       9.895  11.168  20.778  0.00  0.00    +0.000 HD
ENDBRANCH  21  22
ENDBRANCH  10  21
ENDBRANCH   1  13
BRANCH   3  24
ATOM     24  C   UNL     1       3.176   3.979  17.175  0.00  0.00    +0.000 C 
ATOM     25  O   UNL     1       2.498   3.278  16.440  0.00  0.00    +0.000 OA
BRANCH  24  26
ATOM     26  C   UNL     1       2.859   4.020  18.614  0.00  0.00    +0.000 A 
ATOM     27  C   UNL     1       2.310   5.162  19.196  0.00  0.00    +0.000 A 
ATOM     28 CL   UNL     1       1.929   6.601  18.305  0.00  0.00    +0.000 Cl
ATOM     29  C   UNL     1       2.006   5.184  20.565  0.00  0.00    +0.000 A 
ATOM     30  C   UNL     1       2.198   4.042  21.337  0.00  0.00    +0.000 A 
ATOM     31  C   UNL     1       2.757   2.902  20.762  0.00  0.00    +0.000 A 
ATOM     32  C   UNL     1       3.141   2.912  19.419  0.00  0.00    +0.000 A 
ATOM     33 CL   UNL     1       4.025   1.529  18.858  0.00  0.00    +0.000 Cl
ENDBRANCH  24  26
ENDBRANCH   3  24
TORSDOF 6
ENDMDL
MODEL 4
REMARK VINA RESULT:      -7.7      6.819      9.117
REMARK  Name = 
REMARK  6 active torsions:
REMARK  status: ('A' for Active; 'I' for Inactive)
REMARK    1  A    between atoms: C_2  and  O_3
REMARK    2  A    between atoms: C_2  and  C_4
REMARK    3  A    between atoms: C_7  and  N_8
REMARK    4  A    between atoms: C_10  and  C_11
REMARK    5  A    between atoms: C_11  and  C_13
REMARK    6  A    between atoms: C_27  and  C_28
REMARK                            x       y       z     vdW  Elec       q    Type
REMARK                         _______ _______ _______ _____ _____    ______ ____
ROOT
ATOM      1  N   UNL     1       6.149   6.084  16.767  0.00  0.00    +0.000 N 
ATOM      2  C   UNL     1       4.811   5.970  17.095  0.00  0.00    +0.000 A 
ATOM      3  C   UNL     1       4.345   4.747  16.654  0.00  0.00    +0.000 A 
ATOM      4  C   UNL     1       5.152   4.498  15.519  0.00  0.00    +0.000 A 
ATOM      5  C   UNL     1       4.900   3.742  14.361  0.00  0.00    +0.000 A 
ATOM      6  C   UNL     1       5.822   3.727  13.328  0.00  0.00    +0.000 A 
ATOM      7  C   UNL     1       7.040   4.377  13.496  0.00  0.00    +0.000 A 
ATOM      8  C   UNL     1       7.330   5.139  14.649  0.00  0.00    +0.000 A 
ATOM      9  C   UNL     1       6.333   5.258  15.642  0.00  0.00    +0.000 A 
ENDROOT
BRANCH   1  13
ATOM     10  C   UNL     1       8.543   9.165  18.581  0.00  0.00    +0.000 A 
ATOM     11  C   UNL     1       7.606   9.444  17.598  0.00  0.00    +0.000 A 
ATOM     12  C   UNL     1       6.851   8.401  17.052  0.00  0.00    +0.000 A 
ATOM     13  C   UNL     1       6.994   7.041  17.444  0.00  0.00    +0.000 A 
ATOM     14  C   UNL     1       7.862   6.767  18.517  0.00  0.00    +0.000 A 
ATOM     15  C   UNL     1       8.645   7.844  19.043  0.00  0.00    +0.000 A 
BRANCH  14  16
ATOM     16  C   UNL     1       7.975   5.473  19.294  0.00  0.00    +0.000 C 
ATOM     17  F   UNL     1       8.917   5.448  20.261  0.00  0.00    +0.000 F 
ATOM     18  F   UNL     1       6.796   5.129  19.881  0.00  0.00    +0.000 F 
ATOM     19  F   UNL     1       8.288   4.426  18.469  0.00  0.00    +0.000 F 
ENDBRANCH  14  16
BRANCH  10  21
ATOM     20  O   UNL     1      10.154  10.889  18.361  0.00  0.00    +0.000 OA
ATOM     21  C   UNL     1       9.479  10.193  19.114  0.00  0.00    +0.000 C 
BRANCH  21  22
ATOM     22  O   UNL     1       9.529  10.321  20.449  0.00  0.00    +0.000 OA
ATOM     23  H   UNL     1      10.397  10.518  20.844  0.00  0.00    +0.000 HD
ENDBRANCH  21  22
ENDBRANCH  10  21
ENDBRANCH   1  13
BRANCH   3  24
ATOM     24  C   UNL     1       3.179   3.992  17.128  0.00  0.00    +0.000 C 
ATOM     25  O   UNL     1       2.480   3.327  16.379  0.00  0.00    +0.000 OA
BRANCH  24  26
ATOM     26  C   UNL     1       2.881   3.988  18.572  0.00  0.00    +0.000 A 
ATOM     27  C   UNL     1       3.105   2.852  19.349  0.00  0.00    +0.000 A 
ATOM     28 CL   UNL     1       3.764   1.377  18.716  0.00  0.00    +0.000 Cl
ATOM     29  C   UNL     1       2.824   2.865  20.722  0.00  0.00    +0.000 A 
ATOM     30  C   UNL     1       2.374   4.035  21.328  0.00  0.00    +0.000 A 
ATOM     31  C   UNL     1       2.139   5.169  20.554  0.00  0.00    +0.000 A 
ATOM     32  C   UNL     1       2.334   5.128  19.172  0.00  0.00    +0.000 A 
ATOM     33 CL   UNL     1       1.806   6.513  18.273  0.00  0.00    +0.000 Cl
ENDBRANCH  24  26
ENDBRANCH   3  24
TORSDOF 6
ENDMDL
MODEL 5
REMARK VINA RESULT:      -7.7      4.161      8.886
REMARK  Name = 
REMARK  6 active torsions:
REMARK  status: ('A' for Active; 'I' for Inactive)
REMARK    1  A    between atoms: C_2  and  O_3
REMARK    2  A    between atoms: C_2  and  C_4
REMARK    3  A    between atoms: C_7  and  N_8
REMARK    4  A    between atoms: C_10  and  C_11
REMARK    5  A    between atoms: C_11  and  C_13
REMARK    6  A    between atoms: C_27  and  C_28
REMARK                            x       y       z     vdW  Elec       q    Type
REMARK                         _______ _______ _______ _____ _____    ______ ____
ROOT
ATOM      1  N   UNL     1       2.631   6.724  19.390  0.00  0.00    +0.000 N 
ATOM      2  C   UNL     1       4.010   6.644  19.420  0.00  0.00    +0.000 A 
ATOM      3  C   UNL     1       4.388   5.342  19.155  0.00  0.00    +0.000 A 
ATOM      4  C   UNL     1       3.302   4.593  19.664  0.00  0.00    +0.000 A 
ATOM      5  C   UNL     1       3.245   3.281  20.167  0.00  0.00    +0.000 A 
ATOM      6  C   UNL     1       2.066   2.795  20.707  0.00  0.00    +0.000 A 
ATOM      7  C   UNL     1       0.919   3.577  20.647  0.00  0.00    +0.000 A 
ATOM      8  C   UNL     1       0.937   4.896  20.141  0.00  0.00    +0.000 A 
ATOM      9  C   UNL     1       2.171   5.433  19.713  0.00  0.00    +0.000 A 
ENDROOT
BRANCH   1  13
ATOM     10  C   UNL     1       0.758  10.509  18.565  0.00  0.00    +0.000 A 
ATOM     11  C   UNL     1       1.350   9.748  17.569  0.00  0.00    +0.000 A 
ATOM     12  C   UNL     1       1.935   8.521  17.898  0.00  0.00    +0.000 A 
ATOM     13  C   UNL     1       1.971   7.998  19.219  0.00  0.00    +0.000 A 
ATOM     14  C   UNL     1       1.275   8.711  20.214  0.00  0.00    +0.000 A 
ATOM     15  C   UNL     1       0.706   9.976  19.863  0.00  0.00    +0.000 A 
BRANCH  14  16
ATOM     16  C   UNL     1       0.927   8.233  21.607  0.00  0.00    +0.000 C 
ATOM     17  F   UNL     1       1.679   7.217  22.085  0.00  0.00    +0.000 F 
ATOM     18  F   UNL     1       0.995   9.239  22.521  0.00  0.00    +0.000 F 
ATOM     19  F   UNL     1      -0.362   7.776  21.666  0.00  0.00    +0.000 F 
ENDBRANCH  14  16
BRANCH  10  21
ATOM     20  O   UNL     1       0.889  12.874  18.633  0.00  0.00    +0.000 OA
ATOM     21  C   UNL     1       0.236  11.883  18.324  0.00  0.00    +0.000 C 
BRANCH  21  22
ATOM     22  O   UNL     1      -0.972  11.970  17.744  0.00  0.00    +0.000 OA
ATOM     23  H   UNL     1      -1.620  11.278  17.962  0.00  0.00    +0.000 HD
ENDBRANCH  21  22
ENDBRANCH  10  21
ENDBRANCH   1  13
BRANCH   3  24
ATOM     24  C   UNL     1       5.676   4.853  18.649  0.00  0.00    +0.000 C 
ATOM     25  O   UNL     1       6.542   4.407  19.387  0.00  0.00    +0.000 OA
BRANCH  24  26
ATOM     26  C   UNL     1       5.905   4.842  17.193  0.00  0.00    +0.000 A 
ATOM     27  C   UNL     1       6.707   5.807  16.585  0.00  0.00    +0.000 A 
ATOM     28 CL   UNL     1       7.516   7.067  17.461  0.00  0.00    +0.000 Cl
ATOM     29  C   UNL     1       6.922   5.780  15.200  0.00  0.00    +0.000 A 
ATOM     30  C   UNL     1       6.382   4.752  14.433  0.00  0.00    +0.000 A 
ATOM     31  C   UNL     1       5.571   3.791  15.034  0.00  0.00    +0.000 A 
ATOM     32  C   UNL     1       5.285   3.871  16.399  0.00  0.00    +0.000 A 
ATOM     33 CL   UNL     1       4.096   2.765  17.007  0.00  0.00    +0.000 Cl
ENDBRANCH  24  26
ENDBRANCH   3  24
TORSDOF 6
ENDMDL
MODEL 6
REMARK VINA RESULT:      -7.6      0.882      1.124
REMARK  Name = 
REMARK  6 active torsions:
REMARK  status: ('A' for Active; 'I' for Inactive)
REMARK    1  A    between atoms: C_2  and  O_3
REMARK    2  A    between atoms: C_2  and  C_4
REMARK    3  A    between atoms: C_7  and  N_8
REMARK    4  A    between atoms: C_10  and  C_11
REMARK    5  A    between atoms: C_11  and  C_13
REMARK    6  A    between atoms: C_27  and  C_28
REMARK                            x       y       z     vdW  Elec       q    Type
REMARK                         _______ _______ _______ _____ _____    ______ ____
ROOT
ATOM      1  N   UNL     1      -0.007  10.360  19.181  0.00  0.00    +0.000 N 
ATOM      2  C   UNL     1       0.340  11.568  19.756  0.00  0.00    +0.000 A 
ATOM      3  C   UNL     1      -0.797  12.163  20.265  0.00  0.00    +0.000 A 
ATOM      4  C   UNL     1      -1.810  11.688  19.400  0.00  0.00    +0.000 A 
ATOM      5  C   UNL     1      -3.045  12.253  19.033  0.00  0.00    +0.000 A 
ATOM      6  C   UNL     1      -3.835  11.634  18.079  0.00  0.00    +0.000 A 
ATOM      7  C   UNL     1      -3.446  10.399  17.573  0.00  0.00    +0.000 A 
ATOM      8  C   UNL     1      -2.217   9.798  17.926  0.00  0.00    +0.000 A 
ATOM      9  C   UNL     1      -1.355  10.497  18.799  0.00  0.00    +0.000 A 
ENDROOT
BRANCH   1  13
ATOM     10  C   UNL     1       3.019   7.469  18.178  0.00  0.00    +0.000 A 
ATOM     11  C   UNL     1       2.713   8.534  17.344  0.00  0.00    +0.000 A 
ATOM     12  C   UNL     1       1.725   9.446  17.729  0.00  0.00    +0.000 A 
ATOM     13  C   UNL     1       0.992   9.343  18.943  0.00  0.00    +0.000 A 
ATOM     14  C   UNL     1       1.375   8.331  19.843  0.00  0.00    +0.000 A 
ATOM     15  C   UNL     1       2.368   7.392  19.419  0.00  0.00    +0.000 A 
BRANCH  14  16
ATOM     16  C   UNL     1       0.955   8.188  21.291  0.00  0.00    +0.000 C 
ATOM     17  F   UNL     1       1.454   9.111  22.141  0.00  0.00    +0.000 F 
ATOM     18  F   UNL     1      -0.398   8.210  21.431  0.00  0.00    +0.000 F 
ATOM     19  F   UNL     1       1.354   6.982  21.804  0.00  0.00    +0.000 F 
ENDBRANCH  14  16
BRANCH  10  21
ATOM     20  O   UNL     1       5.138   6.614  17.551  0.00  0.00    +0.000 OA
ATOM     21  C   UNL     1       3.956   6.382  17.782  0.00  0.00    +0.000 C 
BRANCH  21  22
ATOM     22  O   UNL     1       3.439   5.145  17.706  0.00  0.00    +0.000 OA
ATOM     23  H   UNL     1       3.386   4.635  18.534  0.00  0.00    +0.000 HD
ENDBRANCH  21  22
ENDBRANCH  10  21
ENDBRANCH   1  13
BRANCH   3  24
ATOM     24  C   UNL     1      -0.898  13.184  21.316  0.00  0.00    +0.000 C 
ATOM     25  O   UNL     1      -0.057  14.058  21.462  0.00  0.00    +0.000 OA
BRANCH  24  26
ATOM     26  C   UNL     1      -2.090  13.188  22.183  0.00  0.00    +0.000 A 
ATOM     27  C   UNL     1      -2.333  12.144  23.075  0.00  0.00    +0.000 A 
ATOM     28 CL   UNL     1      -1.272  10.786  23.268  0.00  0.00    +0.000 Cl
ATOM     29  C   UNL     1      -3.467  12.166  23.899  0.00  0.00    +0.000 A 
ATOM     30  C   UNL     1      -4.325  13.261  23.872  0.00  0.00    +0.000 A 
ATOM     31  C   UNL     1      -4.092  14.301  22.974  0.00  0.00    +0.000 A 
ATOM     32  C   UNL     1      -3.012  14.237  22.091  0.00  0.00    +0.000 A 
ATOM     33 CL   UNL     1      -2.935  15.466  20.871  0.00  0.00    +0.000 Cl
ENDBRANCH  24  26
ENDBRANCH   3  24
TORSDOF 6
ENDMDL
MODEL 7
REMARK VINA RESULT:      -7.6      3.940      8.803
REMARK  Name = 
REMARK  6 active torsions:
REMARK  status: ('A' for Active; 'I' for Inactive)
REMARK    1  A    between atoms: C_2  and  O_3
REMARK    2  A    between atoms: C_2  and  C_4
REMARK    3  A    between atoms: C_7  and  N_8
REMARK    4  A    between atoms: C_10  and  C_11
REMARK    5  A    between atoms: C_11  and  C_13
REMARK    6  A    between atoms: C_27  and  C_28
REMARK                            x       y       z     vdW  Elec       q    Type
REMARK                         _______ _______ _______ _____ _____    ______ ____
ROOT
ATOM      1  N   UNL     1       2.479   6.281  19.911  0.00  0.00    +0.000 N 
ATOM      2  C   UNL     1       3.855   6.236  19.797  0.00  0.00    +0.000 A 
ATOM      3  C   UNL     1       4.207   5.113  19.075  0.00  0.00    +0.000 A 
ATOM      4  C   UNL     1       3.170   4.205  19.388  0.00  0.00    +0.000 A 
ATOM      5  C   UNL     1       3.158   2.799  19.417  0.00  0.00    +0.000 A 
ATOM      6  C   UNL     1       2.030   2.123  19.855  0.00  0.00    +0.000 A 
ATOM      7  C   UNL     1       0.882   2.846  20.159  0.00  0.00    +0.000 A 
ATOM      8  C   UNL     1       0.856   4.258  20.133  0.00  0.00    +0.000 A 
ATOM      9  C   UNL     1       2.048   4.944  19.812  0.00  0.00    +0.000 A 
ENDROOT
BRANCH   1  13
ATOM     10  C   UNL     1       0.448   9.851  21.197  0.00  0.00    +0.000 A 
ATOM     11  C   UNL     1       0.793   8.840  22.082  0.00  0.00    +0.000 A 
ATOM     12  C   UNL     1       1.460   7.707  21.605  0.00  0.00    +0.000 A 
ATOM     13  C   UNL     1       1.807   7.518  20.239  0.00  0.00    +0.000 A 
ATOM     14  C   UNL     1       1.560   8.586  19.357  0.00  0.00    +0.000 A 
ATOM     15  C   UNL     1       0.853   9.725  19.858  0.00  0.00    +0.000 A 
BRANCH  14  16
ATOM     16  C   UNL     1       2.081   8.745  17.945  0.00  0.00    +0.000 C 
ATOM     17  F   UNL     1       3.423   8.697  17.805  0.00  0.00    +0.000 F 
ATOM     18  F   UNL     1       1.561   7.810  17.104  0.00  0.00    +0.000 F 
ATOM     19  F   UNL     1       1.714   9.954  17.415  0.00  0.00    +0.000 F 
ENDBRANCH  14  16
BRANCH  10  21
ATOM     20  O   UNL     1      -1.023  11.658  20.768  0.00  0.00    +0.000 OA
ATOM     21  C   UNL     1      -0.380  11.022  21.597  0.00  0.00    +0.000 C 
BRANCH  21  22
ATOM     22  O   UNL     1      -0.392  11.326  22.904  0.00  0.00    +0.000 OA
ATOM     23  H   UNL     1      -1.175  11.059  23.416  0.00  0.00    +0.000 HD
ENDBRANCH  21  22
ENDBRANCH  10  21
ENDBRANCH   1  13
BRANCH   3  24
ATOM     24  C   UNL     1       5.447   4.862  18.329  0.00  0.00    +0.000 C 
ATOM     25  O   UNL     1       5.716   3.769  17.855  0.00  0.00    +0.000 OA
BRANCH  24  26
ATOM     26  C   UNL     1       6.367   5.988  18.092  0.00  0.00    +0.000 A 
ATOM     27  C   UNL     1       6.183   6.852  17.012  0.00  0.00    +0.000 A 
ATOM     28 CL   UNL     1       4.871   6.707  15.886  0.00  0.00    +0.000 Cl
ATOM     29  C   UNL     1       7.062   7.924  16.803  0.00  0.00    +0.000 A 
ATOM     30  C   UNL     1       8.091   8.166  17.709  0.00  0.00    +0.000 A 
ATOM     31  C   UNL     1       8.286   7.299  18.783  0.00  0.00    +0.000 A 
ATOM     32  C   UNL     1       7.463   6.181  18.940  0.00  0.00    +0.000 A 
ATOM     33 CL   UNL     1       7.922   5.050  20.171  0.00  0.00    +0.000 Cl
ENDBRANCH  24  26
ENDBRANCH   3  24
TORSDOF 6
ENDMDL
MODEL 8
REMARK VINA RESULT:      -7.5      4.169      8.784
REMARK  Name = 
REMARK  6 active torsions:
REMARK  status: ('A' for Active; 'I' for Inactive)
REMARK    1  A    between atoms: C_2  and  O_3
REMARK    2  A    between atoms: C_2  and  C_4
REMARK    3  A    between atoms: C_7  and  N_8
REMARK    4  A    between atoms: C_10  and  C_11
REMARK    5  A    between atoms: C_11  and  C_13
REMARK    6  A    between atoms: C_27  and  C_28
REMARK                            x       y       z     vdW  Elec       q    Type
REMARK                         _______ _______ _______ _____ _____    ______ ____
ROOT
ATOM      1  N   UNL     1       2.590   6.764  19.403  0.00  0.00    +0.000 N 
ATOM      2  C   UNL     1       3.970   6.688  19.441  0.00  0.00    +0.000 A 
ATOM      3  C   UNL     1       4.353   5.388  19.176  0.00  0.00    +0.000 A 
ATOM      4  C   UNL     1       3.267   4.635  19.678  0.00  0.00    +0.000 A 
ATOM      5  C   UNL     1       3.212   3.322  20.178  0.00  0.00    +0.000 A 
ATOM      6  C   UNL     1       2.032   2.831  20.711  0.00  0.00    +0.000 A 
ATOM      7  C   UNL     1       0.882   3.610  20.646  0.00  0.00    +0.000 A 
ATOM      8  C   UNL     1       0.898   4.929  20.142  0.00  0.00    +0.000 A 
ATOM      9  C   UNL     1       2.133   5.471  19.722  0.00  0.00    +0.000 A 
ENDROOT
BRANCH   1  13
ATOM     10  C   UNL     1       0.708  10.544  18.574  0.00  0.00    +0.000 A 
ATOM     11  C   UNL     1       1.307   9.786  17.580  0.00  0.00    +0.000 A 
ATOM     12  C   UNL     1       1.896   8.560  17.910  0.00  0.00    +0.000 A 
ATOM     13  C   UNL     1       1.927   8.036  19.231  0.00  0.00    +0.000 A 
ATOM     14  C   UNL     1       1.225   8.746  20.223  0.00  0.00    +0.000 A 
ATOM     15  C   UNL     1       0.653  10.010  19.871  0.00  0.00    +0.000 A 
BRANCH  14  16
ATOM     16  C   UNL     1       0.872   8.265  21.615  0.00  0.00    +0.000 C 
ATOM     17  F   UNL     1       1.648   7.277  22.109  0.00  0.00    +0.000 F 
ATOM     18  F   UNL     1       0.895   9.279  22.523  0.00  0.00    +0.000 F 
ATOM     19  F   UNL     1      -0.403   7.767  21.658  0.00  0.00    +0.000 F 
ENDBRANCH  14  16
BRANCH  10  21
ATOM     20  O   UNL     1       0.840  12.909  18.627  0.00  0.00    +0.000 OA
ATOM     21  C   UNL     1       0.183  11.916  18.332  0.00  0.00    +0.000 C 
BRANCH  21  22
ATOM     22  O   UNL     1      -1.032  12.000  17.767  0.00  0.00    +0.000 OA
ATOM     23  H   UNL     1      -1.067  12.042  16.795  0.00  0.00    +0.000 HD
ENDBRANCH  21  22
ENDBRANCH  10  21
ENDBRANCH   1  13
BRANCH   3  24
ATOM     24  C   UNL     1       5.646   4.904  18.677  0.00  0.00    +0.000 C 
ATOM     25  O   UNL     1       6.525   4.498  19.422  0.00  0.00    +0.000 OA
BRANCH  24  26
ATOM     26  C   UNL     1       5.865   4.849  17.220  0.00  0.00    +0.000 A 
ATOM     27  C   UNL     1       5.281   3.849  16.443  0.00  0.00    +0.000 A 
ATOM     28 CL   UNL     1       4.246   2.617  17.093  0.00  0.00    +0.000 Cl
ATOM     29  C   UNL     1       5.491   3.813  15.058  0.00  0.00    +0.000 A 
ATOM     30  C   UNL     1       6.237   4.814  14.443  0.00  0.00    +0.000 A 
ATOM     31  C   UNL     1       6.831   5.810  15.216  0.00  0.00    +0.000 A 
ATOM     32  C   UNL     1       6.695   5.793  16.606  0.00  0.00    +0.000 A 
ATOM     33 CL   UNL     1       7.648   6.940  17.491  0.00  0.00    +0.000 Cl
ENDBRANCH  24  26
ENDBRANCH   3  24
TORSDOF 6
ENDMDL
MODEL 9
REMARK VINA RESULT:      -7.5      3.873      9.035
REMARK  Name = 
REMARK  6 active torsions:
REMARK  status: ('A' for Active; 'I' for Inactive)
REMARK    1  A    between atoms: C_2  and  O_3
REMARK    2  A    between atoms: C_2  and  C_4
REMARK    3  A    between atoms: C_7  and  N_8
REMARK    4  A    between atoms: C_10  and  C_11
REMARK    5  A    between atoms: C_11  and  C_13
REMARK    6  A    between atoms: C_27  and  C_28
REMARK                            x       y       z     vdW  Elec       q    Type
REMARK                         _______ _______ _______ _____ _____    ______ ____
ROOT
ATOM      1  N   UNL     1       2.423   6.409  20.079  0.00  0.00    +0.000 N 
ATOM      2  C   UNL     1       3.802   6.353  20.002  0.00  0.00    +0.000 A 
ATOM      3  C   UNL     1       4.168   5.158  19.412  0.00  0.00    +0.000 A 
ATOM      4  C   UNL     1       3.121   4.289  19.796  0.00  0.00    +0.000 A 
ATOM      5  C   UNL     1       3.105   2.894  19.975  0.00  0.00    +0.000 A 
ATOM      6  C   UNL     1       1.966   2.269  20.457  0.00  0.00    +0.000 A 
ATOM      7  C   UNL     1       0.813   3.021  20.656  0.00  0.00    +0.000 A 
ATOM      8  C   UNL     1       0.791   4.422  20.478  0.00  0.00    +0.000 A 
ATOM      9  C   UNL     1       1.992   5.069  20.114  0.00  0.00    +0.000 A 
ENDROOT
BRANCH   1  13
ATOM     10  C   UNL     1       0.367  10.093  20.927  0.00  0.00    +0.000 A 
ATOM     11  C   UNL     1       0.667   9.172  21.919  0.00  0.00    +0.000 A 
ATOM     12  C   UNL     1       1.345   7.996  21.583  0.00  0.00    +0.000 A 
ATOM     13  C   UNL     1       1.747   7.674  20.257  0.00  0.00    +0.000 A 
ATOM     14  C   UNL     1       1.545   8.653  19.267  0.00  0.00    +0.000 A 
ATOM     15  C   UNL     1       0.826   9.837  19.626  0.00  0.00    +0.000 A 
BRANCH  14  16
ATOM     16  C   UNL     1       2.126   8.673  17.869  0.00  0.00    +0.000 C 
ATOM     17  F   UNL     1       3.473   8.613  17.791  0.00  0.00    +0.000 F 
ATOM     18  F   UNL     1       1.640   7.659  17.103  0.00  0.00    +0.000 F 
ATOM     19  F   UNL     1       1.786   9.824  17.208  0.00  0.00    +0.000 F 
ENDBRANCH  14  16
BRANCH  10  21
ATOM     20  O   UNL     1      -1.375  11.615  20.413  0.00  0.00    +0.000 OA
ATOM     21  C   UNL     1      -0.469  11.300  21.177  0.00  0.00    +0.000 C 
BRANCH  21  22
ATOM     22  O   UNL     1      -0.184  12.005  22.284  0.00  0.00    +0.000 OA
ATOM     23  H   UNL     1      -0.933  12.397  22.766  0.00  0.00    +0.000 HD
ENDBRANCH  21  22
ENDBRANCH  10  21
ENDBRANCH   1  13
BRANCH   3  24
ATOM     24  C   UNL     1       5.423   4.829  18.726  0.00  0.00    +0.000 C 
ATOM     25  O   UNL     1       6.415   4.442  19.325  0.00  0.00    +0.000 OA
BRANCH  24  26
ATOM     26  C   UNL     1       5.465   4.910  17.255  0.00  0.00    +0.000 A 
ATOM     27  C   UNL     1       5.932   6.055  16.611  0.00  0.00    +0.000 A 
ATOM     28 CL   UNL     1       6.521   7.452  17.454  0.00  0.00    +0.000 Cl
ATOM     29  C   UNL     1       5.973   6.114  15.211  0.00  0.00    +0.000 A 
ATOM     30  C   UNL     1       5.602   5.004  14.457  0.00  0.00    +0.000 A 
ATOM     31  C   UNL     1       5.125   3.861  15.096  0.00  0.00    +0.000 A 
ATOM     32  C   UNL     1       5.000   3.836  16.487  0.00  0.00    +0.000 A 
ATOM     33 CL   UNL     1       4.194   2.460  17.167  0.00  0.00    +0.000 Cl
ENDBRANCH  24  26
ENDBRANCH   3  24
TORSDOF 6
ENDMDL
