MODEL 1
REMARK VINA RESULT:      -8.6      0.000      0.000
REMARK  Name = 
REMARK  6 active torsions:
REMARK  status: ('A' for Active; 'I' for Inactive)
REMARK    1  A    between atoms: C_2  and  C_10
REMARK    2  A    between atoms: N_3  and  C_4
REMARK    3  A    between atoms: C_4  and  C_5
REMARK    4  A    between atoms: C_10  and  N_18
REMARK    5  A    between atoms: C_11  and  C_12
REMARK    6  A    between atoms: C_19  and  C_21
REMARK                            x       y       z     vdW  Elec       q    Type
REMARK                         _______ _______ _______ _____ _____    ______ ____
ROOT
ATOM      1  C   UNL     1       4.923   4.889  19.260  0.00  0.00    +0.000 C 
ATOM      2  C   UNL     1       4.517   3.637  19.543  0.00  0.00    +0.000 C 
ENDROOT
BRANCH   2   3
ATOM      3  C   UNL     1       3.204   3.215  20.023  0.00  0.00    +0.000 A 
ATOM      4  C   UNL     1       2.076   3.279  19.209  0.00  0.00    +0.000 A 
ATOM      5  C   UNL     1       0.822   3.007  19.754  0.00  0.00    +0.000 A 
ATOM      6  C   UNL     1       0.743   2.665  21.097  0.00  0.00    +0.000 A 
ATOM      7  N   UNL     1       1.816   2.563  21.909  0.00  0.00    +0.000 NA
ATOM      8  C   UNL     1       3.020   2.848  21.354  0.00  0.00    +0.000 A 
ENDBRANCH   2   3
BRANCH   1  10
ATOM      9  O   UNL     1       7.300   5.196  19.182  0.00  0.00    +0.000 OA
ATOM     10  C   UNL     1       6.258   4.998  18.564  0.00  0.00    +0.000 C 
ATOM     11  N   UNL     1       6.205   4.864  17.197  0.00  0.00    +0.000 N 
ATOM     12  H   UNL     1       5.311   4.973  16.738  0.00  0.00    +0.000 HD
BRANCH  11  13
ATOM     13  C   UNL     1       7.396   5.051  16.396  0.00  0.00    +0.000 C 
BRANCH  13  14
ATOM     14  C   UNL     1       7.125   4.699  14.978  0.00  0.00    +0.000 A 
ATOM     15  C   UNL     1       6.237   3.835  14.370  0.00  0.00    +0.000 A 
ATOM     16  C   UNL     1       6.413   3.994  12.978  0.00  0.00    +0.000 A 
ATOM     17  C   UNL     1       7.404   4.936  12.820  0.00  0.00    +0.000 A 
ATOM     18  O   UNL     1       7.846   5.368  14.031  0.00  0.00    +0.000 OA
ENDBRANCH  13  14
ENDBRANCH  11  13
ENDBRANCH   1  10
BRANCH   1  19
ATOM     19  N   UNL     1       4.146   6.021  19.445  0.00  0.00    +0.000 N 
ATOM     20  C   UNL     1       3.394   6.539  18.396  0.00  0.00    +0.000 C 
ATOM     21  O   UNL     1       3.385   6.078  17.260  0.00  0.00    +0.000 OA
ATOM     22  H   UNL     1       3.660   6.061  20.336  0.00  0.00    +0.000 HD
BRANCH  20  23
ATOM     23  C   UNL     1       2.462   7.651  18.749  0.00  0.00    +0.000 A 
ATOM     24  C   UNL     1       2.011   8.562  17.786  0.00  0.00    +0.000 A 
ATOM     25  C   UNL     1       1.118   9.577  18.146  0.00  0.00    +0.000 A 
ATOM     26  C   UNL     1       0.677   9.689  19.467  0.00  0.00    +0.000 A 
ATOM     27  C   UNL     1       1.122   8.774  20.420  0.00  0.00    +0.000 A 
ATOM     28 BR   UNL     1       0.515   8.918  22.206  0.00  0.00    +0.000 Br
ATOM     29  C   UNL     1       2.003   7.751  20.070  0.00  0.00    +0.000 A 
ENDBRANCH  20  23
ENDBRANCH   1  19
TORSDOF 6
ENDMDL
MODEL 2
REMARK VINA RESULT:      -8.0      1.635      2.034
REMARK  Name = 
REMARK  6 active torsions:
REMARK  status: ('A' for Active; 'I' for Inactive)
REMARK    1  A    between atoms: C_2  and  C_10
REMARK    2  A    between atoms: N_3  and  C_4
REMARK    3  A    between atoms: C_4  and  C_5
REMARK    4  A    between atoms: C_10  and  N_18
REMARK    5  A    between atoms: C_11  and  C_12
REMARK    6  A    between atoms: C_19  and  C_21
REMARK                            x       y       z     vdW  Elec       q    Type
REMARK                         _______ _______ _______ _____ _____    ______ ____
ROOT
ATOM      1  C   UNL     1       4.247   5.043  17.018  0.00  0.00    +0.000 C 
ATOM      2  C   UNL     1       4.252   3.782  17.489  0.00  0.00    +0.000 C 
ENDROOT
BRANCH   2   3
ATOM      3  C   UNL     1       3.281   3.164  18.388  0.00  0.00    +0.000 A 
ATOM      4  C   UNL     1       2.001   2.826  17.957  0.00  0.00    +0.000 A 
ATOM      5  C   UNL     1       1.062   2.377  18.884  0.00  0.00    +0.000 A 
ATOM      6  C   UNL     1       1.444   2.267  20.214  0.00  0.00    +0.000 A 
ATOM      7  N   UNL     1       2.683   2.556  20.664  0.00  0.00    +0.000 NA
ATOM      8  C   UNL     1       3.570   3.004  19.742  0.00  0.00    +0.000 A 
ENDBRANCH   2   3
BRANCH   1  10
ATOM      9  O   UNL     1       5.478   6.477  15.541  0.00  0.00    +0.000 OA
ATOM     10  C   UNL     1       5.247   5.334  15.926  0.00  0.00    +0.000 C 
ATOM     11  N   UNL     1       5.864   4.223  15.403  0.00  0.00    +0.000 N 
ATOM     12  H   UNL     1       5.444   3.318  15.567  0.00  0.00    +0.000 HD
BRANCH  11  13
ATOM     13  C   UNL     1       6.768   4.347  14.279  0.00  0.00    +0.000 C 
BRANCH  13  14
ATOM     14  C   UNL     1       6.185   3.702  13.075  0.00  0.00    +0.000 A 
ATOM     15  C   UNL     1       6.719   2.939  12.056  0.00  0.00    +0.000 A 
ATOM     16  C   UNL     1       5.638   2.559  11.231  0.00  0.00    +0.000 A 
ATOM     17  C   UNL     1       4.512   3.121  11.788  0.00  0.00    +0.000 A 
ATOM     18  O   UNL     1       4.835   3.822  12.907  0.00  0.00    +0.000 OA
ENDBRANCH  13  14
ENDBRANCH  11  13
ENDBRANCH   1  10
BRANCH   1  19
ATOM     19  N   UNL     1       3.316   6.005  17.377  0.00  0.00    +0.000 N 
ATOM     20  C   UNL     1       3.328   6.554  18.655  0.00  0.00    +0.000 C 
ATOM     21  O   UNL     1       4.105   6.219  19.543  0.00  0.00    +0.000 OA
ATOM     22  H   UNL     1       3.116   6.692  16.656  0.00  0.00    +0.000 HD
BRANCH  20  23
ATOM     23  C   UNL     1       2.400   7.702  18.881  0.00  0.00    +0.000 A 
ATOM     24  C   UNL     1       2.020   8.553  17.837  0.00  0.00    +0.000 A 
ATOM     25  C   UNL     1       1.128   9.604  18.078  0.00  0.00    +0.000 A 
ATOM     26  C   UNL     1       0.620   9.811  19.362  0.00  0.00    +0.000 A 
ATOM     27  C   UNL     1       0.994   8.956  20.398  0.00  0.00    +0.000 A 
ATOM     28 BR   UNL     1       0.295   9.229  22.134  0.00  0.00    +0.000 Br
ATOM     29  C   UNL     1       1.873   7.898  20.165  0.00  0.00    +0.000 A 
ENDBRANCH  20  23
ENDBRANCH   1  19
TORSDOF 6
ENDMDL
MODEL 3
REMARK VINA RESULT:      -7.7      1.043      1.435
REMARK  Name = 
REMARK  6 active torsions:
REMARK  status: ('A' for Active; 'I' for Inactive)
REMARK    1  A    between atoms: C_2  and  C_10
REMARK    2  A    between atoms: N_3  and  C_4
REMARK    3  A    between atoms: C_4  and  C_5
REMARK    4  A    between atoms: C_10  and  N_18
REMARK    5  A    between atoms: C_11  and  C_12
REMARK    6  A    between atoms: C_19  and  C_21
REMARK                            x       y       z     vdW  Elec       q    Type
REMARK                         _______ _______ _______ _____ _____    ______ ____
ROOT
ATOM      1  C   UNL     1       4.813   5.066  19.088  0.00  0.00    +0.000 C 
ATOM      2  C   UNL     1       4.441   3.775  19.013  0.00  0.00    +0.000 C 
ENDROOT
BRANCH   2   3
ATOM      3  C   UNL     1       3.158   3.194  19.403  0.00  0.00    +0.000 A 
ATOM      4  C   UNL     1       2.121   3.039  18.487  0.00  0.00    +0.000 A 
ATOM      5  C   UNL     1       0.870   2.619  18.935  0.00  0.00    +0.000 A 
ATOM      6  C   UNL     1       0.704   2.355  20.287  0.00  0.00    +0.000 A 
ATOM      7  N   UNL     1       1.693   2.465  21.199  0.00  0.00    +0.000 NA
ATOM      8  C   UNL     1       2.894   2.888  20.736  0.00  0.00    +0.000 A 
ENDBRANCH   2   3
BRANCH   1  10
ATOM      9  O   UNL     1       7.013   6.013  18.975  0.00  0.00    +0.000 OA
ATOM     10  C   UNL     1       6.112   5.410  18.401  0.00  0.00    +0.000 C 
ATOM     11  N   UNL     1       6.194   4.999  17.092  0.00  0.00    +0.000 N 
ATOM     12  H   UNL     1       5.339   4.757  16.609  0.00  0.00    +0.000 HD
BRANCH  11  13
ATOM     13  C   UNL     1       7.341   5.354  16.283  0.00  0.00    +0.000 C 
BRANCH  13  14
ATOM     14  C   UNL     1       7.164   4.862  14.892  0.00  0.00    +0.000 A 
ATOM     15  C   UNL     1       6.406   3.853  14.333  0.00  0.00    +0.000 A 
ATOM     16  C   UNL     1       6.612   3.922  12.939  0.00  0.00    +0.000 A 
ATOM     17  C   UNL     1       7.490   4.961  12.730  0.00  0.00    +0.000 A 
ATOM     18  O   UNL     1       7.835   5.536  13.912  0.00  0.00    +0.000 OA
ENDBRANCH  13  14
ENDBRANCH  11  13
ENDBRANCH   1  10
BRANCH   1  19
ATOM     19  N   UNL     1       4.027   6.074  19.624  0.00  0.00    +0.000 N 
ATOM     20  C   UNL     1       3.042   6.684  18.855  0.00  0.00    +0.000 C 
ATOM     21  O   UNL     1       2.821   6.417  17.679  0.00  0.00    +0.000 OA
ATOM     22  H   UNL     1       3.738   5.920  20.586  0.00  0.00    +0.000 HD
BRANCH  20  23
ATOM     23  C   UNL     1       2.141   7.629  19.579  0.00  0.00    +0.000 A 
ATOM     24  C   UNL     1       1.792   7.428  20.920  0.00  0.00    +0.000 A 
ATOM     25  C   UNL     1       0.967   8.348  21.575  0.00  0.00    +0.000 A 
ATOM     26  C   UNL     1       0.483   9.467  20.892  0.00  0.00    +0.000 A 
ATOM     27  C   UNL     1       0.840   9.669  19.560  0.00  0.00    +0.000 A 
ATOM     28 BR   UNL     1       0.195  11.190  18.640  0.00  0.00    +0.000 Br
ATOM     29  C   UNL     1       1.672   8.763  18.901  0.00  0.00    +0.000 A 
ENDBRANCH  20  23
ENDBRANCH   1  19
TORSDOF 6
ENDMDL
MODEL 4
REMARK VINA RESULT:      -7.6      3.092      7.639
REMARK  Name = 
REMARK  6 active torsions:
REMARK  status: ('A' for Active; 'I' for Inactive)
REMARK    1  A    between atoms: C_2  and  C_10
REMARK    2  A    between atoms: N_3  and  C_4
REMARK    3  A    between atoms: C_4  and  C_5
REMARK    4  A    between atoms: C_10  and  N_18
REMARK    5  A    between atoms: C_11  and  C_12
REMARK    6  A    between atoms: C_19  and  C_21
REMARK                            x       y       z     vdW  Elec       q    Type
REMARK                         _______ _______ _______ _____ _____    ______ ____
ROOT
ATOM      1  C   UNL     1       3.223   7.493  18.209  0.00  0.00    +0.000 C 
ATOM      2  C   UNL     1       4.154   7.525  17.237  0.00  0.00    +0.000 C 
ENDROOT
BRANCH   2   3
ATOM      3  C   UNL     1       5.133   6.492  16.908  0.00  0.00    +0.000 A 
ATOM      4  C   UNL     1       4.755   5.299  16.295  0.00  0.00    +0.000 A 
ATOM      5  C   UNL     1       5.697   4.285  16.135  0.00  0.00    +0.000 A 
ATOM      6  C   UNL     1       6.992   4.505  16.584  0.00  0.00    +0.000 A 
ATOM      7  N   UNL     1       7.401   5.657  17.156  0.00  0.00    +0.000 NA
ATOM      8  C   UNL     1       6.460   6.620  17.310  0.00  0.00    +0.000 A 
ENDBRANCH   2   3
BRANCH   1  10
ATOM      9  O   UNL     1       2.016   9.280  17.160  0.00  0.00    +0.000 OA
ATOM     10  C   UNL     1       2.200   8.602  18.167  0.00  0.00    +0.000 C 
ATOM     11  N   UNL     1       1.508   8.789  19.339  0.00  0.00    +0.000 N 
ATOM     12  H   UNL     1       1.887   8.392  20.189  0.00  0.00    +0.000 HD
BRANCH  11  13
ATOM     13  C   UNL     1       0.573   9.886  19.471  0.00  0.00    +0.000 C 
BRANCH  13  14
ATOM     14  C   UNL     1       0.062   9.963  20.864  0.00  0.00    +0.000 A 
ATOM     15  C   UNL     1      -0.003   9.055  21.902  0.00  0.00    +0.000 A 
ATOM     16  C   UNL     1      -0.538   9.749  23.009  0.00  0.00    +0.000 A 
ATOM     17  C   UNL     1      -0.777  11.034  22.579  0.00  0.00    +0.000 A 
ATOM     18  O   UNL     1      -0.420  11.173  21.275  0.00  0.00    +0.000 OA
ENDBRANCH  13  14
ENDBRANCH  11  13
ENDBRANCH   1  10
BRANCH   1  19
ATOM     19  N   UNL     1       3.084   6.460  19.122  0.00  0.00    +0.000 N 
ATOM     20  C   UNL     1       2.266   5.372  18.837  0.00  0.00    +0.000 C 
ATOM     21  O   UNL     1       1.600   5.259  17.814  0.00  0.00    +0.000 OA
ATOM     22  H   UNL     1       3.943   6.194  19.595  0.00  0.00    +0.000 HD
BRANCH  20  23
ATOM     23  C   UNL     1       2.325   4.239  19.808  0.00  0.00    +0.000 A 
ATOM     24  C   UNL     1       1.242   3.927  20.637  0.00  0.00    +0.000 A 
ATOM     25  C   UNL     1       1.321   2.843  21.517  0.00  0.00    +0.000 A 
ATOM     26  C   UNL     1       2.484   2.071  21.576  0.00  0.00    +0.000 A 
ATOM     27  C   UNL     1       3.558   2.378  20.741  0.00  0.00    +0.000 A 
ATOM     28 BR   UNL     1       5.127   1.325  20.811  0.00  0.00    +0.000 Br
ATOM     29  C   UNL     1       3.484   3.451  19.852  0.00  0.00    +0.000 A 
ENDBRANCH  20  23
ENDBRANCH   1  19
TORSDOF 6
ENDMDL
MODEL 5
REMARK VINA RESULT:      -7.6      0.978      1.232
REMARK  Name = 
REMARK  6 active torsions:
REMARK  status: ('A' for Active; 'I' for Inactive)
REMARK    1  A    between atoms: C_2  and  C_10
REMARK    2  A    between atoms: N_3  and  C_4
REMARK    3  A    between atoms: C_4  and  C_5
REMARK    4  A    between atoms: C_10  and  N_18
REMARK    5  A    between atoms: C_11  and  C_12
REMARK    6  A    between atoms: C_19  and  C_21
REMARK                            x       y       z     vdW  Elec       q    Type
REMARK                         _______ _______ _______ _____ _____    ______ ____
ROOT
ATOM      1  C   UNL     1       4.523   5.487  19.095  0.00  0.00    +0.000 C 
ATOM      2  C   UNL     1       4.166   4.215  19.356  0.00  0.00    +0.000 C 
ENDROOT
BRANCH   2   3
ATOM      3  C   UNL     1       2.911   3.744  19.937  0.00  0.00    +0.000 A 
ATOM      4  C   UNL     1       2.822   3.375  21.277  0.00  0.00    +0.000 A 
ATOM      5  C   UNL     1       1.647   2.793  21.749  0.00  0.00    +0.000 A 
ATOM      6  C   UNL     1       0.594   2.614  20.864  0.00  0.00    +0.000 A 
ATOM      7  N   UNL     1       0.632   2.986  19.567  0.00  0.00    +0.000 NA
ATOM      8  C   UNL     1       1.793   3.536  19.133  0.00  0.00    +0.000 A 
ENDBRANCH   2   3
BRANCH   1  10
ATOM      9  O   UNL     1       6.213   6.760  17.967  0.00  0.00    +0.000 OA
ATOM     10  C   UNL     1       5.785   5.654  18.284  0.00  0.00    +0.000 C 
ATOM     11  N   UNL     1       6.400   4.477  17.930  0.00  0.00    +0.000 N 
ATOM     12  H   UNL     1       5.865   3.620  17.985  0.00  0.00    +0.000 HD
BRANCH  11  13
ATOM     13  C   UNL     1       7.560   4.488  17.063  0.00  0.00    +0.000 C 
BRANCH  13  14
ATOM     14  C   UNL     1       7.141   4.412  15.640  0.00  0.00    +0.000 A 
ATOM     15  C   UNL     1       6.160   3.701  14.977  0.00  0.00    +0.000 A 
ATOM     16  C   UNL     1       6.214   4.109  13.627  0.00  0.00    +0.000 A 
ATOM     17  C   UNL     1       7.229   5.034  13.543  0.00  0.00    +0.000 A 
ATOM     18  O   UNL     1       7.801   5.222  14.761  0.00  0.00    +0.000 OA
ENDBRANCH  13  14
ENDBRANCH  11  13
ENDBRANCH   1  10
BRANCH   1  19
ATOM     19  N   UNL     1       3.749   6.593  19.405  0.00  0.00    +0.000 N 
ATOM     20  C   UNL     1       2.844   7.101  18.480  0.00  0.00    +0.000 C 
ATOM     21  O   UNL     1       2.689   6.655  17.349  0.00  0.00    +0.000 OA
ATOM     22  H   UNL     1       3.391   6.607  20.356  0.00  0.00    +0.000 HD
BRANCH  20  23
ATOM     23  C   UNL     1       1.940   8.181  18.976  0.00  0.00    +0.000 A 
ATOM     24  C   UNL     1       1.402   9.142  18.112  0.00  0.00    +0.000 A 
ATOM     25  C   UNL     1       0.538  10.125  18.606  0.00  0.00    +0.000 A 
ATOM     26  C   UNL     1       0.213  10.154  19.965  0.00  0.00    +0.000 A 
ATOM     27  C   UNL     1       0.743   9.190  20.821  0.00  0.00    +0.000 A 
ATOM     28 BR   UNL     1       0.293   9.223  22.657  0.00  0.00    +0.000 Br
ATOM     29  C   UNL     1       1.597   8.199  20.335  0.00  0.00    +0.000 A 
ENDBRANCH  20  23
ENDBRANCH   1  19
TORSDOF 6
ENDMDL
MODEL 6
REMARK VINA RESULT:      -7.6      1.316      1.733
REMARK  Name = 
REMARK  6 active torsions:
REMARK  status: ('A' for Active; 'I' for Inactive)
REMARK    1  A    between atoms: C_2  and  C_10
REMARK    2  A    between atoms: N_3  and  C_4
REMARK    3  A    between atoms: C_4  and  C_5
REMARK    4  A    between atoms: C_10  and  N_18
REMARK    5  A    between atoms: C_11  and  C_12
REMARK    6  A    between atoms: C_19  and  C_21
REMARK                            x       y       z     vdW  Elec       q    Type
REMARK                         _______ _______ _______ _____ _____    ______ ____
ROOT
ATOM      1  C   UNL     1       4.573   5.271  19.071  0.00  0.00    +0.000 C 
ATOM      2  C   UNL     1       4.264   3.970  19.221  0.00  0.00    +0.000 C 
ENDROOT
BRANCH   2   3
ATOM      3  C   UNL     1       3.095   3.404  19.889  0.00  0.00    +0.000 A 
ATOM      4  C   UNL     1       1.836   3.423  19.295  0.00  0.00    +0.000 A 
ATOM      5  C   UNL     1       0.726   3.008  20.029  0.00  0.00    +0.000 A 
ATOM      6  C   UNL     1       0.919   2.573  21.333  0.00  0.00    +0.000 A 
ATOM      7  N   UNL     1       2.127   2.512  21.932  0.00  0.00    +0.000 NA
ATOM      8  C   UNL     1       3.184   2.936  21.199  0.00  0.00    +0.000 A 
ENDBRANCH   2   3
BRANCH   1  10
ATOM      9  O   UNL     1       5.935   6.690  17.698  0.00  0.00    +0.000 OA
ATOM     10  C   UNL     1       5.723   5.563  18.138  0.00  0.00    +0.000 C 
ATOM     11  N   UNL     1       6.496   4.472  17.822  0.00  0.00    +0.000 N 
ATOM     12  H   UNL     1       6.118   3.550  17.991  0.00  0.00    +0.000 HD
BRANCH  11  13
ATOM     13  C   UNL     1       7.568   4.589  16.855  0.00  0.00    +0.000 C 
BRANCH  13  14
ATOM     14  C   UNL     1       7.032   4.471  15.474  0.00  0.00    +0.000 A 
ATOM     15  C   UNL     1       7.405   5.018  14.263  0.00  0.00    +0.000 A 
ATOM     16  C   UNL     1       6.539   4.470  13.292  0.00  0.00    +0.000 A 
ATOM     17  C   UNL     1       5.684   3.629  13.969  0.00  0.00    +0.000 A 
ATOM     18  O   UNL     1       5.973   3.627  15.296  0.00  0.00    +0.000 OA
ENDBRANCH  13  14
ENDBRANCH  11  13
ENDBRANCH   1  10
BRANCH   1  19
ATOM     19  N   UNL     1       3.833   6.315  19.603  0.00  0.00    +0.000 N 
ATOM     20  C   UNL     1       2.763   6.852  18.895  0.00  0.00    +0.000 C 
ATOM     21  O   UNL     1       2.424   6.487  17.775  0.00  0.00    +0.000 OA
ATOM     22  H   UNL     1       3.648   6.240  20.599  0.00  0.00    +0.000 HD
BRANCH  20  23
ATOM     23  C   UNL     1       1.928   7.849  19.630  0.00  0.00    +0.000 A 
ATOM     24  C   UNL     1       1.539   7.641  20.958  0.00  0.00    +0.000 A 
ATOM     25  C   UNL     1       0.778   8.607  21.625  0.00  0.00    +0.000 A 
ATOM     26  C   UNL     1       0.400   9.780  20.967  0.00  0.00    +0.000 A 
ATOM     27  C   UNL     1       0.798   9.987  19.646  0.00  0.00    +0.000 A 
ATOM     28 BR   UNL     1       0.296  11.580  18.759  0.00  0.00    +0.000 Br
ATOM     29  C   UNL     1       1.566   9.035  18.976  0.00  0.00    +0.000 A 
ENDBRANCH  20  23
ENDBRANCH   1  19
TORSDOF 6
ENDMDL
MODEL 7
REMARK VINA RESULT:      -7.5      2.291      3.102
REMARK  Name = 
REMARK  6 active torsions:
REMARK  status: ('A' for Active; 'I' for Inactive)
REMARK    1  A    between atoms: C_2  and  C_10
REMARK    2  A    between atoms: N_3  and  C_4
REMARK    3  A    between atoms: C_4  and  C_5
REMARK    4  A    between atoms: C_10  and  N_18
REMARK    5  A    between atoms: C_11  and  C_12
REMARK    6  A    between atoms: C_19  and  C_21
REMARK                            x       y       z     vdW  Elec       q    Type
REMARK                         _______ _______ _______ _____ _____    ______ ____
ROOT
ATOM      1  C   UNL     1       4.713   5.297  19.405  0.00  0.00    +0.000 C 
ATOM      2  C   UNL     1       4.309   4.015  19.333  0.00  0.00    +0.000 C 
ENDROOT
BRANCH   2   3
ATOM      3  C   UNL     1       2.939   3.510  19.376  0.00  0.00    +0.000 A 
ATOM      4  C   UNL     1       2.230   3.430  20.572  0.00  0.00    +0.000 A 
ATOM      5  C   UNL     1       0.984   2.806  20.588  0.00  0.00    +0.000 A 
ATOM      6  C   UNL     1       0.484   2.293  19.399  0.00  0.00    +0.000 A 
ATOM      7  N   UNL     1       1.129   2.378  18.217  0.00  0.00    +0.000 NA
ATOM      8  C   UNL     1       2.344   2.978  18.235  0.00  0.00    +0.000 A 
ENDBRANCH   2   3
BRANCH   1  10
ATOM      9  O   UNL     1       7.059   5.248  19.902  0.00  0.00    +0.000 OA
ATOM     10  C   UNL     1       6.173   5.537  19.103  0.00  0.00    +0.000 C 
ATOM     11  N   UNL     1       6.419   6.105  17.877  0.00  0.00    +0.000 N 
ATOM     12  H   UNL     1       5.654   6.558  17.394  0.00  0.00    +0.000 HD
BRANCH  11  13
ATOM     13  C   UNL     1       7.765   6.486  17.502  0.00  0.00    +0.000 C 
BRANCH  13  14
ATOM     14  C   UNL     1       8.017   7.906  17.856  0.00  0.00    +0.000 A 
ATOM     15  C   UNL     1       7.538   9.105  17.366  0.00  0.00    +0.000 A 
ATOM     16  C   UNL     1       8.105  10.120  18.166  0.00  0.00    +0.000 A 
ATOM     17  C   UNL     1       8.904   9.483  19.088  0.00  0.00    +0.000 A 
ATOM     18  O   UNL     1       8.860   8.137  18.905  0.00  0.00    +0.000 OA
ENDBRANCH  13  14
ENDBRANCH  11  13
ENDBRANCH   1  10
BRANCH   1  19
ATOM     19  N   UNL     1       3.862   6.373  19.599  0.00  0.00    +0.000 N 
ATOM     20  C   UNL     1       3.255   6.997  18.514  0.00  0.00    +0.000 C 
ATOM     21  O   UNL     1       3.444   6.683  17.344  0.00  0.00    +0.000 OA
ATOM     22  H   UNL     1       3.243   6.285  20.400  0.00  0.00    +0.000 HD
BRANCH  20  23
ATOM     23  C   UNL     1       2.226   8.027  18.845  0.00  0.00    +0.000 A 
ATOM     24  C   UNL     1       1.687   8.866  17.862  0.00  0.00    +0.000 A 
ATOM     25  C   UNL     1       0.706   9.803  18.202  0.00  0.00    +0.000 A 
ATOM     26  C   UNL     1       0.265   9.909  19.524  0.00  0.00    +0.000 A 
ATOM     27  C   UNL     1       0.797   9.065  20.497  0.00  0.00    +0.000 A 
ATOM     28 BR   UNL     1       0.190   9.200  22.283  0.00  0.00    +0.000 Br
ATOM     29  C   UNL     1       1.768   8.119  20.166  0.00  0.00    +0.000 A 
ENDBRANCH  20  23
ENDBRANCH   1  19
TORSDOF 6
ENDMDL
MODEL 8
REMARK VINA RESULT:      -7.4      1.638      1.909
REMARK  Name = 
REMARK  6 active torsions:
REMARK  status: ('A' for Active; 'I' for Inactive)
REMARK    1  A    between atoms: C_2  and  C_10
REMARK    2  A    between atoms: N_3  and  C_4
REMARK    3  A    between atoms: C_4  and  C_5
REMARK    4  A    between atoms: C_10  and  N_18
REMARK    5  A    between atoms: C_11  and  C_12
REMARK    6  A    between atoms: C_19  and  C_21
REMARK                            x       y       z     vdW  Elec       q    Type
REMARK                         _______ _______ _______ _____ _____    ______ ____
ROOT
ATOM      1  C   UNL     1       4.010   5.529  17.318  0.00  0.00    +0.000 C 
ATOM      2  C   UNL     1       3.955   4.238  17.693  0.00  0.00    +0.000 C 
ENDROOT
BRANCH   2   3
ATOM      3  C   UNL     1       2.891   3.573  18.443  0.00  0.00    +0.000 A 
ATOM      4  C   UNL     1       3.074   3.170  19.763  0.00  0.00    +0.000 A 
ATOM      5  C   UNL     1       2.087   2.410  20.389  0.00  0.00    +0.000 A 
ATOM      6  C   UNL     1       0.942   2.090  19.672  0.00  0.00    +0.000 A 
ATOM      7  N   UNL     1       0.717   2.487  18.402  0.00  0.00    +0.000 NA
ATOM      8  C   UNL     1       1.700   3.213  17.816  0.00  0.00    +0.000 A 
ENDBRANCH   2   3
BRANCH   1  10
ATOM      9  O   UNL     1       5.145   6.951  15.755  0.00  0.00    +0.000 OA
ATOM     10  C   UNL     1       5.119   5.880  16.357  0.00  0.00    +0.000 C 
ATOM     11  N   UNL     1       6.080   4.909  16.211  0.00  0.00    +0.000 N 
ATOM     12  H   UNL     1       5.864   3.969  16.515  0.00  0.00    +0.000 HD
BRANCH  11  13
ATOM     13  C   UNL     1       7.145   5.071  15.243  0.00  0.00    +0.000 C 
BRANCH  13  14
ATOM     14  C   UNL     1       6.776   4.421  13.958  0.00  0.00    +0.000 A 
ATOM     15  C   UNL     1       5.753   3.573  13.584  0.00  0.00    +0.000 A 
ATOM     16  C   UNL     1       5.903   3.352  12.198  0.00  0.00    +0.000 A 
ATOM     17  C   UNL     1       7.012   4.069  11.811  0.00  0.00    +0.000 A 
ATOM     18  O   UNL     1       7.553   4.719  12.875  0.00  0.00    +0.000 OA
ENDBRANCH  13  14
ENDBRANCH  11  13
ENDBRANCH   1  10
BRANCH   1  19
ATOM     19  N   UNL     1       3.058   6.479  17.651  0.00  0.00    +0.000 N 
ATOM     20  C   UNL     1       2.915   6.901  18.969  0.00  0.00    +0.000 C 
ATOM     21  O   UNL     1       3.565   6.460  19.909  0.00  0.00    +0.000 OA
ATOM     22  H   UNL     1       2.962   7.238  16.983  0.00  0.00    +0.000 HD
BRANCH  20  23
ATOM     23  C   UNL     1       1.985   8.049  19.189  0.00  0.00    +0.000 A 
ATOM     24  C   UNL     1       1.609   8.899  18.143  0.00  0.00    +0.000 A 
ATOM     25  C   UNL     1       0.716   9.949  18.379  0.00  0.00    +0.000 A 
ATOM     26  C   UNL     1       0.200  10.157  19.661  0.00  0.00    +0.000 A 
ATOM     27  C   UNL     1       0.570   9.302  20.698  0.00  0.00    +0.000 A 
ATOM     28 BR   UNL     1      -0.139   9.576  22.430  0.00  0.00    +0.000 Br
ATOM     29  C   UNL     1       1.451   8.245  20.471  0.00  0.00    +0.000 A 
ENDBRANCH  20  23
ENDBRANCH   1  19
TORSDOF 6
ENDMDL
MODEL 9
REMARK VINA RESULT:      -7.4      1.386      1.859
REMARK  Name = 
REMARK  6 active torsions:
REMARK  status: ('A' for Active; 'I' for Inactive)
REMARK    1  A    between atoms: C_2  and  C_10
REMARK    2  A    between atoms: N_3  and  C_4
REMARK    3  A    between atoms: C_4  and  C_5
REMARK    4  A    between atoms: C_10  and  N_18
REMARK    5  A    between atoms: C_11  and  C_12
REMARK    6  A    between atoms: C_19  and  C_21
REMARK                            x       y       z     vdW  Elec       q    Type
REMARK                         _______ _______ _______ _____ _____    ______ ____
ROOT
ATOM      1  C   UNL     1       4.567   5.408  18.681  0.00  0.00    +0.000 C 
ATOM      2  C   UNL     1       4.167   4.128  18.571  0.00  0.00    +0.000 C 
ENDROOT
BRANCH   2   3
ATOM      3  C   UNL     1       2.902   3.549  19.018  0.00  0.00    +0.000 A 
ATOM      4  C   UNL     1       2.669   3.258  20.359  0.00  0.00    +0.000 A 
ATOM      5  C   UNL     1       1.510   2.573  20.719  0.00  0.00    +0.000 A 
ATOM      6  C   UNL     1       0.616   2.212  19.721  0.00  0.00    +0.000 A 
ATOM      7  N   UNL     1       0.794   2.502  18.415  0.00  0.00    +0.000 NA
ATOM      8  C   UNL     1       1.936   3.157  18.094  0.00  0.00    +0.000 A 
ENDBRANCH   2   3
BRANCH   1  10
ATOM      9  O   UNL     1       6.655   6.549  18.374  0.00  0.00    +0.000 OA
ATOM     10  C   UNL     1       5.824   5.764  17.925  0.00  0.00    +0.000 C 
ATOM     11  N   UNL     1       5.953   5.147  16.704  0.00  0.00    +0.000 N 
ATOM     12  H   UNL     1       5.130   4.737  16.283  0.00  0.00    +0.000 HD
BRANCH  11  13
ATOM     13  C   UNL     1       7.058   5.477  15.828  0.00  0.00    +0.000 C 
BRANCH  13  14
ATOM     14  C   UNL     1       6.879   4.826  14.505  0.00  0.00    +0.000 A 
ATOM     15  C   UNL     1       6.037   3.836  14.041  0.00  0.00    +0.000 A 
ATOM     16  C   UNL     1       6.301   3.698  12.662  0.00  0.00    +0.000 A 
ATOM     17  C   UNL     1       7.295   4.604  12.367  0.00  0.00    +0.000 A 
ATOM     18  O   UNL     1       7.656   5.292  13.482  0.00  0.00    +0.000 OA
ENDBRANCH  13  14
ENDBRANCH  11  13
ENDBRANCH   1  10
BRANCH   1  19
ATOM     19  N   UNL     1       3.838   6.402  19.315  0.00  0.00    +0.000 N 
ATOM     20  C   UNL     1       2.797   7.044  18.652  0.00  0.00    +0.000 C 
ATOM     21  O   UNL     1       2.478   6.821  17.489  0.00  0.00    +0.000 OA
ATOM     22  H   UNL     1       3.627   6.216  20.291  0.00  0.00    +0.000 HD
BRANCH  20  23
ATOM     23  C   UNL     1       1.968   7.969  19.480  0.00  0.00    +0.000 A 
ATOM     24  C   UNL     1       1.677   7.691  20.821  0.00  0.00    +0.000 A 
ATOM     25  C   UNL     1       0.919   8.592  21.575  0.00  0.00    +0.000 A 
ATOM     26  C   UNL     1       0.445   9.770  20.993  0.00  0.00    +0.000 A 
ATOM     27  C   UNL     1       0.745  10.048  19.660  0.00  0.00    +0.000 A 
ATOM     28 BR   UNL     1       0.113  11.648  18.875  0.00  0.00    +0.000 Br
ATOM     29  C   UNL     1       1.510   9.161  18.902  0.00  0.00    +0.000 A 
ENDBRANCH  20  23
ENDBRANCH   1  19
TORSDOF 6
ENDMDL
