MODEL 1
REMARK VINA RESULT:      -8.4      0.000      0.000
REMARK  Name = 
REMARK  6 active torsions:
REMARK  status: ('A' for Active; 'I' for Inactive)
REMARK    1  A    between atoms: C_1  and  C_2
REMARK    2  A    between atoms: C_3  and  C_4
REMARK    3  A    between atoms: C_12  and  C_13
REMARK    4  A    between atoms: C_13  and  N_14
REMARK    5  A    between atoms: C_15  and  C_17
REMARK    6  A    between atoms: N_20  and  C_21
REMARK                            x       y       z     vdW  Elec       q    Type
REMARK                         _______ _______ _______ _____ _____    ______ ____
ROOT
ATOM      1  C   UNL     1       2.834   5.354  20.564  0.00  0.00    +0.000 C 
ATOM      2  C   UNL     1       2.483   6.556  19.752  0.00  0.00    +0.000 A 
ATOM      3  C   UNL     1       2.854   6.857  18.442  0.00  0.00    +0.000 A 
ATOM      4  N   UNL     1       2.378   8.133  18.189  0.00  0.00    +0.000 N 
ATOM      5  C   UNL     1       1.637   8.616  19.251  0.00  0.00    +0.000 A 
ATOM      6  C   UNL     1       0.942   9.835  19.412  0.00  0.00    +0.000 A 
ATOM      7  C   UNL     1       0.312  10.033  20.658  0.00  0.00    +0.000 A 
ATOM      8  C   UNL     1       0.361   9.071  21.662  0.00  0.00    +0.000 A 
ATOM      9 CL   UNL     1      -0.440   9.355  23.159  0.00  0.00    +0.000 Cl
ATOM     10  C   UNL     1       1.047   7.874  21.472  0.00  0.00    +0.000 A 
ATOM     11  C   UNL     1       1.696   7.643  20.245  0.00  0.00    +0.000 A 
ATOM     12  H   UNL     1       2.568   8.665  17.349  0.00  0.00    +0.000 HD
ENDROOT
BRANCH   3  13
ATOM     13  C   UNL     1       3.662   6.088  17.481  0.00  0.00    +0.000 A 
ATOM     14  C   UNL     1       3.527   4.692  17.406  0.00  0.00    +0.000 A 
ATOM     15  C   UNL     1       4.416   3.915  16.661  0.00  0.00    +0.000 A 
ATOM     16  C   UNL     1       5.418   4.531  15.922  0.00  0.00    +0.000 A 
ATOM     17  C   UNL     1       5.510   5.922  15.907  0.00  0.00    +0.000 A 
ATOM     18  C   UNL     1       4.640   6.698  16.685  0.00  0.00    +0.000 A 
ENDBRANCH   3  13
BRANCH   6  19
ATOM     19  C   UNL     1       0.847  10.899  18.350  0.00  0.00    +0.000 C 
BRANCH  19  20
ATOM     20  N   UNL     1      -0.467  11.493  18.295  0.00  0.00    +0.000 N 
ATOM     21  C   UNL     1      -1.526  10.858  17.693  0.00  0.00    +0.000 C 
ATOM     22  O   UNL     1      -1.423   9.767  17.137  0.00  0.00    +0.000 OA
ATOM     23  H   UNL     1      -0.592  12.419  18.679  0.00  0.00    +0.000 HD
BRANCH  21  24
ATOM     24  C   UNL     1      -2.872  11.567  17.790  0.00  0.00    +0.000 C 
ATOM     25  C   UNL     1      -3.350  11.763  19.231  0.00  0.00    +0.000 C 
ATOM     26  C   UNL     1      -4.709  12.471  19.254  0.00  0.00    +0.000 C 
ATOM     27  N   UNL     1      -5.708  11.732  18.467  0.00  0.00    +0.000 NA
ATOM     28  C   UNL     1      -7.004  12.413  18.527  0.00  0.00    +0.000 C 
ATOM     29  C   UNL     1      -5.285  11.578  17.069  0.00  0.00    +0.000 C 
ATOM     30  C   UNL     1      -3.949  10.843  16.977  0.00  0.00    +0.000 C 
ENDBRANCH  21  24
ENDBRANCH  19  20
ENDBRANCH   6  19
TORSDOF 4
ENDMDL
MODEL 2
REMARK VINA RESULT:      -7.9      3.254      4.265
REMARK  Name = 
REMARK  6 active torsions:
REMARK  status: ('A' for Active; 'I' for Inactive)
REMARK    1  A    between atoms: C_1  and  C_2
REMARK    2  A    between atoms: C_3  and  C_4
REMARK    3  A    between atoms: C_12  and  C_13
REMARK    4  A    between atoms: C_13  and  N_14
REMARK    5  A    between atoms: C_15  and  C_17
REMARK    6  A    between atoms: N_20  and  C_21
REMARK                            x       y       z     vdW  Elec       q    Type
REMARK                         _______ _______ _______ _____ _____    ______ ____
ROOT
ATOM      1  C   UNL     1       2.741   7.515  17.562  0.00  0.00    +0.000 C 
ATOM      2  C   UNL     1       2.168   7.871  18.894  0.00  0.00    +0.000 A 
ATOM      3  C   UNL     1       1.976   7.050  20.004  0.00  0.00    +0.000 A 
ATOM      4  N   UNL     1       1.307   7.819  20.942  0.00  0.00    +0.000 N 
ATOM      5  C   UNL     1       1.152   9.123  20.510  0.00  0.00    +0.000 A 
ATOM      6  C   UNL     1       0.574  10.243  21.148  0.00  0.00    +0.000 A 
ATOM      7  C   UNL     1       0.541  11.438  20.398  0.00  0.00    +0.000 A 
ATOM      8  C   UNL     1       1.066  11.506  19.111  0.00  0.00    +0.000 A 
ATOM      9 CL   UNL     1       1.016  12.994  18.246  0.00  0.00    +0.000 Cl
ATOM     10  C   UNL     1       1.637  10.387  18.511  0.00  0.00    +0.000 A 
ATOM     11  C   UNL     1       1.681   9.175  19.223  0.00  0.00    +0.000 A 
ATOM     12  H   UNL     1       0.946   7.473  21.822  0.00  0.00    +0.000 HD
ENDROOT
BRANCH   3  13
ATOM     13  C   UNL     1       2.294   5.627  20.201  0.00  0.00    +0.000 A 
ATOM     14  C   UNL     1       3.540   5.122  19.797  0.00  0.00    +0.000 A 
ATOM     15  C   UNL     1       3.797   3.750  19.777  0.00  0.00    +0.000 A 
ATOM     16  C   UNL     1       2.830   2.860  20.229  0.00  0.00    +0.000 A 
ATOM     17  C   UNL     1       1.621   3.348  20.725  0.00  0.00    +0.000 A 
ATOM     18  C   UNL     1       1.352   4.723  20.708  0.00  0.00    +0.000 A 
ENDBRANCH   3  13
BRANCH   6  19
ATOM     19  C   UNL     1       0.009  10.222  22.543  0.00  0.00    +0.000 C 
BRANCH  19  20
ATOM     20  N   UNL     1      -1.278  10.871  22.615  0.00  0.00    +0.000 N 
ATOM     21  C   UNL     1      -1.406  12.189  22.982  0.00  0.00    +0.000 C 
ATOM     22  O   UNL     1      -0.449  12.890  23.302  0.00  0.00    +0.000 OA
ATOM     23  H   UNL     1      -2.105  10.322  22.426  0.00  0.00    +0.000 HD
BRANCH  21  24
ATOM     24  C   UNL     1      -2.818  12.763  22.928  0.00  0.00    +0.000 C 
ATOM     25  C   UNL     1      -3.706  12.292  24.081  0.00  0.00    +0.000 C 
ATOM     26  C   UNL     1      -5.110  12.897  23.959  0.00  0.00    +0.000 C 
ATOM     27  N   UNL     1      -5.719  12.570  22.661  0.00  0.00    +0.000 NA
ATOM     28  C   UNL     1      -7.069  13.135  22.579  0.00  0.00    +0.000 C 
ATOM     29  C   UNL     1      -4.900  13.059  21.544  0.00  0.00    +0.000 C 
ATOM     30  C   UNL     1      -3.496  12.460  21.588  0.00  0.00    +0.000 C 
ENDBRANCH  21  24
ENDBRANCH  19  20
ENDBRANCH   6  19
TORSDOF 4
ENDMDL
MODEL 3
REMARK VINA RESULT:      -7.9      3.281      5.117
REMARK  Name = 
REMARK  6 active torsions:
REMARK  status: ('A' for Active; 'I' for Inactive)
REMARK    1  A    between atoms: C_1  and  C_2
REMARK    2  A    between atoms: C_3  and  C_4
REMARK    3  A    between atoms: C_12  and  C_13
REMARK    4  A    between atoms: C_13  and  N_14
REMARK    5  A    between atoms: C_15  and  C_17
REMARK    6  A    between atoms: N_20  and  C_21
REMARK                            x       y       z     vdW  Elec       q    Type
REMARK                         _______ _______ _______ _____ _____    ______ ____
ROOT
ATOM      1  C   UNL     1       2.894   5.218  20.388  0.00  0.00    +0.000 C 
ATOM      2  C   UNL     1       2.594   6.416  19.550  0.00  0.00    +0.000 A 
ATOM      3  C   UNL     1       3.022   6.699  18.254  0.00  0.00    +0.000 A 
ATOM      4  N   UNL     1       2.574   7.978  17.969  0.00  0.00    +0.000 N 
ATOM      5  C   UNL     1       1.798   8.482  18.995  0.00  0.00    +0.000 A 
ATOM      6  C   UNL     1       1.113   9.712  19.115  0.00  0.00    +0.000 A 
ATOM      7  C   UNL     1       0.435   9.931  20.333  0.00  0.00    +0.000 A 
ATOM      8  C   UNL     1       0.430   8.978  21.347  0.00  0.00    +0.000 A 
ATOM      9 CL   UNL     1      -0.428   9.288  22.807  0.00  0.00    +0.000 Cl
ATOM     10  C   UNL     1       1.107   7.771  21.197  0.00  0.00    +0.000 A 
ATOM     11  C   UNL     1       1.803   7.519  20.000  0.00  0.00    +0.000 A 
ATOM     12  H   UNL     1       2.806   8.500  17.133  0.00  0.00    +0.000 HD
ENDROOT
BRANCH   3  13
ATOM     13  C   UNL     1       3.858   5.910  17.334  0.00  0.00    +0.000 A 
ATOM     14  C   UNL     1       3.738   4.511  17.298  0.00  0.00    +0.000 A 
ATOM     15  C   UNL     1       4.650   3.721  16.597  0.00  0.00    +0.000 A 
ATOM     16  C   UNL     1       5.663   4.324  15.861  0.00  0.00    +0.000 A 
ATOM     17  C   UNL     1       5.742   5.715  15.807  0.00  0.00    +0.000 A 
ATOM     18  C   UNL     1       4.848   6.505  16.542  0.00  0.00    +0.000 A 
ENDBRANCH   3  13
BRANCH   6  19
ATOM     19  C   UNL     1       1.077  10.766  18.041  0.00  0.00    +0.000 C 
BRANCH  19  20
ATOM     20  N   UNL     1       2.140  11.730  18.192  0.00  0.00    +0.000 N 
ATOM     21  C   UNL     1       1.914  12.986  18.699  0.00  0.00    +0.000 C 
ATOM     22  O   UNL     1       0.798  13.385  19.026  0.00  0.00    +0.000 OA
ATOM     23  H   UNL     1       3.067  11.477  17.877  0.00  0.00    +0.000 HD
BRANCH  21  24
ATOM     24  C   UNL     1       3.148  13.864  18.883  0.00  0.00    +0.000 C 
ATOM     25  C   UNL     1       3.291  14.414  20.304  0.00  0.00    +0.000 C 
ATOM     26  C   UNL     1       4.543  15.292  20.415  0.00  0.00    +0.000 C 
ATOM     27  N   UNL     1       4.516  16.384  19.430  0.00  0.00    +0.000 NA
ATOM     28  C   UNL     1       5.708  17.225  19.573  0.00  0.00    +0.000 C 
ATOM     29  C   UNL     1       4.427  15.869  18.057  0.00  0.00    +0.000 C 
ATOM     30  C   UNL     1       3.175  15.013  17.872  0.00  0.00    +0.000 C 
ENDBRANCH  21  24
ENDBRANCH  19  20
ENDBRANCH   6  19
TORSDOF 4
ENDMDL
MODEL 4
REMARK VINA RESULT:      -7.8      3.270      5.208
REMARK  Name = 
REMARK  6 active torsions:
REMARK  status: ('A' for Active; 'I' for Inactive)
REMARK    1  A    between atoms: C_1  and  C_2
REMARK    2  A    between atoms: C_3  and  C_4
REMARK    3  A    between atoms: C_12  and  C_13
REMARK    4  A    between atoms: C_13  and  N_14
REMARK    5  A    between atoms: C_15  and  C_17
REMARK    6  A    between atoms: N_20  and  C_21
REMARK                            x       y       z     vdW  Elec       q    Type
REMARK                         _______ _______ _______ _____ _____    ______ ____
ROOT
ATOM      1  C   UNL     1       2.917   5.195  20.442  0.00  0.00    +0.000 C 
ATOM      2  C   UNL     1       2.639   6.388  19.589  0.00  0.00    +0.000 A 
ATOM      3  C   UNL     1       3.104   6.664  18.305  0.00  0.00    +0.000 A 
ATOM      4  N   UNL     1       2.663   7.941  18.000  0.00  0.00    +0.000 N 
ATOM      5  C   UNL     1       1.855   8.449  19.000  0.00  0.00    +0.000 A 
ATOM      6  C   UNL     1       1.165   9.678  19.093  0.00  0.00    +0.000 A 
ATOM      7  C   UNL     1       0.451   9.902  20.290  0.00  0.00    +0.000 A 
ATOM      8  C   UNL     1       0.418   8.955  21.308  0.00  0.00    +0.000 A 
ATOM      9 CL   UNL     1      -0.483   9.271  22.741  0.00  0.00    +0.000 Cl
ATOM     10  C   UNL     1       1.102   7.748  21.185  0.00  0.00    +0.000 A 
ATOM     11  C   UNL     1       1.833   7.491  20.010  0.00  0.00    +0.000 A 
ATOM     12  H   UNL     1       2.917   8.459  17.168  0.00  0.00    +0.000 HD
ENDROOT
BRANCH   3  13
ATOM     13  C   UNL     1       3.969   5.872  17.414  0.00  0.00    +0.000 A 
ATOM     14  C   UNL     1       4.850   6.517  16.533  0.00  0.00    +0.000 A 
ATOM     15  C   UNL     1       5.528   5.812  15.537  0.00  0.00    +0.000 A 
ATOM     16  C   UNL     1       5.386   4.433  15.450  0.00  0.00    +0.000 A 
ATOM     17  C   UNL     1       4.590   3.761  16.377  0.00  0.00    +0.000 A 
ATOM     18  C   UNL     1       3.881   4.476  17.352  0.00  0.00    +0.000 A 
ENDBRANCH   3  13
BRANCH   6  19
ATOM     19  C   UNL     1       1.158  10.726  18.012  0.00  0.00    +0.000 C 
BRANCH  19  20
ATOM     20  N   UNL     1       2.011  11.844  18.338  0.00  0.00    +0.000 N 
ATOM     21  C   UNL     1       1.498  13.063  18.711  0.00  0.00    +0.000 C 
ATOM     22  O   UNL     1       0.292  13.294  18.762  0.00  0.00    +0.000 OA
ATOM     23  H   UNL     1       3.011  11.729  18.248  0.00  0.00    +0.000 HD
BRANCH  21  24
ATOM     24  C   UNL     1       2.520  14.123  19.110  0.00  0.00    +0.000 C 
ATOM     25  C   UNL     1       3.729  14.179  18.173  0.00  0.00    +0.000 C 
ATOM     26  C   UNL     1       4.717  15.256  18.637  0.00  0.00    +0.000 C 
ATOM     27  N   UNL     1       5.141  15.025  20.027  0.00  0.00    +0.000 NA
ATOM     28  C   UNL     1       6.105  16.050  20.438  0.00  0.00    +0.000 C 
ATOM     29  C   UNL     1       3.994  15.016  20.945  0.00  0.00    +0.000 C 
ATOM     30  C   UNL     1       2.987  13.935  20.556  0.00  0.00    +0.000 C 
ENDBRANCH  21  24
ENDBRANCH  19  20
ENDBRANCH   6  19
TORSDOF 4
ENDMDL
MODEL 5
REMARK VINA RESULT:      -7.8      3.304      5.211
REMARK  Name = 
REMARK  6 active torsions:
REMARK  status: ('A' for Active; 'I' for Inactive)
REMARK    1  A    between atoms: C_1  and  C_2
REMARK    2  A    between atoms: C_3  and  C_4
REMARK    3  A    between atoms: C_12  and  C_13
REMARK    4  A    between atoms: C_13  and  N_14
REMARK    5  A    between atoms: C_15  and  C_17
REMARK    6  A    between atoms: N_20  and  C_21
REMARK                            x       y       z     vdW  Elec       q    Type
REMARK                         _______ _______ _______ _____ _____    ______ ____
ROOT
ATOM      1  C   UNL     1       2.876   5.201  20.440  0.00  0.00    +0.000 C 
ATOM      2  C   UNL     1       2.609   6.413  19.610  0.00  0.00    +0.000 A 
ATOM      3  C   UNL     1       3.087   6.715  18.336  0.00  0.00    +0.000 A 
ATOM      4  N   UNL     1       2.652   8.000  18.055  0.00  0.00    +0.000 N 
ATOM      5  C   UNL     1       1.838   8.489  19.058  0.00  0.00    +0.000 A 
ATOM      6  C   UNL     1       1.150   9.719  19.171  0.00  0.00    +0.000 A 
ATOM      7  C   UNL     1       0.428   9.920  20.366  0.00  0.00    +0.000 A 
ATOM      8  C   UNL     1       0.382   8.952  21.364  0.00  0.00    +0.000 A 
ATOM      9 CL   UNL     1      -0.530   9.241  22.795  0.00  0.00    +0.000 Cl
ATOM     10  C   UNL     1       1.063   7.745  21.221  0.00  0.00    +0.000 A 
ATOM     11  C   UNL     1       1.803   7.510  20.048  0.00  0.00    +0.000 A 
ATOM     12  H   UNL     1       2.916   8.533  17.236  0.00  0.00    +0.000 HD
ENDROOT
BRANCH   3  13
ATOM     13  C   UNL     1       3.956   5.938  17.437  0.00  0.00    +0.000 A 
ATOM     14  C   UNL     1       4.847   6.599  16.576  0.00  0.00    +0.000 A 
ATOM     15  C   UNL     1       5.531   5.912  15.571  0.00  0.00    +0.000 A 
ATOM     16  C   UNL     1       5.385   4.535  15.455  0.00  0.00    +0.000 A 
ATOM     17  C   UNL     1       4.579   3.847  16.361  0.00  0.00    +0.000 A 
ATOM     18  C   UNL     1       3.864   4.544  17.344  0.00  0.00    +0.000 A 
ENDBRANCH   3  13
BRANCH   6  19
ATOM     19  C   UNL     1       1.157  10.789  18.113  0.00  0.00    +0.000 C 
BRANCH  19  20
ATOM     20  N   UNL     1       2.172  11.785  18.357  0.00  0.00    +0.000 N 
ATOM     21  C   UNL     1       1.873  13.004  18.917  0.00  0.00    +0.000 C 
ATOM     22  O   UNL     1       0.729  13.340  19.216  0.00  0.00    +0.000 OA
ATOM     23  H   UNL     1       3.120  11.587  18.069  0.00  0.00    +0.000 HD
BRANCH  21  24
ATOM     24  C   UNL     1       3.060  13.919  19.197  0.00  0.00    +0.000 C 
ATOM     25  C   UNL     1       2.665  15.232  19.876  0.00  0.00    +0.000 C 
ATOM     26  C   UNL     1       3.902  16.105  20.117  0.00  0.00    +0.000 C 
ATOM     27  N   UNL     1       4.626  16.361  18.863  0.00  0.00    +0.000 NA
ATOM     28  C   UNL     1       5.787  17.219  19.115  0.00  0.00    +0.000 C 
ATOM     29  C   UNL     1       5.054  15.110  18.224  0.00  0.00    +0.000 C 
ATOM     30  C   UNL     1       3.858  14.209  17.922  0.00  0.00    +0.000 C 
ENDBRANCH  21  24
ENDBRANCH  19  20
ENDBRANCH   6  19
TORSDOF 4
ENDMDL
MODEL 6
REMARK VINA RESULT:      -7.8      3.017      9.516
REMARK  Name = 
REMARK  6 active torsions:
REMARK  status: ('A' for Active; 'I' for Inactive)
REMARK    1  A    between atoms: C_1  and  C_2
REMARK    2  A    between atoms: C_3  and  C_4
REMARK    3  A    between atoms: C_12  and  C_13
REMARK    4  A    between atoms: C_13  and  N_14
REMARK    5  A    between atoms: C_15  and  C_17
REMARK    6  A    between atoms: N_20  and  C_21
REMARK                            x       y       z     vdW  Elec       q    Type
REMARK                         _______ _______ _______ _____ _____    ______ ____
ROOT
ATOM      1  C   UNL     1      -6.049  12.733  19.488  0.00  0.00    +0.000 C 
ATOM      2  C   UNL     1      -4.592  12.425  19.584  0.00  0.00    +0.000 A 
ATOM      3  C   UNL     1      -3.707  12.726  20.618  0.00  0.00    +0.000 A 
ATOM      4  N   UNL     1      -2.452  12.338  20.179  0.00  0.00    +0.000 N 
ATOM      5  C   UNL     1      -2.518  11.715  18.947  0.00  0.00    +0.000 A 
ATOM      6  C   UNL     1      -1.505  11.132  18.152  0.00  0.00    +0.000 A 
ATOM      7  C   UNL     1      -1.915  10.609  16.908  0.00  0.00    +0.000 A 
ATOM      8  C   UNL     1      -3.244  10.650  16.500  0.00  0.00    +0.000 A 
ATOM      9 CL   UNL     1      -3.693   9.981  14.979  0.00  0.00    +0.000 Cl
ATOM     10  C   UNL     1      -4.223  11.223  17.309  0.00  0.00    +0.000 A 
ATOM     11  C   UNL     1      -3.853  11.765  18.554  0.00  0.00    +0.000 A 
ATOM     12  H   UNL     1      -1.586  12.511  20.674  0.00  0.00    +0.000 HD
ENDROOT
BRANCH   3  13
ATOM     13  C   UNL     1      -3.942  13.401  21.906  0.00  0.00    +0.000 A 
ATOM     14  C   UNL     1      -4.236  14.774  21.937  0.00  0.00    +0.000 A 
ATOM     15  C   UNL     1      -4.259  15.484  23.139  0.00  0.00    +0.000 A 
ATOM     16  C   UNL     1      -4.054  14.816  24.340  0.00  0.00    +0.000 A 
ATOM     17  C   UNL     1      -3.856  13.436  24.337  0.00  0.00    +0.000 A 
ATOM     18  C   UNL     1      -3.795  12.732  23.127  0.00  0.00    +0.000 A 
ENDBRANCH   3  13
BRANCH   6  19
ATOM     19  C   UNL     1      -0.058  11.050  18.558  0.00  0.00    +0.000 C 
BRANCH  19  20
ATOM     20  N   UNL     1       0.423   9.689  18.573  0.00  0.00    +0.000 N 
ATOM     21  C   UNL     1       1.667   9.354  18.094  0.00  0.00    +0.000 C 
ATOM     22  O   UNL     1       2.435  10.174  17.596  0.00  0.00    +0.000 OA
ATOM     23  H   UNL     1      -0.195   8.964  18.911  0.00  0.00    +0.000 HD
BRANCH  21  24
ATOM     24  C   UNL     1       2.072   7.893  18.256  0.00  0.00    +0.000 C 
ATOM     25  C   UNL     1       2.098   7.431  19.715  0.00  0.00    +0.000 C 
ATOM     26  C   UNL     1       2.522   5.960  19.804  0.00  0.00    +0.000 C 
ATOM     27  N   UNL     1       3.827   5.743  19.163  0.00  0.00    +0.000 NA
ATOM     28  C   UNL     1       4.223   4.337  19.285  0.00  0.00    +0.000 C 
ATOM     29  C   UNL     1       3.804   6.137  17.747  0.00  0.00    +0.000 C 
ATOM     30  C   UNL     1       3.423   7.608  17.594  0.00  0.00    +0.000 C 
ENDBRANCH  21  24
ENDBRANCH  19  20
ENDBRANCH   6  19
TORSDOF 4
ENDMDL
MODEL 7
REMARK VINA RESULT:      -7.7      1.003      1.357
REMARK  Name = 
REMARK  6 active torsions:
REMARK  status: ('A' for Active; 'I' for Inactive)
REMARK    1  A    between atoms: C_1  and  C_2
REMARK    2  A    between atoms: C_3  and  C_4
REMARK    3  A    between atoms: C_12  and  C_13
REMARK    4  A    between atoms: C_13  and  N_14
REMARK    5  A    between atoms: C_15  and  C_17
REMARK    6  A    between atoms: N_20  and  C_21
REMARK                            x       y       z     vdW  Elec       q    Type
REMARK                         _______ _______ _______ _____ _____    ______ ____
ROOT
ATOM      1  C   UNL     1       3.462   5.030  20.284  0.00  0.00    +0.000 C 
ATOM      2  C   UNL     1       2.986   6.181  19.462  0.00  0.00    +0.000 A 
ATOM      3  C   UNL     1       3.301   6.493  18.140  0.00  0.00    +0.000 A 
ATOM      4  N   UNL     1       2.705   7.715  17.880  0.00  0.00    +0.000 N 
ATOM      5  C   UNL     1       1.945   8.147  18.950  0.00  0.00    +0.000 A 
ATOM      6  C   UNL     1       1.143   9.299  19.108  0.00  0.00    +0.000 A 
ATOM      7  C   UNL     1       0.524   9.459  20.365  0.00  0.00    +0.000 A 
ATOM      8  C   UNL     1       0.681   8.522  21.381  0.00  0.00    +0.000 A 
ATOM      9 CL   UNL     1      -0.112   8.757  22.891  0.00  0.00    +0.000 Cl
ATOM     10  C   UNL     1       1.471   7.390  21.194  0.00  0.00    +0.000 A 
ATOM     11  C   UNL     1       2.113   7.200  19.957  0.00  0.00    +0.000 A 
ATOM     12  H   UNL     1       2.828   8.249  17.028  0.00  0.00    +0.000 HD
ENDROOT
BRANCH   3  13
ATOM     13  C   UNL     1       4.156   5.786  17.173  0.00  0.00    +0.000 A 
ATOM     14  C   UNL     1       4.936   6.513  16.259  0.00  0.00    +0.000 A 
ATOM     15  C   UNL     1       5.593   5.883  15.201  0.00  0.00    +0.000 A 
ATOM     16  C   UNL     1       5.536   4.500  15.080  0.00  0.00    +0.000 A 
ATOM     17  C   UNL     1       4.847   3.750  16.033  0.00  0.00    +0.000 A 
ATOM     18  C   UNL     1       4.157   4.389  17.072  0.00  0.00    +0.000 A 
ENDBRANCH   3  13
BRANCH   6  19
ATOM     19  C   UNL     1       0.930  10.332  18.033  0.00  0.00    +0.000 C 
BRANCH  19  20
ATOM     20  N   UNL     1      -0.462  10.688  17.894  0.00  0.00    +0.000 N 
ATOM     21  C   UNL     1      -0.987  11.808  18.491  0.00  0.00    +0.000 C 
ATOM     22  O   UNL     1      -0.325  12.559  19.204  0.00  0.00    +0.000 OA
ATOM     23  H   UNL     1      -1.067  10.069  17.372  0.00  0.00    +0.000 HD
BRANCH  21  24
ATOM     24  C   UNL     1      -2.451  12.104  18.183  0.00  0.00    +0.000 C 
ATOM     25  C   UNL     1      -3.333  12.160  19.432  0.00  0.00    +0.000 C 
ATOM     26  C   UNL     1      -4.789  12.451  19.049  0.00  0.00    +0.000 C 
ATOM     27  N   UNL     1      -5.297  11.454  18.094  0.00  0.00    +0.000 NA
ATOM     28  C   UNL     1      -6.696  11.737  17.764  0.00  0.00    +0.000 C 
ATOM     29  C   UNL     1      -4.488  11.422  16.868  0.00  0.00    +0.000 C 
ATOM     30  C   UNL     1      -3.028  11.099  17.181  0.00  0.00    +0.000 C 
ENDBRANCH  21  24
ENDBRANCH  19  20
ENDBRANCH   6  19
TORSDOF 4
ENDMDL
MODEL 8
REMARK VINA RESULT:      -7.7      3.416      9.027
REMARK  Name = 
REMARK  6 active torsions:
REMARK  status: ('A' for Active; 'I' for Inactive)
REMARK    1  A    between atoms: C_1  and  C_2
REMARK    2  A    between atoms: C_3  and  C_4
REMARK    3  A    between atoms: C_12  and  C_13
REMARK    4  A    between atoms: C_13  and  N_14
REMARK    5  A    between atoms: C_15  and  C_17
REMARK    6  A    between atoms: N_20  and  C_21
REMARK                            x       y       z     vdW  Elec       q    Type
REMARK                         _______ _______ _______ _____ _____    ______ ____
ROOT
ATOM      1  C   UNL     1      -4.346  12.919  20.327  0.00  0.00    +0.000 C 
ATOM      2  C   UNL     1      -2.965  12.357  20.397  0.00  0.00    +0.000 A 
ATOM      3  C   UNL     1      -2.008  12.526  21.396  0.00  0.00    +0.000 A 
ATOM      4  N   UNL     1      -0.857  11.905  20.939  0.00  0.00    +0.000 N 
ATOM      5  C   UNL     1      -1.073  11.266  19.732  0.00  0.00    +0.000 A 
ATOM      6  C   UNL     1      -0.206  10.487  18.933  0.00  0.00    +0.000 A 
ATOM      7  C   UNL     1      -0.742  10.008  17.720  0.00  0.00    +0.000 A 
ATOM      8  C   UNL     1      -2.055  10.275  17.345  0.00  0.00    +0.000 A 
ATOM      9 CL   UNL     1      -2.664   9.651  15.861  0.00  0.00    +0.000 Cl
ATOM     10  C   UNL     1      -2.889  11.039  18.157  0.00  0.00    +0.000 A 
ATOM     11  C   UNL     1      -2.389  11.543  19.372  0.00  0.00    +0.000 A 
ATOM     12  H   UNL     1       0.041  11.935  21.405  0.00  0.00    +0.000 HD
ENDROOT
BRANCH   3  13
ATOM     13  C   UNL     1      -2.077  13.271  22.664  0.00  0.00    +0.000 A 
ATOM     14  C   UNL     1      -3.188  13.119  23.510  0.00  0.00    +0.000 A 
ATOM     15  C   UNL     1      -3.385  13.957  24.609  0.00  0.00    +0.000 A 
ATOM     16  C   UNL     1      -2.434  14.921  24.920  0.00  0.00    +0.000 A 
ATOM     17  C   UNL     1      -1.277  15.025  24.148  0.00  0.00    +0.000 A 
ATOM     18  C   UNL     1      -1.100  14.207  23.024  0.00  0.00    +0.000 A 
ENDBRANCH   3  13
BRANCH   6  19
ATOM     19  C   UNL     1       1.215  10.158  19.304  0.00  0.00    +0.000 C 
BRANCH  19  20
ATOM     20  N   UNL     1       1.405   8.744  19.520  0.00  0.00    +0.000 N 
ATOM     21  C   UNL     1       2.243   7.995  18.730  0.00  0.00    +0.000 C 
ATOM     22  O   UNL     1       2.859   8.464  17.776  0.00  0.00    +0.000 OA
ATOM     23  H   UNL     1       0.871   8.293  20.251  0.00  0.00    +0.000 HD
BRANCH  21  24
ATOM     24  C   UNL     1       2.410   6.534  19.133  0.00  0.00    +0.000 C 
ATOM     25  C   UNL     1       1.943   5.552  18.055  0.00  0.00    +0.000 C 
ATOM     26  C   UNL     1       2.130   4.106  18.529  0.00  0.00    +0.000 C 
ATOM     27  N   UNL     1       1.425   3.866  19.797  0.00  0.00    +0.000 NA
ATOM     28  C   UNL     1       1.596   2.472  20.215  0.00  0.00    +0.000 C 
ATOM     29  C   UNL     1       1.898   4.769  20.855  0.00  0.00    +0.000 C 
ATOM     30  C   UNL     1       1.703   6.231  20.457  0.00  0.00    +0.000 C 
ENDBRANCH  21  24
ENDBRANCH  19  20
ENDBRANCH   6  19
TORSDOF 4
ENDMDL
MODEL 9
REMARK VINA RESULT:      -7.7      3.268      4.817
REMARK  Name = 
REMARK  6 active torsions:
REMARK  status: ('A' for Active; 'I' for Inactive)
REMARK    1  A    between atoms: C_1  and  C_2
REMARK    2  A    between atoms: C_3  and  C_4
REMARK    3  A    between atoms: C_12  and  C_13
REMARK    4  A    between atoms: C_13  and  N_14
REMARK    5  A    between atoms: C_15  and  C_17
REMARK    6  A    between atoms: N_20  and  C_21
REMARK                            x       y       z     vdW  Elec       q    Type
REMARK                         _______ _______ _______ _____ _____    ______ ____
ROOT
ATOM      1  C   UNL     1       2.928   5.204  20.449  0.00  0.00    +0.000 C 
ATOM      2  C   UNL     1       2.649   6.393  19.590  0.00  0.00    +0.000 A 
ATOM      3  C   UNL     1       3.109   6.661  18.302  0.00  0.00    +0.000 A 
ATOM      4  N   UNL     1       2.670   7.937  17.992  0.00  0.00    +0.000 N 
ATOM      5  C   UNL     1       1.869   8.453  18.993  0.00  0.00    +0.000 A 
ATOM      6  C   UNL     1       1.182   9.685  19.082  0.00  0.00    +0.000 A 
ATOM      7  C   UNL     1       0.475   9.918  20.281  0.00  0.00    +0.000 A 
ATOM      8  C   UNL     1       0.444   8.976  21.305  0.00  0.00    +0.000 A 
ATOM      9 CL   UNL     1      -0.450   9.303  22.739  0.00  0.00    +0.000 Cl
ATOM     10  C   UNL     1       1.123   7.767  21.185  0.00  0.00    +0.000 A 
ATOM     11  C   UNL     1       1.848   7.501  20.009  0.00  0.00    +0.000 A 
ATOM     12  H   UNL     1       2.922   8.449  17.156  0.00  0.00    +0.000 HD
ENDROOT
BRANCH   3  13
ATOM     13  C   UNL     1       3.967   5.861  17.412  0.00  0.00    +0.000 A 
ATOM     14  C   UNL     1       4.866   6.499  16.541  0.00  0.00    +0.000 A 
ATOM     15  C   UNL     1       5.539   5.789  15.545  0.00  0.00    +0.000 A 
ATOM     16  C   UNL     1       5.376   4.413  15.448  0.00  0.00    +0.000 A 
ATOM     17  C   UNL     1       4.562   3.748  16.365  0.00  0.00    +0.000 A 
ATOM     18  C   UNL     1       3.858   4.467  17.339  0.00  0.00    +0.000 A 
ENDBRANCH   3  13
BRANCH   6  19
ATOM     19  C   UNL     1       1.173  10.727  17.996  0.00  0.00    +0.000 C 
BRANCH  19  20
ATOM     20  N   UNL     1       1.985  11.870  18.336  0.00  0.00    +0.000 N 
ATOM     21  C   UNL     1       1.450  13.129  18.462  0.00  0.00    +0.000 C 
ATOM     22  O   UNL     1       0.261  13.373  18.264  0.00  0.00    +0.000 OA
ATOM     23  H   UNL     1       2.981  11.738  18.444  0.00  0.00    +0.000 HD
BRANCH  21  24
ATOM     24  C   UNL     1       2.413  14.222  18.912  0.00  0.00    +0.000 C 
ATOM     25  C   UNL     1       3.015  13.965  20.295  0.00  0.00    +0.000 C 
ATOM     26  C   UNL     1       3.964  15.104  20.687  0.00  0.00    +0.000 C 
ATOM     27  N   UNL     1       3.278  16.405  20.648  0.00  0.00    +0.000 NA
ATOM     28  C   UNL     1       4.196  17.473  21.053  0.00  0.00    +0.000 C 
ATOM     29  C   UNL     1       2.736  16.687  19.312  0.00  0.00    +0.000 C 
ATOM     30  C   UNL     1       1.751  15.602  18.878  0.00  0.00    +0.000 C 
ENDBRANCH  21  24
ENDBRANCH  19  20
ENDBRANCH   6  19
TORSDOF 4
ENDMDL
