MODEL 1
REMARK VINA RESULT:      -4.9      0.000      0.000
REMARK  Name = 
REMARK  3 active torsions:
REMARK  status: ('A' for Active; 'I' for Inactive)
REMARK    1  A    between atoms: C_2  and  C_3
REMARK    2  A    between atoms: C_7  and  C_8
REMARK    3  A    between atoms: C_8  and  N_9
REMARK                            x       y       z     vdW  Elec       q    Type
REMARK                         _______ _______ _______ _____ _____    ______ ____
ROOT
ATOM      1  C   UNL     1       6.018   4.296  16.177  0.00  0.00    +0.000 A 
ATOM      2  C   UNL     1       4.825   3.934  16.812  0.00  0.00    +0.000 A 
ATOM      3  C   UNL     1       4.647   4.199  18.170  0.00  0.00    +0.000 A 
ATOM      4  C   UNL     1       5.660   4.826  18.900  0.00  0.00    +0.000 A 
ATOM      5  C   UNL     1       6.864   5.193  18.281  0.00  0.00    +0.000 A 
ATOM      6  C   UNL     1       7.031   4.925  16.912  0.00  0.00    +0.000 A 
ENDROOT
BRANCH   1   8
ATOM      7  N   UNL     1       6.328   3.810  13.647  0.00  0.00    +0.000 NA
ATOM      8  C   UNL     1       6.195   4.030  14.780  0.00  0.00    +0.000 C 
ENDBRANCH   1   8
BRANCH   5   9
ATOM      9  C   UNL     1       7.948   5.886  19.069  0.00  0.00    +0.000 C 
BRANCH   9  10
ATOM     10  N   UNL     1       8.029   5.382  20.433  0.00  0.00    +0.000 NA
ATOM     11  H   UNL     1       8.514   4.485  20.426  0.00  0.00    +0.000 HD
ATOM     12  H   UNL     1       7.087   5.192  20.773  0.00  0.00    +0.000 HD
ENDBRANCH   9  10
ENDBRANCH   5   9
TORSDOF 3
ENDMDL
MODEL 2
REMARK VINA RESULT:      -4.9      2.834      4.591
REMARK  Name = 
REMARK  3 active torsions:
REMARK  status: ('A' for Active; 'I' for Inactive)
REMARK    1  A    between atoms: C_2  and  C_3
REMARK    2  A    between atoms: C_7  and  C_8
REMARK    3  A    between atoms: C_8  and  N_9
REMARK                            x       y       z     vdW  Elec       q    Type
REMARK                         _______ _______ _______ _____ _____    ______ ____
ROOT
ATOM      1  C   UNL     1       4.910   4.945  18.822  0.00  0.00    +0.000 A 
ATOM      2  C   UNL     1       4.027   5.976  18.486  0.00  0.00    +0.000 A 
ATOM      3  C   UNL     1       2.763   5.676  17.976  0.00  0.00    +0.000 A 
ATOM      4  C   UNL     1       2.377   4.345  17.801  0.00  0.00    +0.000 A 
ATOM      5  C   UNL     1       3.250   3.298  18.129  0.00  0.00    +0.000 A 
ATOM      6  C   UNL     1       4.519   3.612  18.645  0.00  0.00    +0.000 A 
ENDROOT
BRANCH   1   8
ATOM      7  N   UNL     1       7.258   5.508  19.772  0.00  0.00    +0.000 NA
ATOM      8  C   UNL     1       6.205   5.255  19.353  0.00  0.00    +0.000 C 
ENDBRANCH   1   8
BRANCH   5   9
ATOM      9  C   UNL     1       2.822   1.863  17.955  0.00  0.00    +0.000 C 
BRANCH   9  10
ATOM     10  N   UNL     1       3.883   0.935  18.326  0.00  0.00    +0.000 NA
ATOM     11  H   UNL     1       3.636   0.486  19.208  0.00  0.00    +0.000 HD
ATOM     12  H   UNL     1       4.736   1.462  18.506  0.00  0.00    +0.000 HD
ENDBRANCH   9  10
ENDBRANCH   5   9
TORSDOF 3
ENDMDL
MODEL 3
REMARK VINA RESULT:      -4.9      2.711      3.845
REMARK  Name = 
REMARK  3 active torsions:
REMARK  status: ('A' for Active; 'I' for Inactive)
REMARK    1  A    between atoms: C_2  and  C_3
REMARK    2  A    between atoms: C_7  and  C_8
REMARK    3  A    between atoms: C_8  and  N_9
REMARK                            x       y       z     vdW  Elec       q    Type
REMARK                         _______ _______ _______ _____ _____    ______ ____
ROOT
ATOM      1  C   UNL     1       4.907   5.245  16.887  0.00  0.00    +0.000 A 
ATOM      2  C   UNL     1       4.163   6.307  17.411  0.00  0.00    +0.000 A 
ATOM      3  C   UNL     1       2.929   6.065  18.017  0.00  0.00    +0.000 A 
ATOM      4  C   UNL     1       2.435   4.762  18.102  0.00  0.00    +0.000 A 
ATOM      5  C   UNL     1       3.166   3.685  17.579  0.00  0.00    +0.000 A 
ATOM      6  C   UNL     1       4.409   3.939  16.975  0.00  0.00    +0.000 A 
ENDROOT
BRANCH   1   8
ATOM      7  N   UNL     1       7.212   5.702  15.786  0.00  0.00    +0.000 NA
ATOM      8  C   UNL     1       6.178   5.495  16.273  0.00  0.00    +0.000 C 
ENDBRANCH   1   8
BRANCH   5   9
ATOM      9  C   UNL     1       2.636   2.277  17.690  0.00  0.00    +0.000 C 
BRANCH   9  10
ATOM     10  N   UNL     1       3.661   1.350  18.155  0.00  0.00    +0.000 NA
ATOM     11  H   UNL     1       4.447   1.375  17.506  0.00  0.00    +0.000 HD
ATOM     12  H   UNL     1       3.292   0.402  18.117  0.00  0.00    +0.000 HD
ENDBRANCH   9  10
ENDBRANCH   5   9
TORSDOF 3
ENDMDL
MODEL 4
REMARK VINA RESULT:      -4.8      2.955      3.757
REMARK  Name = 
REMARK  3 active torsions:
REMARK  status: ('A' for Active; 'I' for Inactive)
REMARK    1  A    between atoms: C_2  and  C_3
REMARK    2  A    between atoms: C_7  and  C_8
REMARK    3  A    between atoms: C_8  and  N_9
REMARK                            x       y       z     vdW  Elec       q    Type
REMARK                         _______ _______ _______ _____ _____    ______ ____
ROOT
ATOM      1  C   UNL     1       3.235   4.537  17.536  0.00  0.00    +0.000 A 
ATOM      2  C   UNL     1       3.117   5.901  17.823  0.00  0.00    +0.000 A 
ATOM      3  C   UNL     1       4.167   6.772  17.526  0.00  0.00    +0.000 A 
ATOM      4  C   UNL     1       5.338   6.283  16.943  0.00  0.00    +0.000 A 
ATOM      5  C   UNL     1       5.476   4.917  16.652  0.00  0.00    +0.000 A 
ATOM      6  C   UNL     1       4.411   4.051  16.951  0.00  0.00    +0.000 A 
ENDROOT
BRANCH   1   8
ATOM      7  N   UNL     1       1.283   2.915  18.075  0.00  0.00    +0.000 NA
ATOM      8  C   UNL     1       2.153   3.646  17.834  0.00  0.00    +0.000 C 
ENDBRANCH   1   8
BRANCH   5   9
ATOM      9  C   UNL     1       6.735   4.397  16.005  0.00  0.00    +0.000 C 
BRANCH   9  10
ATOM     10  N   UNL     1       7.815   4.245  16.971  0.00  0.00    +0.000 NA
ATOM     11  H   UNL     1       7.413   4.040  17.886  0.00  0.00    +0.000 HD
ATOM     12  H   UNL     1       8.300   5.136  17.069  0.00  0.00    +0.000 HD
ENDBRANCH   9  10
ENDBRANCH   5   9
TORSDOF 3
ENDMDL
MODEL 5
REMARK VINA RESULT:      -4.8      2.160      2.630
REMARK  Name = 
REMARK  3 active torsions:
REMARK  status: ('A' for Active; 'I' for Inactive)
REMARK    1  A    between atoms: C_2  and  C_3
REMARK    2  A    between atoms: C_7  and  C_8
REMARK    3  A    between atoms: C_8  and  N_9
REMARK                            x       y       z     vdW  Elec       q    Type
REMARK                         _______ _______ _______ _____ _____    ______ ____
ROOT
ATOM      1  C   UNL     1       5.380   4.755  15.487  0.00  0.00    +0.000 A 
ATOM      2  C   UNL     1       5.300   6.139  15.678  0.00  0.00    +0.000 A 
ATOM      3  C   UNL     1       4.789   6.651  16.871  0.00  0.00    +0.000 A 
ATOM      4  C   UNL     1       4.357   5.784  17.877  0.00  0.00    +0.000 A 
ATOM      5  C   UNL     1       4.428   4.394  17.702  0.00  0.00    +0.000 A 
ATOM      6  C   UNL     1       4.948   3.889  16.498  0.00  0.00    +0.000 A 
ENDROOT
BRANCH   1   8
ATOM      7  N   UNL     1       6.353   3.799  13.279  0.00  0.00    +0.000 NA
ATOM      8  C   UNL     1       5.913   4.231  14.264  0.00  0.00    +0.000 C 
ENDBRANCH   1   8
BRANCH   5   9
ATOM      9  C   UNL     1       3.978   3.462  18.799  0.00  0.00    +0.000 C 
BRANCH   9  10
ATOM     10  N   UNL     1       5.109   2.890  19.519  0.00  0.00    +0.000 NA
ATOM     11  H   UNL     1       5.279   3.442  20.359  0.00  0.00    +0.000 HD
ATOM     12  H   UNL     1       5.946   2.981  18.946  0.00  0.00    +0.000 HD
ENDBRANCH   9  10
ENDBRANCH   5   9
TORSDOF 3
ENDMDL
MODEL 6
REMARK VINA RESULT:      -4.8      3.237      5.043
REMARK  Name = 
REMARK  3 active torsions:
REMARK  status: ('A' for Active; 'I' for Inactive)
REMARK    1  A    between atoms: C_2  and  C_3
REMARK    2  A    between atoms: C_7  and  C_8
REMARK    3  A    between atoms: C_8  and  N_9
REMARK                            x       y       z     vdW  Elec       q    Type
REMARK                         _______ _______ _______ _____ _____    ______ ____
ROOT
ATOM      1  C   UNL     1       4.196   4.264  18.951  0.00  0.00    +0.000 A 
ATOM      2  C   UNL     1       3.806   4.105  17.616  0.00  0.00    +0.000 A 
ATOM      3  C   UNL     1       2.549   3.581  17.312  0.00  0.00    +0.000 A 
ATOM      4  C   UNL     1       1.677   3.214  18.340  0.00  0.00    +0.000 A 
ATOM      5  C   UNL     1       2.051   3.364  19.683  0.00  0.00    +0.000 A 
ATOM      6  C   UNL     1       3.318   3.896  19.978  0.00  0.00    +0.000 A 
ENDROOT
BRANCH   1   8
ATOM      7  N   UNL     1       6.523   5.262  19.518  0.00  0.00    +0.000 NA
ATOM      8  C   UNL     1       5.484   4.810  19.260  0.00  0.00    +0.000 C 
ENDBRANCH   1   8
BRANCH   5   9
ATOM      9  C   UNL     1       1.098   2.984  20.789  0.00  0.00    +0.000 C 
BRANCH   9  10
ATOM     10  N   UNL     1       1.802   2.702  22.033  0.00  0.00    +0.000 NA
ATOM     11  H   UNL     1       2.772   2.469  21.819  0.00  0.00    +0.000 HD
ATOM     12  H   UNL     1       1.399   1.869  22.461  0.00  0.00    +0.000 HD
ENDBRANCH   9  10
ENDBRANCH   5   9
TORSDOF 3
ENDMDL
MODEL 7
REMARK VINA RESULT:      -4.8      2.862      3.896
REMARK  Name = 
REMARK  3 active torsions:
REMARK  status: ('A' for Active; 'I' for Inactive)
REMARK    1  A    between atoms: C_2  and  C_3
REMARK    2  A    between atoms: C_7  and  C_8
REMARK    3  A    between atoms: C_8  and  N_9
REMARK                            x       y       z     vdW  Elec       q    Type
REMARK                         _______ _______ _______ _____ _____    ______ ____
ROOT
ATOM      1  C   UNL     1       5.227   5.285  16.460  0.00  0.00    +0.000 A 
ATOM      2  C   UNL     1       4.770   6.473  17.040  0.00  0.00    +0.000 A 
ATOM      3  C   UNL     1       3.591   6.478  17.786  0.00  0.00    +0.000 A 
ATOM      4  C   UNL     1       2.864   5.298  17.956  0.00  0.00    +0.000 A 
ATOM      5  C   UNL     1       3.306   4.098  17.379  0.00  0.00    +0.000 A 
ATOM      6  C   UNL     1       4.497   4.103  16.633  0.00  0.00    +0.000 A 
ENDROOT
BRANCH   1   8
ATOM      7  N   UNL     1       7.429   5.264  15.086  0.00  0.00    +0.000 NA
ATOM      8  C   UNL     1       6.444   5.280  15.701  0.00  0.00    +0.000 C 
ENDBRANCH   1   8
BRANCH   5   9
ATOM      9  C   UNL     1       2.528   2.821  17.580  0.00  0.00    +0.000 C 
BRANCH   9  10
ATOM     10  N   UNL     1       1.191   3.081  18.100  0.00  0.00    +0.000 NA
ATOM     11  H   UNL     1       1.117   2.680  19.035  0.00  0.00    +0.000 HD
ATOM     12  H   UNL     1       0.510   2.588  17.525  0.00  0.00    +0.000 HD
ENDBRANCH   9  10
ENDBRANCH   5   9
TORSDOF 3
ENDMDL
MODEL 8
REMARK VINA RESULT:      -4.8      3.495      5.294
REMARK  Name = 
REMARK  3 active torsions:
REMARK  status: ('A' for Active; 'I' for Inactive)
REMARK    1  A    between atoms: C_2  and  C_3
REMARK    2  A    between atoms: C_7  and  C_8
REMARK    3  A    between atoms: C_8  and  N_9
REMARK                            x       y       z     vdW  Elec       q    Type
REMARK                         _______ _______ _______ _____ _____    ______ ____
ROOT
ATOM      1  C   UNL     1       2.172   3.354  19.914  0.00  0.00    +0.000 A 
ATOM      2  C   UNL     1       1.141   3.614  19.004  0.00  0.00    +0.000 A 
ATOM      3  C   UNL     1       1.439   4.095  17.729  0.00  0.00    +0.000 A 
ATOM      4  C   UNL     1       2.766   4.319  17.357  0.00  0.00    +0.000 A 
ATOM      5  C   UNL     1       3.813   4.066  18.256  0.00  0.00    +0.000 A 
ATOM      6  C   UNL     1       3.502   3.578  19.537  0.00  0.00    +0.000 A 
ENDROOT
BRANCH   1   8
ATOM      7  N   UNL     1       1.605   2.441  22.276  0.00  0.00    +0.000 NA
ATOM      8  C   UNL     1       1.865   2.851  21.220  0.00  0.00    +0.000 C 
ENDBRANCH   1   8
BRANCH   5   9
ATOM      9  C   UNL     1       5.246   4.291  17.844  0.00  0.00    +0.000 C 
BRANCH   9  10
ATOM     10  N   UNL     1       6.163   4.108  18.961  0.00  0.00    +0.000 NA
ATOM     11  H   UNL     1       5.725   3.500  19.653  0.00  0.00    +0.000 HD
ATOM     12  H   UNL     1       6.307   5.004  19.423  0.00  0.00    +0.000 HD
ENDBRANCH   9  10
ENDBRANCH   5   9
TORSDOF 3
ENDMDL
MODEL 9
REMARK VINA RESULT:      -4.7      2.169      3.011
REMARK  Name = 
REMARK  3 active torsions:
REMARK  status: ('A' for Active; 'I' for Inactive)
REMARK    1  A    between atoms: C_2  and  C_3
REMARK    2  A    between atoms: C_7  and  C_8
REMARK    3  A    between atoms: C_8  and  N_9
REMARK                            x       y       z     vdW  Elec       q    Type
REMARK                         _______ _______ _______ _____ _____    ______ ____
ROOT
ATOM      1  C   UNL     1       4.624   4.309  17.974  0.00  0.00    +0.000 A 
ATOM      2  C   UNL     1       4.915   3.893  16.670  0.00  0.00    +0.000 A 
ATOM      3  C   UNL     1       6.181   4.122  16.128  0.00  0.00    +0.000 A 
ATOM      4  C   UNL     1       7.160   4.767  16.887  0.00  0.00    +0.000 A 
ATOM      5  C   UNL     1       6.886   5.194  18.194  0.00  0.00    +0.000 A 
ATOM      6  C   UNL     1       5.609   4.955  18.731  0.00  0.00    +0.000 A 
ENDROOT
BRANCH   1   8
ATOM      7  N   UNL     1       2.279   3.871  18.993  0.00  0.00    +0.000 NA
ATOM      8  C   UNL     1       3.326   4.066  18.531  0.00  0.00    +0.000 C 
ENDBRANCH   1   8
BRANCH   5   9
ATOM      9  C   UNL     1       7.953   5.873  19.016  0.00  0.00    +0.000 C 
BRANCH   9  10
ATOM     10  N   UNL     1       7.939   5.418  20.400  0.00  0.00    +0.000 NA
ATOM     11  H   UNL     1       7.077   4.900  20.569  0.00  0.00    +0.000 HD
ATOM     12  H   UNL     1       7.908   6.229  21.016  0.00  0.00    +0.000 HD
ENDBRANCH   9  10
ENDBRANCH   5   9
TORSDOF 3
ENDMDL
