MODEL 1
REMARK VINA RESULT:      -8.5      0.000      0.000
REMARK  Name = 
REMARK  11 active torsions:
REMARK  status: ('A' for Active; 'I' for Inactive)
REMARK    1  A    between atoms: C_1  and  C_2
REMARK    2  A    between atoms: C_2  and  N_3
REMARK    3  A    between atoms: C_5  and  C_6
REMARK    4  A    between atoms: C_6  and  O_8
REMARK    5  A    between atoms: O_8  and  C_9
REMARK    6  A    between atoms: C_9  and  C_10
REMARK    7  A    between atoms: N_12  and  C_13
REMARK    8  A    between atoms: C_14  and  C_15
REMARK    9  A    between atoms: N_16  and  C_17
REMARK   10  A    between atoms: N_18  and  C_19
REMARK   11  A    between atoms: C_32  and  C_33
REMARK                            x       y       z     vdW  Elec       q    Type
REMARK                         _______ _______ _______ _____ _____    ______ ____
ROOT
ATOM      1  C   UNL     1       2.553   7.481  18.162  0.00  0.00    +0.000 C 
ENDROOT
BRANCH   1   2
ATOM      2  C   UNL     1       1.790   8.802  18.251  0.00  0.00    +0.000 C 
ATOM      3  O   UNL     1       2.010   9.733  17.479  0.00  0.00    +0.000 OA
ATOM      4  N   UNL     1       0.887   8.845  19.292  0.00  0.00    +0.000 N 
ATOM      5  H   UNL     1       1.102   8.234  20.085  0.00  0.00    +0.000 HD
BRANCH   4   6
ATOM      6  C   UNL     1       0.115   9.929  19.604  0.00  0.00    +0.000 A 
ATOM      7  C   UNL     1      -0.964  10.488  19.027  0.00  0.00    +0.000 A 
ATOM      8  C   UNL     1      -1.643  10.075  17.760  0.00  0.00    +0.000 C 
ATOM      9  N   UNL     1      -1.493  11.516  19.823  0.00  0.00    +0.000 N 
ATOM     10  C   UNL     1      -2.320  12.610  19.329  0.00  0.00    +0.000 C 
ATOM     11  N   UNL     1      -0.530  11.776  20.828  0.00  0.00    +0.000 N 
ATOM     12  C   UNL     1       0.440  10.777  20.794  0.00  0.00    +0.000 A 
ATOM     13  O   UNL     1       1.393  10.568  21.529  0.00  0.00    +0.000 OA
BRANCH  11  14
ATOM     14  C   UNL     1      -0.688  12.728  21.845  0.00  0.00    +0.000 A 
ATOM     15  C   UNL     1       0.043  13.921  21.805  0.00  0.00    +0.000 A 
ATOM     16  C   UNL     1      -0.177  14.914  22.763  0.00  0.00    +0.000 A 
ATOM     17  C   UNL     1      -1.094  14.699  23.791  0.00  0.00    +0.000 A 
ATOM     18  C   UNL     1      -1.788  13.492  23.865  0.00  0.00    +0.000 A 
ATOM     19  C   UNL     1      -1.589  12.514  22.892  0.00  0.00    +0.000 A 
ENDBRANCH  11  14
ENDBRANCH   4   6
ENDBRANCH   1   2
BRANCH   1  20
ATOM     20  O   UNL     1       2.762   6.863  19.430  0.00  0.00    +0.000 OA
BRANCH  20  21
ATOM     21  C   UNL     1       3.387   5.665  19.428  0.00  0.00    +0.000 C 
ATOM     22  O   UNL     1       3.211   4.797  20.274  0.00  0.00    +0.000 OA
BRANCH  21  25
ATOM     23  N   UNL     1       6.428   6.398  17.353  0.00  0.00    +0.000 N 
ATOM     24  C   UNL     1       5.440   6.362  18.325  0.00  0.00    +0.000 A 
ATOM     25  C   UNL     1       4.362   5.566  18.319  0.00  0.00    +0.000 A 
ATOM     26  C   UNL     1       4.230   4.635  17.174  0.00  0.00    +0.000 A 
ATOM     27  O   UNL     1       3.375   3.754  17.125  0.00  0.00    +0.000 OA
ATOM     28  C   UNL     1       5.201   4.752  16.066  0.00  0.00    +0.000 A 
ATOM     29  C   UNL     1       5.028   3.996  14.904  0.00  0.00    +0.000 A 
ATOM     30  C   UNL     1       5.961   4.102  13.883  0.00  0.00    +0.000 A 
ATOM     31  C   UNL     1       7.044   4.954  14.064  0.00  0.00    +0.000 A 
ATOM     32  C   UNL     1       8.110   5.062  13.014  0.00  0.00    +0.000 C 
ATOM     33  N   UNL     1       7.215   5.694  15.185  0.00  0.00    +0.000 NA
ATOM     34  C   UNL     1       6.297   5.610  16.181  0.00  0.00    +0.000 A 
BRANCH  23  36
ATOM     35  C   UNL     1       8.287   7.328  18.686  0.00  0.00    +0.000 C 
ATOM     36  C   UNL     1       7.540   7.357  17.358  0.00  0.00    +0.000 C 
ENDBRANCH  23  36
ENDBRANCH  21  25
ENDBRANCH  20  21
ENDBRANCH   1  20
TORSDOF 7
ENDMDL
MODEL 2
REMARK VINA RESULT:      -8.4      0.999      1.024
REMARK  Name = 
REMARK  11 active torsions:
REMARK  status: ('A' for Active; 'I' for Inactive)
REMARK    1  A    between atoms: C_1  and  C_2
REMARK    2  A    between atoms: C_2  and  N_3
REMARK    3  A    between atoms: C_5  and  C_6
REMARK    4  A    between atoms: C_6  and  O_8
REMARK    5  A    between atoms: O_8  and  C_9
REMARK    6  A    between atoms: C_9  and  C_10
REMARK    7  A    between atoms: N_12  and  C_13
REMARK    8  A    between atoms: C_14  and  C_15
REMARK    9  A    between atoms: N_16  and  C_17
REMARK   10  A    between atoms: N_18  and  C_19
REMARK   11  A    between atoms: C_32  and  C_33
REMARK                            x       y       z     vdW  Elec       q    Type
REMARK                         _______ _______ _______ _____ _____    ______ ____
ROOT
ATOM      1  C   UNL     1       2.726   6.945  19.307  0.00  0.00    +0.000 C 
ENDROOT
BRANCH   1   2
ATOM      2  C   UNL     1       1.637   7.831  19.912  0.00  0.00    +0.000 C 
ATOM      3  O   UNL     1       0.999   7.489  20.905  0.00  0.00    +0.000 OA
ATOM      4  N   UNL     1       1.429   9.000  19.211  0.00  0.00    +0.000 N 
ATOM      5  H   UNL     1       1.678   8.967  18.219  0.00  0.00    +0.000 HD
BRANCH   4   6
ATOM      6  C   UNL     1       0.483   9.935  19.528  0.00  0.00    +0.000 A 
ATOM      7  C   UNL     1      -0.642  10.350  18.918  0.00  0.00    +0.000 A 
ATOM      8  C   UNL     1      -1.188   9.905  17.599  0.00  0.00    +0.000 C 
ATOM      9  N   UNL     1      -1.362  11.241  19.729  0.00  0.00    +0.000 N 
ATOM     10  C   UNL     1      -2.326  12.219  19.240  0.00  0.00    +0.000 C 
ATOM     11  N   UNL     1      -0.500  11.593  20.796  0.00  0.00    +0.000 N 
ATOM     12  C   UNL     1       0.614  10.760  20.770  0.00  0.00    +0.000 A 
ATOM     13  O   UNL     1       1.553  10.661  21.547  0.00  0.00    +0.000 OA
BRANCH  11  14
ATOM     14  C   UNL     1      -0.853  12.456  21.844  0.00  0.00    +0.000 A 
ATOM     15  C   UNL     1      -0.221  13.699  21.969  0.00  0.00    +0.000 A 
ATOM     16  C   UNL     1      -0.631  14.601  22.954  0.00  0.00    +0.000 A 
ATOM     17  C   UNL     1      -1.642  14.245  23.846  0.00  0.00    +0.000 A 
ATOM     18  C   UNL     1      -2.241  12.989  23.758  0.00  0.00    +0.000 A 
ATOM     19  C   UNL     1      -1.851  12.101  22.757  0.00  0.00    +0.000 A 
ENDBRANCH  11  14
ENDBRANCH   4   6
ENDBRANCH   1   2
BRANCH   1  20
ATOM     20  O   UNL     1       3.236   5.975  20.220  0.00  0.00    +0.000 OA
BRANCH  20  21
ATOM     21  C   UNL     1       3.518   4.754  19.715  0.00  0.00    +0.000 C 
ATOM     22  O   UNL     1       3.075   3.704  20.166  0.00  0.00    +0.000 OA
BRANCH  21  25
ATOM     23  N   UNL     1       6.620   5.699  17.825  0.00  0.00    +0.000 N 
ATOM     24  C   UNL     1       5.629   5.515  18.777  0.00  0.00    +0.000 A 
ATOM     25  C   UNL     1       4.485   4.841  18.598  0.00  0.00    +0.000 A 
ATOM     26  C   UNL     1       4.277   4.228  17.265  0.00  0.00    +0.000 A 
ATOM     27  O   UNL     1       3.348   3.462  17.021  0.00  0.00    +0.000 OA
ATOM     28  C   UNL     1       5.258   4.524  16.200  0.00  0.00    +0.000 A 
ATOM     29  C   UNL     1       5.024   4.089  14.895  0.00  0.00    +0.000 A 
ATOM     30  C   UNL     1       5.968   4.356  13.913  0.00  0.00    +0.000 A 
ATOM     31  C   UNL     1       7.120   5.043  14.275  0.00  0.00    +0.000 A 
ATOM     32  C   UNL     1       8.197   5.309  13.264  0.00  0.00    +0.000 C 
ATOM     33  N   UNL     1       7.351   5.474  15.538  0.00  0.00    +0.000 NA
ATOM     34  C   UNL     1       6.425   5.232  16.500  0.00  0.00    +0.000 A 
BRANCH  23  36
ATOM     35  C   UNL     1       7.571   7.967  17.599  0.00  0.00    +0.000 C 
ATOM     36  C   UNL     1       7.813   6.530  18.041  0.00  0.00    +0.000 C 
ENDBRANCH  23  36
ENDBRANCH  21  25
ENDBRANCH  20  21
ENDBRANCH   1  20
TORSDOF 7
ENDMDL
MODEL 3
REMARK VINA RESULT:      -8.4      5.689      8.314
REMARK  Name = 
REMARK  11 active torsions:
REMARK  status: ('A' for Active; 'I' for Inactive)
REMARK    1  A    between atoms: C_1  and  C_2
REMARK    2  A    between atoms: C_2  and  N_3
REMARK    3  A    between atoms: C_5  and  C_6
REMARK    4  A    between atoms: C_6  and  O_8
REMARK    5  A    between atoms: O_8  and  C_9
REMARK    6  A    between atoms: C_9  and  C_10
REMARK    7  A    between atoms: N_12  and  C_13
REMARK    8  A    between atoms: C_14  and  C_15
REMARK    9  A    between atoms: N_16  and  C_17
REMARK   10  A    between atoms: N_18  and  C_19
REMARK   11  A    between atoms: C_32  and  C_33
REMARK                            x       y       z     vdW  Elec       q    Type
REMARK                         _______ _______ _______ _____ _____    ______ ____
ROOT
ATOM      1  C   UNL     1       8.412   8.618  18.278  0.00  0.00    +0.000 C 
ENDROOT
BRANCH   1   2
ATOM      2  C   UNL     1       8.663  10.125  18.315  0.00  0.00    +0.000 C 
ATOM      3  O   UNL     1       8.145  10.891  17.505  0.00  0.00    +0.000 OA
ATOM      4  N   UNL     1       9.546  10.510  19.303  0.00  0.00    +0.000 N 
ATOM      5  H   UNL     1      10.215   9.793  19.597  0.00  0.00    +0.000 HD
BRANCH   4   6
ATOM      6  C   UNL     1       9.961  11.795  19.512  0.00  0.00    +0.000 A 
ATOM      7  C   UNL     1      10.905  12.563  18.937  0.00  0.00    +0.000 A 
ATOM      8  C   UNL     1      11.866  12.179  17.858  0.00  0.00    +0.000 C 
ATOM      9  N   UNL     1      10.845  13.883  19.409  0.00  0.00    +0.000 N 
ATOM     10  C   UNL     1      11.954  14.829  19.379  0.00  0.00    +0.000 C 
ATOM     11  N   UNL     1       9.981  13.866  20.530  0.00  0.00    +0.000 N 
ATOM     12  C   UNL     1       9.344  12.629  20.591  0.00  0.00    +0.000 A 
ATOM     13  O   UNL     1       8.467  12.220  21.338  0.00  0.00    +0.000 OA
BRANCH  11  14
ATOM     14  C   UNL     1       9.638  15.000  21.281  0.00  0.00    +0.000 A 
ATOM     15  C   UNL     1      10.183  15.184  22.557  0.00  0.00    +0.000 A 
ATOM     16  C   UNL     1       9.919  16.355  23.272  0.00  0.00    +0.000 A 
ATOM     17  C   UNL     1       9.074  17.324  22.734  0.00  0.00    +0.000 A 
ATOM     18  C   UNL     1       8.489  17.124  21.485  0.00  0.00    +0.000 A 
ATOM     19  C   UNL     1       8.774  15.968  20.759  0.00  0.00    +0.000 A 
ENDBRANCH  11  14
ENDBRANCH   4   6
ENDBRANCH   1   2
BRANCH   1  20
ATOM     20  O   UNL     1       7.164   8.268  17.683  0.00  0.00    +0.000 OA
BRANCH  20  21
ATOM     21  C   UNL     1       7.067   7.028  17.155  0.00  0.00    +0.000 C 
ATOM     22  O   UNL     1       7.832   6.579  16.311  0.00  0.00    +0.000 OA
BRANCH  21  25
ATOM     23  N   UNL     1       3.479   6.363  18.035  0.00  0.00    +0.000 N 
ATOM     24  C   UNL     1       4.676   6.897  17.582  0.00  0.00    +0.000 A 
ATOM     25  C   UNL     1       5.878   6.313  17.671  0.00  0.00    +0.000 A 
ATOM     26  C   UNL     1       5.920   4.970  18.296  0.00  0.00    +0.000 A 
ATOM     27  O   UNL     1       6.928   4.267  18.301  0.00  0.00    +0.000 OA
ATOM     28  C   UNL     1       4.679   4.444  18.901  0.00  0.00    +0.000 A 
ATOM     29  C   UNL     1       4.707   3.252  19.627  0.00  0.00    +0.000 A 
ATOM     30  C   UNL     1       3.527   2.761  20.168  0.00  0.00    +0.000 A 
ATOM     31  C   UNL     1       2.356   3.477  19.956  0.00  0.00    +0.000 A 
ATOM     32  C   UNL     1       1.045   2.961  20.472  0.00  0.00    +0.000 C 
ATOM     33  N   UNL     1       2.322   4.637  19.258  0.00  0.00    +0.000 NA
ATOM     34  C   UNL     1       3.474   5.133  18.741  0.00  0.00    +0.000 A 
BRANCH  23  36
ATOM     35  C   UNL     1       2.422   8.590  17.896  0.00  0.00    +0.000 C 
ATOM     36  C   UNL     1       2.201   7.086  18.001  0.00  0.00    +0.000 C 
ENDBRANCH  23  36
ENDBRANCH  21  25
ENDBRANCH  20  21
ENDBRANCH   1  20
TORSDOF 7
ENDMDL
MODEL 4
REMARK VINA RESULT:      -8.4      2.676     10.769
REMARK  Name = 
REMARK  11 active torsions:
REMARK  status: ('A' for Active; 'I' for Inactive)
REMARK    1  A    between atoms: C_1  and  C_2
REMARK    2  A    between atoms: C_2  and  N_3
REMARK    3  A    between atoms: C_5  and  C_6
REMARK    4  A    between atoms: C_6  and  O_8
REMARK    5  A    between atoms: O_8  and  C_9
REMARK    6  A    between atoms: C_9  and  C_10
REMARK    7  A    between atoms: N_12  and  C_13
REMARK    8  A    between atoms: C_14  and  C_15
REMARK    9  A    between atoms: N_16  and  C_17
REMARK   10  A    between atoms: N_18  and  C_19
REMARK   11  A    between atoms: C_32  and  C_33
REMARK                            x       y       z     vdW  Elec       q    Type
REMARK                         _______ _______ _______ _____ _____    ______ ____
ROOT
ATOM      1  C   UNL     1       0.491   9.533  20.477  0.00  0.00    +0.000 C 
ENDROOT
BRANCH   1   2
ATOM      2  C   UNL     1       1.397   8.304  20.556  0.00  0.00    +0.000 C 
ATOM      3  O   UNL     1       1.974   7.989  21.594  0.00  0.00    +0.000 OA
ATOM      4  N   UNL     1       1.524   7.638  19.355  0.00  0.00    +0.000 N 
ATOM      5  H   UNL     1       1.377   8.210  18.518  0.00  0.00    +0.000 HD
BRANCH   4   6
ATOM      6  C   UNL     1       2.309   6.537  19.160  0.00  0.00    +0.000 A 
ATOM      7  C   UNL     1       2.285   5.288  19.661  0.00  0.00    +0.000 A 
ATOM      8  C   UNL     1       1.350   4.729  20.686  0.00  0.00    +0.000 C 
ATOM      9  N   UNL     1       3.229   4.466  19.027  0.00  0.00    +0.000 N 
ATOM     10  C   UNL     1       3.797   3.252  19.601  0.00  0.00    +0.000 C 
ATOM     11  N   UNL     1       4.059   5.326  18.268  0.00  0.00    +0.000 N 
ATOM     12  C   UNL     1       3.492   6.597  18.245  0.00  0.00    +0.000 A 
ATOM     13  O   UNL     1       3.827   7.608  17.645  0.00  0.00    +0.000 OA
BRANCH  11  14
ATOM     14  C   UNL     1       5.122   4.890  17.464  0.00  0.00    +0.000 A 
ATOM     15  C   UNL     1       4.868   4.377  16.186  0.00  0.00    +0.000 A 
ATOM     16  C   UNL     1       5.928   4.028  15.345  0.00  0.00    +0.000 A 
ATOM     17  C   UNL     1       7.242   4.146  15.795  0.00  0.00    +0.000 A 
ATOM     18  C   UNL     1       7.499   4.609  17.084  0.00  0.00    +0.000 A 
ATOM     19  C   UNL     1       6.443   4.984  17.913  0.00  0.00    +0.000 A 
ENDBRANCH  11  14
ENDBRANCH   4   6
ENDBRANCH   1   2
BRANCH   1  20
ATOM     20  O   UNL     1       0.326  10.028  19.149  0.00  0.00    +0.000 OA
BRANCH  20  21
ATOM     21  C   UNL     1       0.025  11.339  19.022  0.00  0.00    +0.000 C 
ATOM     22  O   UNL     1       0.851  12.243  19.079  0.00  0.00    +0.000 OA
BRANCH  21  25
ATOM     23  N   UNL     1      -3.378  11.367  17.437  0.00  0.00    +0.000 N 
ATOM     24  C   UNL     1      -2.030  11.215  17.727  0.00  0.00    +0.000 A 
ATOM     25  C   UNL     1      -1.433  11.548  18.879  0.00  0.00    +0.000 A 
ATOM     26  C   UNL     1      -2.302  12.113  19.938  0.00  0.00    +0.000 A 
ATOM     27  O   UNL     1      -1.910  12.315  21.085  0.00  0.00    +0.000 OA
ATOM     28  C   UNL     1      -3.711  12.403  19.602  0.00  0.00    +0.000 A 
ATOM     29  C   UNL     1      -4.525  13.070  20.521  0.00  0.00    +0.000 A 
ATOM     30  C   UNL     1      -5.852  13.313  20.198  0.00  0.00    +0.000 A 
ATOM     31  C   UNL     1      -6.323  12.873  18.967  0.00  0.00    +0.000 A 
ATOM     32  C   UNL     1      -7.763  13.061  18.592  0.00  0.00    +0.000 C 
ATOM     33  N   UNL     1      -5.538  12.231  18.068  0.00  0.00    +0.000 NA
ATOM     34  C   UNL     1      -4.235  12.005  18.370  0.00  0.00    +0.000 A 
BRANCH  23  36
ATOM     35  C   UNL     1      -2.927  10.494  15.172  0.00  0.00    +0.000 C 
ATOM     36  C   UNL     1      -3.965  11.076  16.123  0.00  0.00    +0.000 C 
ENDBRANCH  23  36
ENDBRANCH  21  25
ENDBRANCH  20  21
ENDBRANCH   1  20
TORSDOF 7
ENDMDL
MODEL 5
REMARK VINA RESULT:      -8.4      5.521      8.062
REMARK  Name = 
REMARK  11 active torsions:
REMARK  status: ('A' for Active; 'I' for Inactive)
REMARK    1  A    between atoms: C_1  and  C_2
REMARK    2  A    between atoms: C_2  and  N_3
REMARK    3  A    between atoms: C_5  and  C_6
REMARK    4  A    between atoms: C_6  and  O_8
REMARK    5  A    between atoms: O_8  and  C_9
REMARK    6  A    between atoms: C_9  and  C_10
REMARK    7  A    between atoms: N_12  and  C_13
REMARK    8  A    between atoms: C_14  and  C_15
REMARK    9  A    between atoms: N_16  and  C_17
REMARK   10  A    between atoms: N_18  and  C_19
REMARK   11  A    between atoms: C_32  and  C_33
REMARK                            x       y       z     vdW  Elec       q    Type
REMARK                         _______ _______ _______ _____ _____    ______ ____
ROOT
ATOM      1  C   UNL     1       8.357   8.426  18.243  0.00  0.00    +0.000 C 
ENDROOT
BRANCH   1   2
ATOM      2  C   UNL     1       8.603   9.932  18.330  0.00  0.00    +0.000 C 
ATOM      3  O   UNL     1       8.105  10.719  17.527  0.00  0.00    +0.000 OA
ATOM      4  N   UNL     1       9.456  10.291  19.352  0.00  0.00    +0.000 N 
ATOM      5  H   UNL     1      10.119   9.568  19.644  0.00  0.00    +0.000 HD
BRANCH   4   6
ATOM      6  C   UNL     1       9.862  11.571  19.608  0.00  0.00    +0.000 A 
ATOM      7  C   UNL     1      10.809  12.362  19.070  0.00  0.00    +0.000 A 
ATOM      8  C   UNL     1      11.787  12.018  17.993  0.00  0.00    +0.000 C 
ATOM      9  N   UNL     1      10.735  13.666  19.584  0.00  0.00    +0.000 N 
ATOM     10  C   UNL     1      11.839  14.618  19.600  0.00  0.00    +0.000 C 
ATOM     11  N   UNL     1       9.856  13.608  20.692  0.00  0.00    +0.000 N 
ATOM     12  C   UNL     1       9.225  12.367  20.704  0.00  0.00    +0.000 A 
ATOM     13  O   UNL     1       8.340  11.930  21.425  0.00  0.00    +0.000 OA
BRANCH  11  14
ATOM     14  C   UNL     1       9.497  14.716  21.474  0.00  0.00    +0.000 A 
ATOM     15  C   UNL     1       8.577  15.649  20.982  0.00  0.00    +0.000 A 
ATOM     16  C   UNL     1       8.145  16.704  21.791  0.00  0.00    +0.000 A 
ATOM     17  C   UNL     1       8.665  16.855  23.075  0.00  0.00    +0.000 A 
ATOM     18  C   UNL     1       9.619  15.957  23.552  0.00  0.00    +0.000 A 
ATOM     19  C   UNL     1      10.028  14.889  22.755  0.00  0.00    +0.000 A 
ENDBRANCH  11  14
ENDBRANCH   4   6
ENDBRANCH   1   2
BRANCH   1  20
ATOM     20  O   UNL     1       7.073   8.092  17.721  0.00  0.00    +0.000 OA
BRANCH  20  21
ATOM     21  C   UNL     1       6.982   6.943  17.017  0.00  0.00    +0.000 C 
ATOM     22  O   UNL     1       7.819   6.565  16.206  0.00  0.00    +0.000 OA
BRANCH  21  25
ATOM     23  N   UNL     1       3.411   6.422  18.050  0.00  0.00    +0.000 N 
ATOM     24  C   UNL     1       4.657   6.941  17.731  0.00  0.00    +0.000 A 
ATOM     25  C   UNL     1       5.711   6.237  17.295  0.00  0.00    +0.000 A 
ATOM     26  C   UNL     1       5.513   4.779  17.128  0.00  0.00    +0.000 A 
ATOM     27  O   UNL     1       6.346   4.049  16.595  0.00  0.00    +0.000 OA
ATOM     28  C   UNL     1       4.237   4.191  17.586  0.00  0.00    +0.000 A 
ATOM     29  C   UNL     1       4.065   2.806  17.583  0.00  0.00    +0.000 A 
ATOM     30  C   UNL     1       2.852   2.273  17.995  0.00  0.00    +0.000 A 
ATOM     31  C   UNL     1       1.847   3.148  18.390  0.00  0.00    +0.000 A 
ATOM     32  C   UNL     1       0.498   2.626  18.791  0.00  0.00    +0.000 C 
ATOM     33  N   UNL     1       2.008   4.493  18.401  0.00  0.00    +0.000 NA
ATOM     34  C   UNL     1       3.198   5.020  18.016  0.00  0.00    +0.000 A 
BRANCH  23  36
ATOM     35  C   UNL     1       2.096   8.499  17.814  0.00  0.00    +0.000 C 
ATOM     36  C   UNL     1       2.317   7.223  18.616  0.00  0.00    +0.000 C 
ENDBRANCH  23  36
ENDBRANCH  21  25
ENDBRANCH  20  21
ENDBRANCH   1  20
TORSDOF 7
ENDMDL
MODEL 6
REMARK VINA RESULT:      -8.3      1.138      1.479
REMARK  Name = 
REMARK  11 active torsions:
REMARK  status: ('A' for Active; 'I' for Inactive)
REMARK    1  A    between atoms: C_1  and  C_2
REMARK    2  A    between atoms: C_2  and  N_3
REMARK    3  A    between atoms: C_5  and  C_6
REMARK    4  A    between atoms: C_6  and  O_8
REMARK    5  A    between atoms: O_8  and  C_9
REMARK    6  A    between atoms: C_9  and  C_10
REMARK    7  A    between atoms: N_12  and  C_13
REMARK    8  A    between atoms: C_14  and  C_15
REMARK    9  A    between atoms: N_16  and  C_17
REMARK   10  A    between atoms: N_18  and  C_19
REMARK   11  A    between atoms: C_32  and  C_33
REMARK                            x       y       z     vdW  Elec       q    Type
REMARK                         _______ _______ _______ _____ _____    ______ ____
ROOT
ATOM      1  C   UNL     1       1.888   6.571  20.660  0.00  0.00    +0.000 C 
ENDROOT
BRANCH   1   2
ATOM      2  C   UNL     1       1.415   7.986  20.326  0.00  0.00    +0.000 C 
ATOM      3  O   UNL     1       1.981   8.677  19.482  0.00  0.00    +0.000 OA
ATOM      4  N   UNL     1       0.343   8.400  21.088  0.00  0.00    +0.000 N 
ATOM      5  H   UNL     1       0.256   7.950  22.004  0.00  0.00    +0.000 HD
BRANCH   4   6
ATOM      6  C   UNL     1      -0.233   9.637  21.006  0.00  0.00    +0.000 A 
ATOM      7  C   UNL     1      -0.714  10.362  19.980  0.00  0.00    +0.000 A 
ATOM      8  C   UNL     1      -0.708  10.010  18.527  0.00  0.00    +0.000 C 
ATOM      9  N   UNL     1      -1.351  11.527  20.434  0.00  0.00    +0.000 N 
ATOM     10  C   UNL     1      -1.555  12.730  19.636  0.00  0.00    +0.000 C 
ATOM     11  N   UNL     1      -1.018  11.654  21.804  0.00  0.00    +0.000 N 
ATOM     12  C   UNL     1      -0.403  10.480  22.230  0.00  0.00    +0.000 A 
ATOM     13  O   UNL     1      -0.035  10.133  23.343  0.00  0.00    +0.000 OA
BRANCH  11  14
ATOM     14  C   UNL     1      -1.477  12.686  22.636  0.00  0.00    +0.000 A 
ATOM     15  C   UNL     1      -2.741  12.594  23.230  0.00  0.00    +0.000 A 
ATOM     16  C   UNL     1      -3.167  13.573  24.133  0.00  0.00    +0.000 A 
ATOM     17  C   UNL     1      -2.350  14.669  24.407  0.00  0.00    +0.000 A 
ATOM     18  C   UNL     1      -1.112  14.791  23.780  0.00  0.00    +0.000 A 
ATOM     19  C   UNL     1      -0.675  13.800  22.902  0.00  0.00    +0.000 A 
ENDBRANCH  11  14
ENDBRANCH   4   6
ENDBRANCH   1   2
BRANCH   1  20
ATOM     20  O   UNL     1       3.188   6.275  20.154  0.00  0.00    +0.000 OA
BRANCH  20  21
ATOM     21  C   UNL     1       3.377   5.038  19.646  0.00  0.00    +0.000 C 
ATOM     22  O   UNL     1       2.846   4.026  20.086  0.00  0.00    +0.000 OA
BRANCH  21  25
ATOM     23  N   UNL     1       6.531   5.815  17.764  0.00  0.00    +0.000 N 
ATOM     24  C   UNL     1       5.523   5.699  18.709  0.00  0.00    +0.000 A 
ATOM     25  C   UNL     1       4.361   5.052  18.540  0.00  0.00    +0.000 A 
ATOM     26  C   UNL     1       4.152   4.393  17.229  0.00  0.00    +0.000 A 
ATOM     27  O   UNL     1       3.203   3.646  17.002  0.00  0.00    +0.000 OA
ATOM     28  C   UNL     1       5.156   4.618  16.168  0.00  0.00    +0.000 A 
ATOM     29  C   UNL     1       4.925   4.139  14.877  0.00  0.00    +0.000 A 
ATOM     30  C   UNL     1       5.890   4.338  13.899  0.00  0.00    +0.000 A 
ATOM     31  C   UNL     1       7.057   5.004  14.250  0.00  0.00    +0.000 A 
ATOM     32  C   UNL     1       8.155   5.197  13.245  0.00  0.00    +0.000 C 
ATOM     33  N   UNL     1       7.285   5.477  15.499  0.00  0.00    +0.000 NA
ATOM     34  C   UNL     1       6.339   5.301  16.456  0.00  0.00    +0.000 A 
BRANCH  23  36
ATOM     35  C   UNL     1       7.529   8.061  17.530  0.00  0.00    +0.000 C 
ATOM     36  C   UNL     1       7.745   6.617  17.965  0.00  0.00    +0.000 C 
ENDBRANCH  23  36
ENDBRANCH  21  25
ENDBRANCH  20  21
ENDBRANCH   1  20
TORSDOF 7
ENDMDL
MODEL 7
REMARK VINA RESULT:      -8.2      1.524      1.920
REMARK  Name = 
REMARK  11 active torsions:
REMARK  status: ('A' for Active; 'I' for Inactive)
REMARK    1  A    between atoms: C_1  and  C_2
REMARK    2  A    between atoms: C_2  and  N_3
REMARK    3  A    between atoms: C_5  and  C_6
REMARK    4  A    between atoms: C_6  and  O_8
REMARK    5  A    between atoms: O_8  and  C_9
REMARK    6  A    between atoms: C_9  and  C_10
REMARK    7  A    between atoms: N_12  and  C_13
REMARK    8  A    between atoms: C_14  and  C_15
REMARK    9  A    between atoms: N_16  and  C_17
REMARK   10  A    between atoms: N_18  and  C_19
REMARK   11  A    between atoms: C_32  and  C_33
REMARK                            x       y       z     vdW  Elec       q    Type
REMARK                         _______ _______ _______ _____ _____    ______ ____
ROOT
ATOM      1  C   UNL     1       2.373   6.591  19.264  0.00  0.00    +0.000 C 
ENDROOT
BRANCH   1   2
ATOM      2  C   UNL     1       1.915   7.894  19.921  0.00  0.00    +0.000 C 
ATOM      3  O   UNL     1       1.997   8.074  21.133  0.00  0.00    +0.000 OA
ATOM      4  N   UNL     1       1.376   8.798  19.029  0.00  0.00    +0.000 N 
ATOM      5  H   UNL     1       0.970   8.390  18.182  0.00  0.00    +0.000 HD
BRANCH   4   6
ATOM      6  C   UNL     1       0.860  10.014  19.377  0.00  0.00    +0.000 A 
ATOM      7  C   UNL     1       1.193  11.280  19.062  0.00  0.00    +0.000 A 
ATOM      8  C   UNL     1       2.337  11.744  18.219  0.00  0.00    +0.000 C 
ATOM      9  N   UNL     1       0.250  12.193  19.559  0.00  0.00    +0.000 N 
ATOM     10  C   UNL     1       0.514  13.603  19.820  0.00  0.00    +0.000 C 
ATOM     11  N   UNL     1      -0.575  11.467  20.451  0.00  0.00    +0.000 N 
ATOM     12  C   UNL     1      -0.301  10.109  20.317  0.00  0.00    +0.000 A 
ATOM     13  O   UNL     1      -0.834   9.134  20.827  0.00  0.00    +0.000 OA
BRANCH  11  14
ATOM     14  C   UNL     1      -1.662  12.017  21.146  0.00  0.00    +0.000 A 
ATOM     15  C   UNL     1      -2.750  12.543  20.440  0.00  0.00    +0.000 A 
ATOM     16  C   UNL     1      -3.876  13.008  21.125  0.00  0.00    +0.000 A 
ATOM     17  C   UNL     1      -3.898  12.992  22.519  0.00  0.00    +0.000 A 
ATOM     18  C   UNL     1      -2.797  12.515  23.229  0.00  0.00    +0.000 A 
ATOM     19  C   UNL     1      -1.686  12.025  22.544  0.00  0.00    +0.000 A 
ENDBRANCH  11  14
ENDBRANCH   4   6
ENDBRANCH   1   2
BRANCH   1  20
ATOM     20  O   UNL     1       3.231   5.812  20.094  0.00  0.00    +0.000 OA
BRANCH  20  21
ATOM     21  C   UNL     1       3.604   4.603  19.619  0.00  0.00    +0.000 C 
ATOM     22  O   UNL     1       3.240   3.535  20.096  0.00  0.00    +0.000 OA
BRANCH  21  25
ATOM     23  N   UNL     1       6.653   5.695  17.721  0.00  0.00    +0.000 N 
ATOM     24  C   UNL     1       5.674   5.465  18.675  0.00  0.00    +0.000 A 
ATOM     25  C   UNL     1       4.564   4.735  18.500  0.00  0.00    +0.000 A 
ATOM     26  C   UNL     1       4.383   4.109  17.169  0.00  0.00    +0.000 A 
ATOM     27  O   UNL     1       3.492   3.298  16.928  0.00  0.00    +0.000 OA
ATOM     28  C   UNL     1       5.347   4.451  16.102  0.00  0.00    +0.000 A 
ATOM     29  C   UNL     1       5.132   4.001  14.798  0.00  0.00    +0.000 A 
ATOM     30  C   UNL     1       6.059   4.312  13.813  0.00  0.00    +0.000 A 
ATOM     31  C   UNL     1       7.177   5.056  14.171  0.00  0.00    +0.000 A 
ATOM     32  C   UNL     1       8.237   5.371  13.157  0.00  0.00    +0.000 C 
ATOM     33  N   UNL     1       7.389   5.500  15.433  0.00  0.00    +0.000 NA
ATOM     34  C   UNL     1       6.478   5.215  16.397  0.00  0.00    +0.000 A 
BRANCH  23  36
ATOM     35  C   UNL     1       7.480   8.012  17.513  0.00  0.00    +0.000 C 
ATOM     36  C   UNL     1       7.803   6.583  17.933  0.00  0.00    +0.000 C 
ENDBRANCH  23  36
ENDBRANCH  21  25
ENDBRANCH  20  21
ENDBRANCH   1  20
TORSDOF 7
ENDMDL
MODEL 8
REMARK VINA RESULT:      -8.1      0.972      1.363
REMARK  Name = 
REMARK  11 active torsions:
REMARK  status: ('A' for Active; 'I' for Inactive)
REMARK    1  A    between atoms: C_1  and  C_2
REMARK    2  A    between atoms: C_2  and  N_3
REMARK    3  A    between atoms: C_5  and  C_6
REMARK    4  A    between atoms: C_6  and  O_8
REMARK    5  A    between atoms: O_8  and  C_9
REMARK    6  A    between atoms: C_9  and  C_10
REMARK    7  A    between atoms: N_12  and  C_13
REMARK    8  A    between atoms: C_14  and  C_15
REMARK    9  A    between atoms: N_16  and  C_17
REMARK   10  A    between atoms: N_18  and  C_19
REMARK   11  A    between atoms: C_32  and  C_33
REMARK                            x       y       z     vdW  Elec       q    Type
REMARK                         _______ _______ _______ _____ _____    ______ ____
ROOT
ATOM      1  C   UNL     1       1.962   6.342  19.887  0.00  0.00    +0.000 C 
ENDROOT
BRANCH   1   2
ATOM      2  C   UNL     1       1.752   7.801  19.481  0.00  0.00    +0.000 C 
ATOM      3  O   UNL     1       2.468   8.353  18.650  0.00  0.00    +0.000 OA
ATOM      4  N   UNL     1       0.727   8.418  20.167  0.00  0.00    +0.000 N 
ATOM      5  H   UNL     1       0.518   8.027  21.090  0.00  0.00    +0.000 HD
BRANCH   4   6
ATOM      6  C   UNL     1       0.372   9.729  20.013  0.00  0.00    +0.000 A 
ATOM      7  C   UNL     1      -0.282  10.398  19.045  0.00  0.00    +0.000 A 
ATOM      8  C   UNL     1      -0.799   9.862  17.749  0.00  0.00    +0.000 C 
ATOM      9  N   UNL     1      -0.534  11.725  19.426  0.00  0.00    +0.000 N 
ATOM     10  C   UNL     1      -0.776  12.826  18.500  0.00  0.00    +0.000 C 
ATOM     11  N   UNL     1       0.235  11.959  20.591  0.00  0.00    +0.000 N 
ATOM     12  C   UNL     1       0.746  10.746  21.045  0.00  0.00    +0.000 A 
ATOM     13  O   UNL     1       1.385  10.478  22.052  0.00  0.00    +0.000 OA
BRANCH  11  14
ATOM     14  C   UNL     1       0.246  13.168  21.301  0.00  0.00    +0.000 A 
ATOM     15  C   UNL     1      -0.818  13.489  22.153  0.00  0.00    +0.000 A 
ATOM     16  C   UNL     1      -0.770  14.647  22.933  0.00  0.00    +0.000 A 
ATOM     17  C   UNL     1       0.319  15.512  22.829  0.00  0.00    +0.000 A 
ATOM     18  C   UNL     1       1.358  15.223  21.946  0.00  0.00    +0.000 A 
ATOM     19  C   UNL     1       1.323  14.053  21.189  0.00  0.00    +0.000 A 
ENDBRANCH  11  14
ENDBRANCH   4   6
ENDBRANCH   1   2
BRANCH   1  20
ATOM     20  O   UNL     1       3.335   5.993  20.048  0.00  0.00    +0.000 OA
BRANCH  20  21
ATOM     21  C   UNL     1       3.707   4.769  19.614  0.00  0.00    +0.000 C 
ATOM     22  O   UNL     1       3.359   3.718  20.138  0.00  0.00    +0.000 OA
BRANCH  21  25
ATOM     23  N   UNL     1       6.710   5.812  17.616  0.00  0.00    +0.000 N 
ATOM     24  C   UNL     1       5.750   5.612  18.597  0.00  0.00    +0.000 A 
ATOM     25  C   UNL     1       4.646   4.863  18.473  0.00  0.00    +0.000 A 
ATOM     26  C   UNL     1       4.451   4.177  17.174  0.00  0.00    +0.000 A 
ATOM     27  O   UNL     1       3.567   3.345  16.985  0.00  0.00    +0.000 OA
ATOM     28  C   UNL     1       5.392   4.482  16.077  0.00  0.00    +0.000 A 
ATOM     29  C   UNL     1       5.161   3.974  14.797  0.00  0.00    +0.000 A 
ATOM     30  C   UNL     1       6.068   4.251  13.784  0.00  0.00    +0.000 A 
ATOM     31  C   UNL     1       7.182   5.023  14.090  0.00  0.00    +0.000 A 
ATOM     32  C   UNL     1       8.221   5.306  13.045  0.00  0.00    +0.000 C 
ATOM     33  N   UNL     1       7.410   5.525  15.327  0.00  0.00    +0.000 NA
ATOM     34  C   UNL     1       6.519   5.272  16.319  0.00  0.00    +0.000 A 
BRANCH  23  36
ATOM     35  C   UNL     1       7.430   8.173  17.579  0.00  0.00    +0.000 C 
ATOM     36  C   UNL     1       7.853   6.722  17.769  0.00  0.00    +0.000 C 
ENDBRANCH  23  36
ENDBRANCH  21  25
ENDBRANCH  20  21
ENDBRANCH   1  20
TORSDOF 7
ENDMDL
MODEL 9
REMARK VINA RESULT:      -8.1      2.322     11.248
REMARK  Name = 
REMARK  11 active torsions:
REMARK  status: ('A' for Active; 'I' for Inactive)
REMARK    1  A    between atoms: C_1  and  C_2
REMARK    2  A    between atoms: C_2  and  N_3
REMARK    3  A    between atoms: C_5  and  C_6
REMARK    4  A    between atoms: C_6  and  O_8
REMARK    5  A    between atoms: O_8  and  C_9
REMARK    6  A    between atoms: C_9  and  C_10
REMARK    7  A    between atoms: N_12  and  C_13
REMARK    8  A    between atoms: C_14  and  C_15
REMARK    9  A    between atoms: N_16  and  C_17
REMARK   10  A    between atoms: N_18  and  C_19
REMARK   11  A    between atoms: C_32  and  C_33
REMARK                            x       y       z     vdW  Elec       q    Type
REMARK                         _______ _______ _______ _____ _____    ______ ____
ROOT
ATOM      1  C   UNL     1       0.853   9.876  19.827  0.00  0.00    +0.000 C 
ENDROOT
BRANCH   1   2
ATOM      2  C   UNL     1       1.439   8.713  19.025  0.00  0.00    +0.000 C 
ATOM      3  O   UNL     1       1.315   8.639  17.805  0.00  0.00    +0.000 OA
ATOM      4  N   UNL     1       2.064   7.766  19.809  0.00  0.00    +0.000 N 
ATOM      5  H   UNL     1       1.731   7.707  20.775  0.00  0.00    +0.000 HD
BRANCH   4   6
ATOM      6  C   UNL     1       2.629   6.617  19.331  0.00  0.00    +0.000 A 
ATOM      7  C   UNL     1       2.395   5.311  19.560  0.00  0.00    +0.000 A 
ATOM      8  C   UNL     1       1.408   4.710  20.510  0.00  0.00    +0.000 C 
ATOM      9  N   UNL     1       3.151   4.500  18.701  0.00  0.00    +0.000 N 
ATOM     10  C   UNL     1       3.508   3.111  18.967  0.00  0.00    +0.000 C 
ATOM     11  N   UNL     1       4.098   5.350  18.082  0.00  0.00    +0.000 N 
ATOM     12  C   UNL     1       3.772   6.674  18.367  0.00  0.00    +0.000 A 
ATOM     13  O   UNL     1       4.265   7.719  17.969  0.00  0.00    +0.000 OA
BRANCH  11  14
ATOM     14  C   UNL     1       5.037   4.927  17.130  0.00  0.00    +0.000 A 
ATOM     15  C   UNL     1       4.629   4.657  15.818  0.00  0.00    +0.000 A 
ATOM     16  C   UNL     1       5.573   4.324  14.842  0.00  0.00    +0.000 A 
ATOM     17  C   UNL     1       6.920   4.214  15.185  0.00  0.00    +0.000 A 
ATOM     18  C   UNL     1       7.325   4.432  16.501  0.00  0.00    +0.000 A 
ATOM     19  C   UNL     1       6.387   4.792  17.468  0.00  0.00    +0.000 A 
ENDBRANCH  11  14
ENDBRANCH   4   6
ENDBRANCH   1   2
BRANCH   1  20
ATOM     20  O   UNL     1       0.014  10.730  19.052  0.00  0.00    +0.000 OA
BRANCH  20  21
ATOM     21  C   UNL     1      -0.163  11.988  19.511  0.00  0.00    +0.000 C 
ATOM     22  O   UNL     1       0.652  12.891  19.372  0.00  0.00    +0.000 OA
BRANCH  21  25
ATOM     23  N   UNL     1      -3.844  12.358  20.150  0.00  0.00    +0.000 N 
ATOM     24  C   UNL     1      -2.584  12.215  19.588  0.00  0.00    +0.000 A 
ATOM     25  C   UNL     1      -1.431  12.115  20.264  0.00  0.00    +0.000 A 
ATOM     26  C   UNL     1      -1.523  12.145  21.743  0.00  0.00    +0.000 A 
ATOM     27  O   UNL     1      -0.565  11.911  22.475  0.00  0.00    +0.000 OA
ATOM     28  C   UNL     1      -2.838  12.427  22.354  0.00  0.00    +0.000 A 
ATOM     29  C   UNL     1      -2.942  12.609  23.734  0.00  0.00    +0.000 A 
ATOM     30  C   UNL     1      -4.189  12.851  24.293  0.00  0.00    +0.000 A 
ATOM     31  C   UNL     1      -5.293  12.893  23.451  0.00  0.00    +0.000 A 
ATOM     32  C   UNL     1      -6.670  13.096  24.011  0.00  0.00    +0.000 C 
ATOM     33  N   UNL     1      -5.199  12.724  22.110  0.00  0.00    +0.000 NA
ATOM     34  C   UNL     1      -3.981  12.505  21.554  0.00  0.00    +0.000 A 
BRANCH  23  36
ATOM     35  C   UNL     1      -5.076  11.678  18.121  0.00  0.00    +0.000 C 
ATOM     36  C   UNL     1      -5.067  12.561  19.363  0.00  0.00    +0.000 C 
ENDBRANCH  23  36
ENDBRANCH  21  25
ENDBRANCH  20  21
ENDBRANCH   1  20
TORSDOF 7
ENDMDL
