MODEL 1
REMARK VINA RESULT:      -7.6      0.000      0.000
REMARK  Name = 
REMARK  6 active torsions:
REMARK  status: ('A' for Active; 'I' for Inactive)
REMARK    1  A    between atoms: C_1  and  C_2
REMARK    2  A    between atoms: C_2  and  N_3
REMARK    3  A    between atoms: N_3  and  C_4
REMARK    4  A    between atoms: N_3  and  C_6
REMARK    5  A    between atoms: C_4  and  C_5
REMARK    6  A    between atoms: C_11  and  C_12
REMARK                            x       y       z     vdW  Elec       q    Type
REMARK                         _______ _______ _______ _____ _____    ______ ____
ROOT
ATOM      1  C   UNL     1       2.464   7.321  18.658  0.00  0.00    +0.000 A 
ATOM      2  C   UNL     1       1.973   8.388  17.873  0.00  0.00    +0.000 A 
ATOM      3  C   UNL     1       1.248   9.463  18.412  0.00  0.00    +0.000 A 
ATOM      4  C   UNL     1       0.987   9.503  19.772  0.00  0.00    +0.000 A 
ATOM      5  C   UNL     1       0.273  10.601  20.392  0.00  0.00    +0.000 A 
ATOM      6  C   UNL     1       0.059  10.614  21.718  0.00  0.00    +0.000 A 
ATOM      7  C   UNL     1       0.544   9.494  22.574  0.00  0.00    +0.000 A 
ATOM      8  O   UNL     1       0.375   9.482  23.791  0.00  0.00    +0.000 OA
ATOM      9  O   UNL     1       1.209   8.447  21.944  0.00  0.00    +0.000 OA
ATOM     10  C   UNL     1       1.441   8.458  20.558  0.00  0.00    +0.000 A 
ATOM     11  C   UNL     1       2.158   7.384  20.025  0.00  0.00    +0.000 A 
ENDROOT
BRANCH   6  12
ATOM     12  C   UNL     1      -0.632  11.729  22.273  0.00  0.00    +0.000 A 
ATOM     13  N   UNL     1      -0.285  13.005  22.340  0.00  0.00    +0.000 NA
ATOM     14  C   UNL     1      -1.317  13.644  22.985  0.00  0.00    +0.000 A 
ATOM     15  C   UNL     1      -1.469  14.997  23.316  0.00  0.00    +0.000 A 
ATOM     16  C   UNL     1      -2.630  15.394  23.991  0.00  0.00    +0.000 A 
ATOM     17  C   UNL     1      -3.615  14.463  24.333  0.00  0.00    +0.000 A 
ATOM     18  C   UNL     1      -3.478  13.109  24.010  0.00  0.00    +0.000 A 
ATOM     19  C   UNL     1      -2.314  12.746  23.333  0.00  0.00    +0.000 A 
ATOM     20  N   UNL     1      -1.864  11.542  22.863  0.00  0.00    +0.000 N 
ATOM     21  H   UNL     1      -2.347  10.655  22.928  0.00  0.00    +0.000 HD
ENDBRANCH   6  12
BRANCH   1  22
ATOM     22  N   UNL     1       3.226   6.281  18.102  0.00  0.00    +0.000 N 
BRANCH  22  24
ATOM     23  C   UNL     1       1.648   4.408  17.727  0.00  0.00    +0.000 C 
ATOM     24  C   UNL     1       2.920   4.880  18.424  0.00  0.00    +0.000 C 
ENDBRANCH  22  24
BRANCH  22  25
ATOM     25  C   UNL     1       4.191   6.633  17.044  0.00  0.00    +0.000 C 
ATOM     26  C   UNL     1       5.666   6.535  17.379  0.00  0.00    +0.000 C 
ENDBRANCH  22  25
ENDBRANCH   1  22
TORSDOF 4
ENDMDL
MODEL 2
REMARK VINA RESULT:      -7.6      0.228      1.425
REMARK  Name = 
REMARK  6 active torsions:
REMARK  status: ('A' for Active; 'I' for Inactive)
REMARK    1  A    between atoms: C_1  and  C_2
REMARK    2  A    between atoms: C_2  and  N_3
REMARK    3  A    between atoms: N_3  and  C_4
REMARK    4  A    between atoms: N_3  and  C_6
REMARK    5  A    between atoms: C_4  and  C_5
REMARK    6  A    between atoms: C_11  and  C_12
REMARK                            x       y       z     vdW  Elec       q    Type
REMARK                         _______ _______ _______ _____ _____    ______ ____
ROOT
ATOM      1  C   UNL     1       2.372   7.462  18.645  0.00  0.00    +0.000 A 
ATOM      2  C   UNL     1       1.913   8.556  17.878  0.00  0.00    +0.000 A 
ATOM      3  C   UNL     1       1.206   9.635  18.432  0.00  0.00    +0.000 A 
ATOM      4  C   UNL     1       0.931   9.653  19.790  0.00  0.00    +0.000 A 
ATOM      5  C   UNL     1       0.234  10.754  20.425  0.00  0.00    +0.000 A 
ATOM      6  C   UNL     1       0.007  10.744  21.748  0.00  0.00    +0.000 A 
ATOM      7  C   UNL     1       0.457   9.595  22.586  0.00  0.00    +0.000 A 
ATOM      8  O   UNL     1       0.274   9.562  23.801  0.00  0.00    +0.000 OA
ATOM      9  O   UNL     1       1.105   8.547  21.941  0.00  0.00    +0.000 OA
ATOM     10  C   UNL     1       1.353   8.582  20.558  0.00  0.00    +0.000 A 
ATOM     11  C   UNL     1       2.051   7.504  20.010  0.00  0.00    +0.000 A 
ENDROOT
BRANCH   6  12
ATOM     12  C   UNL     1      -0.665  11.861  22.320  0.00  0.00    +0.000 A 
ATOM     13  N   UNL     1      -0.282  13.123  22.438  0.00  0.00    +0.000 NA
ATOM     14  C   UNL     1      -1.311  13.774  23.074  0.00  0.00    +0.000 A 
ATOM     15  C   UNL     1      -1.431  15.120  23.443  0.00  0.00    +0.000 A 
ATOM     16  C   UNL     1      -2.598  15.533  24.099  0.00  0.00    +0.000 A 
ATOM     17  C   UNL     1      -3.621  14.623  24.382  0.00  0.00    +0.000 A 
ATOM     18  C   UNL     1      -3.517  13.276  24.020  0.00  0.00    +0.000 A 
ATOM     19  C   UNL     1      -2.346  12.898  23.364  0.00  0.00    +0.000 A 
ATOM     20  N   UNL     1      -1.919  11.696  22.869  0.00  0.00    +0.000 N 
ATOM     21  H   UNL     1      -2.431  10.823  22.891  0.00  0.00    +0.000 HD
ENDBRANCH   6  12
BRANCH   1  22
ATOM     22  N   UNL     1       3.116   6.417  18.076  0.00  0.00    +0.000 N 
BRANCH  22  24
ATOM     23  C   UNL     1       5.484   5.828  17.642  0.00  0.00    +0.000 C 
ATOM     24  C   UNL     1       4.300   6.708  17.254  0.00  0.00    +0.000 C 
ENDBRANCH  22  24
BRANCH  22  25
ATOM     25  C   UNL     1       2.793   5.042  18.497  0.00  0.00    +0.000 C 
ATOM     26  C   UNL     1       1.784   4.272  17.667  0.00  0.00    +0.000 C 
ENDBRANCH  22  25
ENDBRANCH   1  22
TORSDOF 4
ENDMDL
MODEL 3
REMARK VINA RESULT:      -7.3      1.669      9.056
REMARK  Name = 
REMARK  6 active torsions:
REMARK  status: ('A' for Active; 'I' for Inactive)
REMARK    1  A    between atoms: C_1  and  C_2
REMARK    2  A    between atoms: C_2  and  N_3
REMARK    3  A    between atoms: N_3  and  C_4
REMARK    4  A    between atoms: N_3  and  C_6
REMARK    5  A    between atoms: C_4  and  C_5
REMARK    6  A    between atoms: C_11  and  C_12
REMARK                            x       y       z     vdW  Elec       q    Type
REMARK                         _______ _______ _______ _____ _____    ______ ____
ROOT
ATOM      1  C   UNL     1      -0.751  11.512  22.307  0.00  0.00    +0.000 A 
ATOM      2  C   UNL     1      -0.538  10.290  22.983  0.00  0.00    +0.000 A 
ATOM      3  C   UNL     1       0.127   9.199  22.401  0.00  0.00    +0.000 A 
ATOM      4  C   UNL     1       0.604   9.298  21.103  0.00  0.00    +0.000 A 
ATOM      5  C   UNL     1       1.325   8.218  20.459  0.00  0.00    +0.000 A 
ATOM      6  C   UNL     1       1.791   8.361  19.208  0.00  0.00    +0.000 A 
ATOM      7  C   UNL     1       1.565   9.629  18.455  0.00  0.00    +0.000 A 
ATOM      8  O   UNL     1       1.990   9.794  17.314  0.00  0.00    +0.000 OA
ATOM      9  O   UNL     1       0.853  10.636  19.097  0.00  0.00    +0.000 OA
ATOM     10  C   UNL     1       0.388  10.478  20.414  0.00  0.00    +0.000 A 
ATOM     11  C   UNL     1      -0.276  11.564  20.988  0.00  0.00    +0.000 A 
ENDROOT
BRANCH   6  12
ATOM     12  C   UNL     1       2.509   7.274  18.633  0.00  0.00    +0.000 A 
ATOM     13  N   UNL     1       2.370   5.968  18.806  0.00  0.00    +0.000 NA
ATOM     14  C   UNL     1       3.327   5.378  18.016  0.00  0.00    +0.000 A 
ATOM     15  C   UNL     1       3.618   4.021  17.820  0.00  0.00    +0.000 A 
ATOM     16  C   UNL     1       4.666   3.680  16.956  0.00  0.00    +0.000 A 
ATOM     17  C   UNL     1       5.410   4.669  16.305  0.00  0.00    +0.000 A 
ATOM     18  C   UNL     1       5.132   6.027  16.490  0.00  0.00    +0.000 A 
ATOM     19  C   UNL     1       4.079   6.334  17.352  0.00  0.00    +0.000 A 
ATOM     20  N   UNL     1       3.537   7.526  17.750  0.00  0.00    +0.000 N 
ATOM     21  H   UNL     1       3.830   8.447  17.450  0.00  0.00    +0.000 HD
ENDBRANCH   6  12
BRANCH   1  22
ATOM     22  N   UNL     1      -1.377  12.604  22.927  0.00  0.00    +0.000 N 
BRANCH  22  24
ATOM     23  C   UNL     1      -3.850  12.510  22.812  0.00  0.00    +0.000 C 
ATOM     24  C   UNL     1      -2.613  12.414  23.700  0.00  0.00    +0.000 C 
ENDBRANCH  22  24
BRANCH  22  25
ATOM     25  C   UNL     1      -0.649  13.886  22.947  0.00  0.00    +0.000 C 
ATOM     26  C   UNL     1      -1.173  15.004  22.068  0.00  0.00    +0.000 C 
ENDBRANCH  22  25
ENDBRANCH   1  22
TORSDOF 4
ENDMDL
MODEL 4
REMARK VINA RESULT:      -7.3      0.371      1.216
REMARK  Name = 
REMARK  6 active torsions:
REMARK  status: ('A' for Active; 'I' for Inactive)
REMARK    1  A    between atoms: C_1  and  C_2
REMARK    2  A    between atoms: C_2  and  N_3
REMARK    3  A    between atoms: N_3  and  C_4
REMARK    4  A    between atoms: N_3  and  C_6
REMARK    5  A    between atoms: C_4  and  C_5
REMARK    6  A    between atoms: C_11  and  C_12
REMARK                            x       y       z     vdW  Elec       q    Type
REMARK                         _______ _______ _______ _____ _____    ______ ____
ROOT
ATOM      1  C   UNL     1       2.471   7.420  18.698  0.00  0.00    +0.000 A 
ATOM      2  C   UNL     1       1.885   8.439  17.913  0.00  0.00    +0.000 A 
ATOM      3  C   UNL     1       1.100   9.468  18.457  0.00  0.00    +0.000 A 
ATOM      4  C   UNL     1       0.871   9.508  19.824  0.00  0.00    +0.000 A 
ATOM      5  C   UNL     1       0.097  10.562  20.449  0.00  0.00    +0.000 A 
ATOM      6  C   UNL     1      -0.084  10.578  21.779  0.00  0.00    +0.000 A 
ATOM      7  C   UNL     1       0.501   9.507  22.636  0.00  0.00    +0.000 A 
ATOM      8  O   UNL     1       0.364   9.501  23.857  0.00  0.00    +0.000 OA
ATOM      9  O   UNL     1       1.222   8.501  22.002  0.00  0.00    +0.000 OA
ATOM     10  C   UNL     1       1.417   8.509  20.610  0.00  0.00    +0.000 A 
ATOM     11  C   UNL     1       2.195   7.481  20.072  0.00  0.00    +0.000 A 
ENDROOT
BRANCH   6  12
ATOM     12  C   UNL     1      -0.838  11.649  22.338  0.00  0.00    +0.000 A 
ATOM     13  N   UNL     1      -1.991  11.637  22.989  0.00  0.00    +0.000 NA
ATOM     14  C   UNL     1      -2.266  12.947  23.298  0.00  0.00    +0.000 A 
ATOM     15  C   UNL     1      -3.356  13.499  23.983  0.00  0.00    +0.000 A 
ATOM     16  C   UNL     1      -3.401  14.888  24.161  0.00  0.00    +0.000 A 
ATOM     17  C   UNL     1      -2.384  15.708  23.662  0.00  0.00    +0.000 A 
ATOM     18  C   UNL     1      -1.289  15.172  22.976  0.00  0.00    +0.000 A 
ATOM     19  C   UNL     1      -1.270  13.786  22.821  0.00  0.00    +0.000 A 
ATOM     20  N   UNL     1      -0.373  12.942  22.227  0.00  0.00    +0.000 N 
ATOM     21  H   UNL     1       0.495  13.208  21.779  0.00  0.00    +0.000 HD
ENDBRANCH   6  12
BRANCH   1  22
ATOM     22  N   UNL     1       3.290   6.429  18.135  0.00  0.00    +0.000 N 
BRANCH  22  24
ATOM     23  C   UNL     1       1.692   4.576  17.746  0.00  0.00    +0.000 C 
ATOM     24  C   UNL     1       3.012   5.007  18.379  0.00  0.00    +0.000 C 
ENDBRANCH  22  24
BRANCH  22  25
ATOM     25  C   UNL     1       4.294   6.857  17.144  0.00  0.00    +0.000 C 
ATOM     26  C   UNL     1       4.979   5.778  16.328  0.00  0.00    +0.000 C 
ENDBRANCH  22  25
ENDBRANCH   1  22
TORSDOF 4
ENDMDL
MODEL 5
REMARK VINA RESULT:      -7.2      1.646      9.159
REMARK  Name = 
REMARK  6 active torsions:
REMARK  status: ('A' for Active; 'I' for Inactive)
REMARK    1  A    between atoms: C_1  and  C_2
REMARK    2  A    between atoms: C_2  and  N_3
REMARK    3  A    between atoms: N_3  and  C_4
REMARK    4  A    between atoms: N_3  and  C_6
REMARK    5  A    between atoms: C_4  and  C_5
REMARK    6  A    between atoms: C_11  and  C_12
REMARK                            x       y       z     vdW  Elec       q    Type
REMARK                         _______ _______ _______ _____ _____    ______ ____
ROOT
ATOM      1  C   UNL     1      -1.198  11.441  22.321  0.00  0.00    +0.000 A 
ATOM      2  C   UNL     1      -0.846  10.287  23.056  0.00  0.00    +0.000 A 
ATOM      3  C   UNL     1      -0.057   9.254  22.527  0.00  0.00    +0.000 A 
ATOM      4  C   UNL     1       0.410   9.343  21.225  0.00  0.00    +0.000 A 
ATOM      5  C   UNL     1       1.256   8.325  20.634  0.00  0.00    +0.000 A 
ATOM      6  C   UNL     1       1.706   8.459  19.376  0.00  0.00    +0.000 A 
ATOM      7  C   UNL     1       1.337   9.653  18.563  0.00  0.00    +0.000 A 
ATOM      8  O   UNL     1       1.744   9.811  17.414  0.00  0.00    +0.000 OA
ATOM      9  O   UNL     1       0.509  10.601  19.155  0.00  0.00    +0.000 OA
ATOM     10  C   UNL     1       0.062  10.455  20.479  0.00  0.00    +0.000 A 
ATOM     11  C   UNL     1      -0.728  11.483  21.000  0.00  0.00    +0.000 A 
ENDROOT
BRANCH   6  12
ATOM     12  C   UNL     1       2.549   7.436  18.855  0.00  0.00    +0.000 A 
ATOM     13  N   UNL     1       2.738   6.191  19.264  0.00  0.00    +0.000 NA
ATOM     14  C   UNL     1       3.663   5.647  18.405  0.00  0.00    +0.000 A 
ATOM     15  C   UNL     1       4.217   4.361  18.380  0.00  0.00    +0.000 A 
ATOM     16  C   UNL     1       5.161   4.058  17.390  0.00  0.00    +0.000 A 
ATOM     17  C   UNL     1       5.545   5.018  16.449  0.00  0.00    +0.000 A 
ATOM     18  C   UNL     1       5.001   6.307  16.461  0.00  0.00    +0.000 A 
ATOM     19  C   UNL     1       4.061   6.575  17.455  0.00  0.00    +0.000 A 
ATOM     20  N   UNL     1       3.335   7.696  17.753  0.00  0.00    +0.000 N 
ATOM     21  H   UNL     1       3.359   8.576  17.253  0.00  0.00    +0.000 HD
ENDBRANCH   6  12
BRANCH   1  22
ATOM     22  N   UNL     1      -1.949  12.482  22.888  0.00  0.00    +0.000 N 
BRANCH  22  24
ATOM     23  C   UNL     1      -0.868  14.633  23.477  0.00  0.00    +0.000 C 
ATOM     24  C   UNL     1      -1.727  13.874  22.470  0.00  0.00    +0.000 C 
ENDBRANCH  22  24
BRANCH  22  25
ATOM     25  C   UNL     1      -3.088  12.110  23.747  0.00  0.00    +0.000 C 
ATOM     26  C   UNL     1      -4.270  13.058  23.794  0.00  0.00    +0.000 C 
ENDBRANCH  22  25
ENDBRANCH   1  22
TORSDOF 4
ENDMDL
MODEL 6
REMARK VINA RESULT:      -7.2      2.097      3.333
REMARK  Name = 
REMARK  6 active torsions:
REMARK  status: ('A' for Active; 'I' for Inactive)
REMARK    1  A    between atoms: C_1  and  C_2
REMARK    2  A    between atoms: C_2  and  N_3
REMARK    3  A    between atoms: N_3  and  C_4
REMARK    4  A    between atoms: N_3  and  C_6
REMARK    5  A    between atoms: C_4  and  C_5
REMARK    6  A    between atoms: C_11  and  C_12
REMARK                            x       y       z     vdW  Elec       q    Type
REMARK                         _______ _______ _______ _____ _____    ______ ____
ROOT
ATOM      1  C   UNL     1       3.512   4.797  18.424  0.00  0.00    +0.000 A 
ATOM      2  C   UNL     1       3.182   4.627  19.787  0.00  0.00    +0.000 A 
ATOM      3  C   UNL     1       2.547   5.619  20.550  0.00  0.00    +0.000 A 
ATOM      4  C   UNL     1       2.219   6.831  19.965  0.00  0.00    +0.000 A 
ATOM      5  C   UNL     1       1.533   7.882  20.691  0.00  0.00    +0.000 A 
ATOM      6  C   UNL     1       1.212   9.035  20.082  0.00  0.00    +0.000 A 
ATOM      7  C   UNL     1       1.564   9.258  18.650  0.00  0.00    +0.000 A 
ATOM      8  O   UNL     1       1.273  10.296  18.061  0.00  0.00    +0.000 OA
ATOM      9  O   UNL     1       2.238   8.237  17.988  0.00  0.00    +0.000 OA
ATOM     10  C   UNL     1       2.550   7.029  18.636  0.00  0.00    +0.000 A 
ATOM     11  C   UNL     1       3.186   6.046  17.874  0.00  0.00    +0.000 A 
ENDROOT
BRANCH   6  12
ATOM     12  C   UNL     1       0.523  10.023  20.840  0.00  0.00    +0.000 A 
ATOM     13  N   UNL     1      -0.492   9.903  21.683  0.00  0.00    +0.000 NA
ATOM     14  C   UNL     1      -0.767  11.173  22.128  0.00  0.00    +0.000 A 
ATOM     15  C   UNL     1      -1.740  11.617  23.033  0.00  0.00    +0.000 A 
ATOM     16  C   UNL     1      -1.817  12.988  23.314  0.00  0.00    +0.000 A 
ATOM     17  C   UNL     1      -0.946  13.895  22.702  0.00  0.00    +0.000 A 
ATOM     18  C   UNL     1       0.030  13.468  21.796  0.00  0.00    +0.000 A 
ATOM     19  C   UNL     1       0.085  12.098  21.542  0.00  0.00    +0.000 A 
ATOM     20  N   UNL     1       0.899  11.345  20.740  0.00  0.00    +0.000 N 
ATOM     21  H   UNL     1       1.658  11.689  20.165  0.00  0.00    +0.000 HD
ENDBRANCH   6  12
BRANCH   1  22
ATOM     22  N   UNL     1       4.105   3.772  17.670  0.00  0.00    +0.000 N 
BRANCH  22  24
ATOM     23  C   UNL     1       2.290   2.086  17.737  0.00  0.00    +0.000 C 
ATOM     24  C   UNL     1       3.777   2.365  17.939  0.00  0.00    +0.000 C 
ENDBRANCH  22  24
BRANCH  22  25
ATOM     25  C   UNL     1       4.893   4.165  16.488  0.00  0.00    +0.000 C 
ATOM     26  C   UNL     1       6.370   4.446  16.691  0.00  0.00    +0.000 C 
ENDBRANCH  22  25
ENDBRANCH   1  22
TORSDOF 4
ENDMDL
MODEL 7
REMARK VINA RESULT:      -7.2      2.044      3.312
REMARK  Name = 
REMARK  6 active torsions:
REMARK  status: ('A' for Active; 'I' for Inactive)
REMARK    1  A    between atoms: C_1  and  C_2
REMARK    2  A    between atoms: C_2  and  N_3
REMARK    3  A    between atoms: N_3  and  C_4
REMARK    4  A    between atoms: N_3  and  C_6
REMARK    5  A    between atoms: C_4  and  C_5
REMARK    6  A    between atoms: C_11  and  C_12
REMARK                            x       y       z     vdW  Elec       q    Type
REMARK                         _______ _______ _______ _____ _____    ______ ____
ROOT
ATOM      1  C   UNL     1       3.417   5.101  18.859  0.00  0.00    +0.000 A 
ATOM      2  C   UNL     1       2.817   4.924  20.126  0.00  0.00    +0.000 A 
ATOM      3  C   UNL     1       2.066   5.923  20.763  0.00  0.00    +0.000 A 
ATOM      4  C   UNL     1       1.891   7.151  20.145  0.00  0.00    +0.000 A 
ATOM      5  C   UNL     1       1.099   8.211  20.737  0.00  0.00    +0.000 A 
ATOM      6  C   UNL     1       0.935   9.379  20.096  0.00  0.00    +0.000 A 
ATOM      7  C   UNL     1       1.572   9.610  18.767  0.00  0.00    +0.000 A 
ATOM      8  O   UNL     1       1.430  10.663  18.150  0.00  0.00    +0.000 OA
ATOM      9  O   UNL     1       2.340   8.579  18.237  0.00  0.00    +0.000 OA
ATOM     10  C   UNL     1       2.486   7.355  18.913  0.00  0.00    +0.000 A 
ATOM     11  C   UNL     1       3.239   6.365  18.277  0.00  0.00    +0.000 A 
ENDROOT
BRANCH   6  12
ATOM     12  C   UNL     1       0.131  10.376  20.718  0.00  0.00    +0.000 A 
ATOM     13  N   UNL     1       0.188  10.883  21.940  0.00  0.00    +0.000 NA
ATOM     14  C   UNL     1      -0.827  11.807  22.014  0.00  0.00    +0.000 A 
ATOM     15  C   UNL     1      -1.212  12.634  23.077  0.00  0.00    +0.000 A 
ATOM     16  C   UNL     1      -2.304  13.494  22.894  0.00  0.00    +0.000 A 
ATOM     17  C   UNL     1      -2.996  13.524  21.680  0.00  0.00    +0.000 A 
ATOM     18  C   UNL     1      -2.624  12.705  20.610  0.00  0.00    +0.000 A 
ATOM     19  C   UNL     1      -1.531  11.865  20.821  0.00  0.00    +0.000 A 
ATOM     20  N   UNL     1      -0.901  10.959  20.013  0.00  0.00    +0.000 N 
ATOM     21  H   UNL     1      -1.139  10.744  19.053  0.00  0.00    +0.000 HD
ENDBRANCH   6  12
BRANCH   1  22
ATOM     22  N   UNL     1       4.124   4.070  18.222  0.00  0.00    +0.000 N 
BRANCH  22  24
ATOM     23  C   UNL     1       5.249   4.144  16.015  0.00  0.00    +0.000 C 
ATOM     24  C   UNL     1       5.384   4.354  17.520  0.00  0.00    +0.000 C 
ENDBRANCH  22  24
BRANCH  22  25
ATOM     25  C   UNL     1       3.672   2.687  18.457  0.00  0.00    +0.000 C 
ATOM     26  C   UNL     1       2.435   2.218  17.715  0.00  0.00    +0.000 C 
ENDBRANCH  22  25
ENDBRANCH   1  22
TORSDOF 4
ENDMDL
MODEL 8
REMARK VINA RESULT:      -7.2      2.078      3.112
REMARK  Name = 
REMARK  6 active torsions:
REMARK  status: ('A' for Active; 'I' for Inactive)
REMARK    1  A    between atoms: C_1  and  C_2
REMARK    2  A    between atoms: C_2  and  N_3
REMARK    3  A    between atoms: N_3  and  C_4
REMARK    4  A    between atoms: N_3  and  C_6
REMARK    5  A    between atoms: C_4  and  C_5
REMARK    6  A    between atoms: C_11  and  C_12
REMARK                            x       y       z     vdW  Elec       q    Type
REMARK                         _______ _______ _______ _____ _____    ______ ____
ROOT
ATOM      1  C   UNL     1       3.503   4.968  18.883  0.00  0.00    +0.000 A 
ATOM      2  C   UNL     1       2.916   4.805  20.158  0.00  0.00    +0.000 A 
ATOM      3  C   UNL     1       2.161   5.807  20.787  0.00  0.00    +0.000 A 
ATOM      4  C   UNL     1       1.970   7.024  20.152  0.00  0.00    +0.000 A 
ATOM      5  C   UNL     1       1.174   8.086  20.735  0.00  0.00    +0.000 A 
ATOM      6  C   UNL     1       0.994   9.243  20.078  0.00  0.00    +0.000 A 
ATOM      7  C   UNL     1       1.617   9.460  18.741  0.00  0.00    +0.000 A 
ATOM      8  O   UNL     1       1.460  10.502  18.109  0.00  0.00    +0.000 OA
ATOM      9  O   UNL     1       2.390   8.427  18.219  0.00  0.00    +0.000 OA
ATOM     10  C   UNL     1       2.553   7.215  18.912  0.00  0.00    +0.000 A 
ATOM     11  C   UNL     1       3.308   6.222  18.284  0.00  0.00    +0.000 A 
ENDROOT
BRANCH   6  12
ATOM     12  C   UNL     1       0.187  10.242  20.693  0.00  0.00    +0.000 A 
ATOM     13  N   UNL     1       0.230  10.746  21.917  0.00  0.00    +0.000 NA
ATOM     14  C   UNL     1      -0.781  11.674  21.981  0.00  0.00    +0.000 A 
ATOM     15  C   UNL     1      -1.176  12.500  23.041  0.00  0.00    +0.000 A 
ATOM     16  C   UNL     1      -2.261  13.366  22.846  0.00  0.00    +0.000 A 
ATOM     17  C   UNL     1      -2.937  13.403  21.623  0.00  0.00    +0.000 A 
ATOM     18  C   UNL     1      -2.555  12.585  20.555  0.00  0.00    +0.000 A 
ATOM     19  C   UNL     1      -1.469  11.739  20.778  0.00  0.00    +0.000 A 
ATOM     20  N   UNL     1      -0.832  10.832  19.976  0.00  0.00    +0.000 N 
ATOM     21  H   UNL     1      -1.059  10.621  19.012  0.00  0.00    +0.000 HD
ENDBRANCH   6  12
BRANCH   1  22
ATOM     22  N   UNL     1       4.214   3.934  18.255  0.00  0.00    +0.000 N 
BRANCH  22  24
ATOM     23  C   UNL     1       2.379   2.394  17.622  0.00  0.00    +0.000 C 
ATOM     24  C   UNL     1       3.726   2.549  18.321  0.00  0.00    +0.000 C 
ENDBRANCH  22  24
BRANCH  22  25
ATOM     25  C   UNL     1       5.331   4.314  17.372  0.00  0.00    +0.000 C 
ATOM     26  C   UNL     1       5.090   4.269  15.876  0.00  0.00    +0.000 C 
ENDBRANCH  22  25
ENDBRANCH   1  22
TORSDOF 4
ENDMDL
MODEL 9
REMARK VINA RESULT:      -7.2      2.008      3.533
REMARK  Name = 
REMARK  6 active torsions:
REMARK  status: ('A' for Active; 'I' for Inactive)
REMARK    1  A    between atoms: C_1  and  C_2
REMARK    2  A    between atoms: C_2  and  N_3
REMARK    3  A    between atoms: N_3  and  C_4
REMARK    4  A    between atoms: N_3  and  C_6
REMARK    5  A    between atoms: C_4  and  C_5
REMARK    6  A    between atoms: C_11  and  C_12
REMARK                            x       y       z     vdW  Elec       q    Type
REMARK                         _______ _______ _______ _____ _____    ______ ____
ROOT
ATOM      1  C   UNL     1       3.439   4.995  18.400  0.00  0.00    +0.000 A 
ATOM      2  C   UNL     1       3.070   4.780  19.747  0.00  0.00    +0.000 A 
ATOM      3  C   UNL     1       2.421   5.751  20.527  0.00  0.00    +0.000 A 
ATOM      4  C   UNL     1       2.119   6.986  19.975  0.00  0.00    +0.000 A 
ATOM      5  C   UNL     1       1.421   8.016  20.719  0.00  0.00    +0.000 A 
ATOM      6  C   UNL     1       1.126   9.192  20.142  0.00  0.00    +0.000 A 
ATOM      7  C   UNL     1       1.520   9.462  18.729  0.00  0.00    +0.000 A 
ATOM      8  O   UNL     1       1.254  10.523  18.169  0.00  0.00    +0.000 OA
ATOM      9  O   UNL     1       2.205   8.459  18.051  0.00  0.00    +0.000 OA
ATOM     10  C   UNL     1       2.489   7.226  18.664  0.00  0.00    +0.000 A 
ATOM     11  C   UNL     1       3.139   6.266  17.887  0.00  0.00    +0.000 A 
ENDROOT
BRANCH   6  12
ATOM     12  C   UNL     1       0.423  10.159  20.915  0.00  0.00    +0.000 A 
ATOM     13  N   UNL     1      -0.611  10.017  21.730  0.00  0.00    +0.000 NA
ATOM     14  C   UNL     1      -0.892  11.274  22.209  0.00  0.00    +0.000 A 
ATOM     15  C   UNL     1      -1.883  11.693  23.105  0.00  0.00    +0.000 A 
ATOM     16  C   UNL     1      -1.962  13.055  23.427  0.00  0.00    +0.000 A 
ATOM     17  C   UNL     1      -1.075  13.977  22.863  0.00  0.00    +0.000 A 
ATOM     18  C   UNL     1      -0.079  13.575  21.967  0.00  0.00    +0.000 A 
ATOM     19  C   UNL     1      -0.023  12.213  21.672  0.00  0.00    +0.000 A 
ATOM     20  N   UNL     1       0.806  11.482  20.865  0.00  0.00    +0.000 N 
ATOM     21  H   UNL     1       1.579  11.841  20.318  0.00  0.00    +0.000 HD
ENDBRANCH   6  12
BRANCH   1  22
ATOM     22  N   UNL     1       4.045   3.992  17.628  0.00  0.00    +0.000 N 
BRANCH  22  24
ATOM     23  C   UNL     1       6.415   4.574  17.196  0.00  0.00    +0.000 C 
ATOM     24  C   UNL     1       5.032   4.342  16.596  0.00  0.00    +0.000 C 
ENDBRANCH  22  24
BRANCH  22  25
ATOM     25  C   UNL     1       3.814   2.592  18.026  0.00  0.00    +0.000 C 
ATOM     26  C   UNL     1       2.468   1.980  17.689  0.00  0.00    +0.000 C 
ENDBRANCH  22  25
ENDBRANCH   1  22
TORSDOF 4
ENDMDL
