MODEL 1
REMARK VINA RESULT:      -8.9      0.000      0.000
REMARK  Name = 
REMARK  8 active torsions:
REMARK  status: ('A' for Active; 'I' for Inactive)
REMARK    1  A    between atoms: C_1  and  O_2
REMARK    2  A    between atoms: O_2  and  C_3
REMARK    3  A    between atoms: C_6  and  O_7
REMARK    4  A    between atoms: O_7  and  C_8
REMARK    5  A    between atoms: C_11  and  S_12
REMARK    6  A    between atoms: S_12  and  N_15
REMARK    7  A    between atoms: C_22  and  S_23
REMARK    8  A    between atoms: S_23  and  N_26
REMARK                            x       y       z     vdW  Elec       q    Type
REMARK                         _______ _______ _______ _____ _____    ______ ____
ROOT
ATOM      1  C   UNL     1       3.146   6.320  18.002  0.00  0.00    +0.000 A 
ATOM      2  C   UNL     1       4.104   7.331  17.796  0.00  0.00    +0.000 A 
ATOM      3  C   UNL     1       5.332   7.051  17.222  0.00  0.00    +0.000 A 
ATOM      4  C   UNL     1       5.624   5.740  16.831  0.00  0.00    +0.000 A 
ATOM      5  C   UNL     1       4.655   4.741  16.908  0.00  0.00    +0.000 A 
ATOM      6  C   UNL     1       3.398   5.039  17.464  0.00  0.00    +0.000 A 
ENDROOT
BRANCH   4   7
ATOM      7  S   UNL     1       7.231   5.411  16.114  0.00  0.00    +0.000 S 
ATOM      8  O   UNL     1       7.960   6.660  16.135  0.00  0.00    +0.000 OA
ATOM      9  O   UNL     1       7.751   4.229  16.769  0.00  0.00    +0.000 OA
BRANCH   7  10
ATOM     10  N   UNL     1       6.880   5.006  14.484  0.00  0.00    +0.000 NA
ATOM     11  C   UNL     1       7.947   5.312  13.497  0.00  0.00    +0.000 C 
ATOM     12  C   UNL     1       7.464   5.120  12.063  0.00  0.00    +0.000 C 
ATOM     13  C   UNL     1       6.867   3.734  11.867  0.00  0.00    +0.000 C 
ATOM     14  C   UNL     1       5.718   3.538  12.845  0.00  0.00    +0.000 C 
ATOM     15  C   UNL     1       6.182   3.709  14.288  0.00  0.00    +0.000 C 
ENDBRANCH   7  10
ENDBRANCH   4   7
BRANCH   6  16
ATOM     16  S   UNL     1       2.199   3.696  17.494  0.00  0.00    +0.000 S 
ATOM     17  O   UNL     1       0.924   4.305  17.177  0.00  0.00    +0.000 OA
ATOM     18  O   UNL     1       2.710   2.583  16.722  0.00  0.00    +0.000 OA
BRANCH  16  19
ATOM     19  N   UNL     1       2.155   3.186  19.128  0.00  0.00    +0.000 NA
ATOM     20  C   UNL     1       3.347   2.514  19.669  0.00  0.00    +0.000 C 
ATOM     21  C   UNL     1       3.417   2.338  21.185  0.00  0.00    +0.000 C 
ATOM     22  C   UNL     1       2.319   3.002  21.992  0.00  0.00    +0.000 C 
ATOM     23  C   UNL     1       0.982   2.802  21.311  0.00  0.00    +0.000 C 
ATOM     24  C   UNL     1       0.971   3.486  19.951  0.00  0.00    +0.000 C 
ENDBRANCH  16  19
ENDBRANCH   6  16
BRANCH   1  25
ATOM     25  O   UNL     1       1.971   6.632  18.636  0.00  0.00    +0.000 OA
BRANCH  25  29
ATOM     26  C   UNL     1       0.651  10.401  19.811  0.00  0.00    +0.000 A 
ATOM     27  C   UNL     1       1.002  10.135  18.489  0.00  0.00    +0.000 A 
ATOM     28  C   UNL     1       1.537   8.890  18.147  0.00  0.00    +0.000 A 
ATOM     29  C   UNL     1       1.737   7.911  19.125  0.00  0.00    +0.000 A 
ATOM     30  C   UNL     1       1.546   8.249  20.471  0.00  0.00    +0.000 A 
ATOM     31  C   UNL     1       1.018   9.504  20.813  0.00  0.00    +0.000 A 
BRANCH  26  33
ATOM     32  C   UNL     1      -0.516  12.185  18.827  0.00  0.00    +0.000 C 
ATOM     33  O   UNL     1      -0.073  11.543  20.026  0.00  0.00    +0.000 OA
ENDBRANCH  26  33
ENDBRANCH  25  29
ENDBRANCH   1  25
TORSDOF 7
ENDMDL
MODEL 2
REMARK VINA RESULT:      -8.5      0.604      1.071
REMARK  Name = 
REMARK  8 active torsions:
REMARK  status: ('A' for Active; 'I' for Inactive)
REMARK    1  A    between atoms: C_1  and  O_2
REMARK    2  A    between atoms: O_2  and  C_3
REMARK    3  A    between atoms: C_6  and  O_7
REMARK    4  A    between atoms: O_7  and  C_8
REMARK    5  A    between atoms: C_11  and  S_12
REMARK    6  A    between atoms: S_12  and  N_15
REMARK    7  A    between atoms: C_22  and  S_23
REMARK    8  A    between atoms: S_23  and  N_26
REMARK                            x       y       z     vdW  Elec       q    Type
REMARK                         _______ _______ _______ _____ _____    ______ ____
ROOT
ATOM      1  C   UNL     1       3.010   6.469  17.809  0.00  0.00    +0.000 A 
ATOM      2  C   UNL     1       3.941   7.479  17.500  0.00  0.00    +0.000 A 
ATOM      3  C   UNL     1       5.193   7.174  16.998  0.00  0.00    +0.000 A 
ATOM      4  C   UNL     1       5.540   5.836  16.785  0.00  0.00    +0.000 A 
ATOM      5  C   UNL     1       4.603   4.820  16.964  0.00  0.00    +0.000 A 
ATOM      6  C   UNL     1       3.321   5.140  17.445  0.00  0.00    +0.000 A 
ENDROOT
BRANCH   4   7
ATOM      7  S   UNL     1       7.178   5.477  16.157  0.00  0.00    +0.000 S 
ATOM      8  O   UNL     1       7.927   6.714  16.217  0.00  0.00    +0.000 OA
ATOM      9  O   UNL     1       7.641   4.288  16.841  0.00  0.00    +0.000 OA
BRANCH   7  10
ATOM     10  N   UNL     1       6.909   5.076  14.511  0.00  0.00    +0.000 NA
ATOM     11  C   UNL     1       8.016   5.403  13.576  0.00  0.00    +0.000 C 
ATOM     12  C   UNL     1       7.603   5.211  12.120  0.00  0.00    +0.000 C 
ATOM     13  C   UNL     1       7.037   3.817  11.890  0.00  0.00    +0.000 C 
ATOM     14  C   UNL     1       5.848   3.599  12.813  0.00  0.00    +0.000 C 
ATOM     15  C   UNL     1       6.242   3.769  14.276  0.00  0.00    +0.000 C 
ENDBRANCH   7  10
ENDBRANCH   4   7
BRANCH   6  16
ATOM     16  S   UNL     1       2.166   3.769  17.615  0.00  0.00    +0.000 S 
ATOM     17  O   UNL     1       0.855   4.330  17.360  0.00  0.00    +0.000 OA
ATOM     18  O   UNL     1       2.656   2.637  16.859  0.00  0.00    +0.000 OA
BRANCH  16  19
ATOM     19  N   UNL     1       2.247   3.332  19.268  0.00  0.00    +0.000 NA
ATOM     20  C   UNL     1       1.145   3.761  20.145  0.00  0.00    +0.000 C 
ATOM     21  C   UNL     1       1.071   3.121  21.530  0.00  0.00    +0.000 C 
ATOM     22  C   UNL     1       2.054   2.001  21.809  0.00  0.00    +0.000 C 
ATOM     23  C   UNL     1       3.419   2.361  21.262  0.00  0.00    +0.000 C 
ATOM     24  C   UNL     1       3.363   2.500  19.747  0.00  0.00    +0.000 C 
ENDBRANCH  16  19
ENDBRANCH   6  16
BRANCH   1  25
ATOM     25  O   UNL     1       1.807   6.816  18.367  0.00  0.00    +0.000 OA
BRANCH  25  29
ATOM     26  C   UNL     1       0.820  10.158  20.644  0.00  0.00    +0.000 A 
ATOM     27  C   UNL     1       1.007  10.248  19.266  0.00  0.00    +0.000 A 
ATOM     28  C   UNL     1       1.437   9.130  18.546  0.00  0.00    +0.000 A 
ATOM     29  C   UNL     1       1.695   7.922  19.200  0.00  0.00    +0.000 A 
ATOM     30  C   UNL     1       1.673   7.891  20.601  0.00  0.00    +0.000 A 
ATOM     31  C   UNL     1       1.251   9.018  21.323  0.00  0.00    +0.000 A 
BRANCH  26  33
ATOM     32  C   UNL     1       0.773  12.486  20.950  0.00  0.00    +0.000 C 
ATOM     33  O   UNL     1       0.184  11.214  21.238  0.00  0.00    +0.000 OA
ENDBRANCH  26  33
ENDBRANCH  25  29
ENDBRANCH   1  25
TORSDOF 7
ENDMDL
MODEL 3
REMARK VINA RESULT:      -8.4      0.582      1.017
REMARK  Name = 
REMARK  8 active torsions:
REMARK  status: ('A' for Active; 'I' for Inactive)
REMARK    1  A    between atoms: C_1  and  O_2
REMARK    2  A    between atoms: O_2  and  C_3
REMARK    3  A    between atoms: C_6  and  O_7
REMARK    4  A    between atoms: O_7  and  C_8
REMARK    5  A    between atoms: C_11  and  S_12
REMARK    6  A    between atoms: S_12  and  N_15
REMARK    7  A    between atoms: C_22  and  S_23
REMARK    8  A    between atoms: S_23  and  N_26
REMARK                            x       y       z     vdW  Elec       q    Type
REMARK                         _______ _______ _______ _____ _____    ______ ____
ROOT
ATOM      1  C   UNL     1       3.286   6.274  18.161  0.00  0.00    +0.000 A 
ATOM      2  C   UNL     1       4.266   7.272  17.996  0.00  0.00    +0.000 A 
ATOM      3  C   UNL     1       5.459   7.006  17.347  0.00  0.00    +0.000 A 
ATOM      4  C   UNL     1       5.694   5.725  16.838  0.00  0.00    +0.000 A 
ATOM      5  C   UNL     1       4.699   4.750  16.876  0.00  0.00    +0.000 A 
ATOM      6  C   UNL     1       3.476   5.035  17.510  0.00  0.00    +0.000 A 
ENDROOT
BRANCH   4   7
ATOM      7  S   UNL     1       7.259   5.412  16.026  0.00  0.00    +0.000 S 
ATOM      8  O   UNL     1       7.971   6.671  15.996  0.00  0.00    +0.000 OA
ATOM      9  O   UNL     1       7.833   4.241  16.654  0.00  0.00    +0.000 OA
BRANCH   7  10
ATOM     10  N   UNL     1       6.814   4.993  14.423  0.00  0.00    +0.000 NA
ATOM     11  C   UNL     1       7.881   5.130  13.399  0.00  0.00    +0.000 C 
ATOM     12  C   UNL     1       7.337   4.945  11.985  0.00  0.00    +0.000 C 
ATOM     13  C   UNL     1       6.572   3.635  11.860  0.00  0.00    +0.000 C 
ATOM     14  C   UNL     1       5.437   3.617  12.873  0.00  0.00    +0.000 C 
ATOM     15  C   UNL     1       5.960   3.784  14.296  0.00  0.00    +0.000 C 
ENDBRANCH   7  10
ENDBRANCH   4   7
BRANCH   6  16
ATOM     16  S   UNL     1       2.238   3.728  17.484  0.00  0.00    +0.000 S 
ATOM     17  O   UNL     1       0.989   4.381  17.150  0.00  0.00    +0.000 OA
ATOM     18  O   UNL     1       2.735   2.617  16.701  0.00  0.00    +0.000 OA
BRANCH  16  19
ATOM     19  N   UNL     1       2.140   3.186  19.105  0.00  0.00    +0.000 NA
ATOM     20  C   UNL     1       3.316   2.506  19.672  0.00  0.00    +0.000 C 
ATOM     21  C   UNL     1       3.335   2.300  21.186  0.00  0.00    +0.000 C 
ATOM     22  C   UNL     1       2.208   2.946  21.969  0.00  0.00    +0.000 C 
ATOM     23  C   UNL     1       0.895   2.756  21.240  0.00  0.00    +0.000 C 
ATOM     24  C   UNL     1       0.928   3.467  19.893  0.00  0.00    +0.000 C 
ENDBRANCH  16  19
ENDBRANCH   6  16
BRANCH   1  25
ATOM     25  O   UNL     1       2.149   6.565  18.870  0.00  0.00    +0.000 OA
BRANCH  25  29
ATOM     26  C   UNL     1       1.187  10.587  19.346  0.00  0.00    +0.000 A 
ATOM     27  C   UNL     1       1.083   9.686  20.403  0.00  0.00    +0.000 A 
ATOM     28  C   UNL     1       1.315   8.325  20.185  0.00  0.00    +0.000 A 
ATOM     29  C   UNL     1       1.639   7.856  18.909  0.00  0.00    +0.000 A 
ATOM     30  C   UNL     1       1.569   8.740  17.825  0.00  0.00    +0.000 A 
ATOM     31  C   UNL     1       1.325  10.105  18.044  0.00  0.00    +0.000 A 
BRANCH  26  33
ATOM     32  C   UNL     1       2.125  12.704  18.959  0.00  0.00    +0.000 C 
ATOM     33  O   UNL     1       1.174  11.914  19.679  0.00  0.00    +0.000 OA
ENDBRANCH  26  33
ENDBRANCH  25  29
ENDBRANCH   1  25
TORSDOF 7
ENDMDL
MODEL 4
REMARK VINA RESULT:      -8.0      5.700     11.578
REMARK  Name = 
REMARK  8 active torsions:
REMARK  status: ('A' for Active; 'I' for Inactive)
REMARK    1  A    between atoms: C_1  and  O_2
REMARK    2  A    between atoms: O_2  and  C_3
REMARK    3  A    between atoms: C_6  and  O_7
REMARK    4  A    between atoms: O_7  and  C_8
REMARK    5  A    between atoms: C_11  and  S_12
REMARK    6  A    between atoms: S_12  and  N_15
REMARK    7  A    between atoms: C_22  and  S_23
REMARK    8  A    between atoms: S_23  and  N_26
REMARK                            x       y       z     vdW  Elec       q    Type
REMARK                         _______ _______ _______ _____ _____    ______ ____
ROOT
ATOM      1  C   UNL     1      -0.699  11.077  18.944  0.00  0.00    +0.000 A 
ATOM      2  C   UNL     1      -1.357  10.603  17.793  0.00  0.00    +0.000 A 
ATOM      3  C   UNL     1      -2.712  10.805  17.606  0.00  0.00    +0.000 A 
ATOM      4  C   UNL     1      -3.443  11.502  18.574  0.00  0.00    +0.000 A 
ATOM      5  C   UNL     1      -2.803  12.090  19.663  0.00  0.00    +0.000 A 
ATOM      6  C   UNL     1      -1.419  11.907  19.832  0.00  0.00    +0.000 A 
ENDROOT
BRANCH   4   7
ATOM      7  S   UNL     1      -5.200  11.725  18.309  0.00  0.00    +0.000 S 
ATOM      8  O   UNL     1      -5.343  12.488  17.088  0.00  0.00    +0.000 OA
ATOM      9  O   UNL     1      -5.816  10.422  18.453  0.00  0.00    +0.000 OA
BRANCH   7  10
ATOM     10  N   UNL     1      -5.696  12.699  19.630  0.00  0.00    +0.000 NA
ATOM     11  C   UNL     1      -6.266  14.025  19.278  0.00  0.00    +0.000 C 
ATOM     12  C   UNL     1      -6.475  14.897  20.512  0.00  0.00    +0.000 C 
ATOM     13  C   UNL     1      -7.297  14.169  21.566  0.00  0.00    +0.000 C 
ATOM     14  C   UNL     1      -6.595  12.873  21.944  0.00  0.00    +0.000 C 
ATOM     15  C   UNL     1      -6.391  11.977  20.727  0.00  0.00    +0.000 C 
ENDBRANCH   7  10
ENDBRANCH   4   7
BRANCH   6  16
ATOM     16  S   UNL     1      -0.671  12.729  21.249  0.00  0.00    +0.000 S 
ATOM     17  O   UNL     1       0.050  11.695  21.964  0.00  0.00    +0.000 OA
ATOM     18  O   UNL     1      -0.006  13.935  20.804  0.00  0.00    +0.000 OA
BRANCH  16  19
ATOM     19  N   UNL     1      -1.995  13.222  22.216  0.00  0.00    +0.000 NA
ATOM     20  C   UNL     1      -2.666  12.198  23.032  0.00  0.00    +0.000 C 
ATOM     21  C   UNL     1      -3.635  12.691  24.106  0.00  0.00    +0.000 C 
ATOM     22  C   UNL     1      -3.697  14.190  24.321  0.00  0.00    +0.000 C 
ATOM     23  C   UNL     1      -3.686  14.906  22.987  0.00  0.00    +0.000 C 
ATOM     24  C   UNL     1      -2.378  14.643  22.254  0.00  0.00    +0.000 C 
ENDBRANCH  16  19
ENDBRANCH   6  16
BRANCH   1  25
ATOM     25  O   UNL     1       0.632  10.794  19.118  0.00  0.00    +0.000 OA
BRANCH  25  29
ATOM     26  C   UNL     1       2.608   7.133  19.239  0.00  0.00    +0.000 A 
ATOM     27  C   UNL     1       2.423   7.818  18.041  0.00  0.00    +0.000 A 
ATOM     28  C   UNL     1       1.667   8.994  18.019  0.00  0.00    +0.000 A 
ATOM     29  C   UNL     1       1.082   9.483  19.190  0.00  0.00    +0.000 A 
ATOM     30  C   UNL     1       1.128   8.697  20.350  0.00  0.00    +0.000 A 
ATOM     31  C   UNL     1       1.878   7.511  20.367  0.00  0.00    +0.000 A 
BRANCH  26  33
ATOM     32  C   UNL     1       3.154   4.967  19.963  0.00  0.00    +0.000 C 
ATOM     33  O   UNL     1       3.540   6.130  19.225  0.00  0.00    +0.000 OA
ENDBRANCH  26  33
ENDBRANCH  25  29
ENDBRANCH   1  25
TORSDOF 7
ENDMDL
MODEL 5
REMARK VINA RESULT:      -7.9      0.539      1.064
REMARK  Name = 
REMARK  8 active torsions:
REMARK  status: ('A' for Active; 'I' for Inactive)
REMARK    1  A    between atoms: C_1  and  O_2
REMARK    2  A    between atoms: O_2  and  C_3
REMARK    3  A    between atoms: C_6  and  O_7
REMARK    4  A    between atoms: O_7  and  C_8
REMARK    5  A    between atoms: C_11  and  S_12
REMARK    6  A    between atoms: S_12  and  N_15
REMARK    7  A    between atoms: C_22  and  S_23
REMARK    8  A    between atoms: S_23  and  N_26
REMARK                            x       y       z     vdW  Elec       q    Type
REMARK                         _______ _______ _______ _____ _____    ______ ____
ROOT
ATOM      1  C   UNL     1       3.075   6.298  17.875  0.00  0.00    +0.000 A 
ATOM      2  C   UNL     1       4.033   7.303  17.641  0.00  0.00    +0.000 A 
ATOM      3  C   UNL     1       5.287   6.998  17.143  0.00  0.00    +0.000 A 
ATOM      4  C   UNL     1       5.609   5.666  16.859  0.00  0.00    +0.000 A 
ATOM      5  C   UNL     1       4.646   4.663  16.963  0.00  0.00    +0.000 A 
ATOM      6  C   UNL     1       3.363   4.985  17.441  0.00  0.00    +0.000 A 
ENDROOT
BRANCH   4   7
ATOM      7  S   UNL     1       7.250   5.307  16.239  0.00  0.00    +0.000 S 
ATOM      8  O   UNL     1       7.912   6.579  16.053  0.00  0.00    +0.000 OA
ATOM      9  O   UNL     1       7.812   4.288  17.101  0.00  0.00    +0.000 OA
BRANCH   7  10
ATOM     10  N   UNL     1       6.964   4.605  14.700  0.00  0.00    +0.000 NA
ATOM     11  C   UNL     1       5.557   4.221  14.416  0.00  0.00    +0.000 C 
ATOM     12  C   UNL     1       5.440   3.416  13.125  0.00  0.00    +0.000 C 
ATOM     13  C   UNL     1       6.092   4.148  11.961  0.00  0.00    +0.000 C 
ATOM     14  C   UNL     1       7.554   4.414  12.290  0.00  0.00    +0.000 C 
ATOM     15  C   UNL     1       7.694   5.233  13.569  0.00  0.00    +0.000 C 
ENDBRANCH   7  10
ENDBRANCH   4   7
BRANCH   6  16
ATOM     16  S   UNL     1       2.175   3.633  17.512  0.00  0.00    +0.000 S 
ATOM     17  O   UNL     1       0.893   4.224  17.188  0.00  0.00    +0.000 OA
ATOM     18  O   UNL     1       2.691   2.506  16.765  0.00  0.00    +0.000 OA
BRANCH  16  19
ATOM     19  N   UNL     1       2.146   3.164  19.158  0.00  0.00    +0.000 NA
ATOM     20  C   UNL     1       3.369   2.572  19.724  0.00  0.00    +0.000 C 
ATOM     21  C   UNL     1       3.436   2.438  21.244  0.00  0.00    +0.000 C 
ATOM     22  C   UNL     1       2.298   3.062  22.027  0.00  0.00    +0.000 C 
ATOM     23  C   UNL     1       0.978   2.773  21.343  0.00  0.00    +0.000 C 
ATOM     24  C   UNL     1       0.941   3.420  19.965  0.00  0.00    +0.000 C 
ENDBRANCH  16  19
ENDBRANCH   6  16
BRANCH   1  25
ATOM     25  O   UNL     1       1.870   6.640  18.432  0.00  0.00    +0.000 OA
BRANCH  25  29
ATOM     26  C   UNL     1       0.675  10.273  20.075  0.00  0.00    +0.000 A 
ATOM     27  C   UNL     1       0.852  10.121  18.702  0.00  0.00    +0.000 A 
ATOM     28  C   UNL     1       1.351   8.919  18.192  0.00  0.00    +0.000 A 
ATOM     29  C   UNL     1       1.689   7.870  19.051  0.00  0.00    +0.000 A 
ATOM     30  C   UNL     1       1.673   8.095  20.434  0.00  0.00    +0.000 A 
ATOM     31  C   UNL     1       1.182   9.306  20.944  0.00  0.00    +0.000 A 
BRANCH  26  33
ATOM     32  C   UNL     1      -0.157  11.500  21.896  0.00  0.00    +0.000 C 
ATOM     33  O   UNL     1      -0.026  11.378  20.476  0.00  0.00    +0.000 OA
ENDBRANCH  26  33
ENDBRANCH  25  29
ENDBRANCH   1  25
TORSDOF 7
ENDMDL
MODEL 6
REMARK VINA RESULT:      -7.8      5.281     11.438
REMARK  Name = 
REMARK  8 active torsions:
REMARK  status: ('A' for Active; 'I' for Inactive)
REMARK    1  A    between atoms: C_1  and  O_2
REMARK    2  A    between atoms: O_2  and  C_3
REMARK    3  A    between atoms: C_6  and  O_7
REMARK    4  A    between atoms: O_7  and  C_8
REMARK    5  A    between atoms: C_11  and  S_12
REMARK    6  A    between atoms: S_12  and  N_15
REMARK    7  A    between atoms: C_22  and  S_23
REMARK    8  A    between atoms: S_23  and  N_26
REMARK                            x       y       z     vdW  Elec       q    Type
REMARK                         _______ _______ _______ _____ _____    ______ ____
ROOT
ATOM      1  C   UNL     1      -0.654  11.022  18.778  0.00  0.00    +0.000 A 
ATOM      2  C   UNL     1      -1.376  10.482  17.697  0.00  0.00    +0.000 A 
ATOM      3  C   UNL     1      -2.735  10.699  17.561  0.00  0.00    +0.000 A 
ATOM      4  C   UNL     1      -3.405  11.477  18.511  0.00  0.00    +0.000 A 
ATOM      5  C   UNL     1      -2.701  12.127  19.524  0.00  0.00    +0.000 A 
ATOM      6  C   UNL     1      -1.314  11.927  19.639  0.00  0.00    +0.000 A 
ENDROOT
BRANCH   4   7
ATOM      7  S   UNL     1      -5.169  11.717  18.316  0.00  0.00    +0.000 S 
ATOM      8  O   UNL     1      -5.356  12.427  17.069  0.00  0.00    +0.000 OA
ATOM      9  O   UNL     1      -5.797  10.433  18.547  0.00  0.00    +0.000 OA
BRANCH   7  10
ATOM     10  N   UNL     1      -5.589  12.758  19.612  0.00  0.00    +0.000 NA
ATOM     11  C   UNL     1      -6.249  14.033  19.229  0.00  0.00    +0.000 C 
ATOM     12  C   UNL     1      -6.386  14.979  20.419  0.00  0.00    +0.000 C 
ATOM     13  C   UNL     1      -7.077  14.292  21.588  0.00  0.00    +0.000 C 
ATOM     14  C   UNL     1      -6.285  13.054  21.983  0.00  0.00    +0.000 C 
ATOM     15  C   UNL     1      -6.150  12.085  20.812  0.00  0.00    +0.000 C 
ENDBRANCH   7  10
ENDBRANCH   4   7
BRANCH   6  16
ATOM     16  S   UNL     1      -0.483  12.830  20.956  0.00  0.00    +0.000 S 
ATOM     17  O   UNL     1      -1.478  13.733  21.497  0.00  0.00    +0.000 OA
ATOM     18  O   UNL     1       0.220  11.893  21.806  0.00  0.00    +0.000 OA
BRANCH  16  19
ATOM     19  N   UNL     1       0.709  13.765  20.159  0.00  0.00    +0.000 NA
ATOM     20  C   UNL     1       2.119  13.504  20.489  0.00  0.00    +0.000 C 
ATOM     21  C   UNL     1       3.173  14.118  19.568  0.00  0.00    +0.000 C 
ATOM     22  C   UNL     1       2.658  14.814  18.323  0.00  0.00    +0.000 C 
ATOM     23  C   UNL     1       1.436  15.642  18.661  0.00  0.00    +0.000 C 
ATOM     24  C   UNL     1       0.301  14.744  19.137  0.00  0.00    +0.000 C 
ENDBRANCH  16  19
ENDBRANCH   6  16
BRANCH   1  25
ATOM     25  O   UNL     1       0.679  10.724  18.908  0.00  0.00    +0.000 OA
BRANCH  25  29
ATOM     26  C   UNL     1       2.595   7.057  19.361  0.00  0.00    +0.000 A 
ATOM     27  C   UNL     1       2.472   7.662  18.112  0.00  0.00    +0.000 A 
ATOM     28  C   UNL     1       1.735   8.842  17.979  0.00  0.00    +0.000 A 
ATOM     29  C   UNL     1       1.107   9.415  19.087  0.00  0.00    +0.000 A 
ATOM     30  C   UNL     1       1.090   8.709  20.297  0.00  0.00    +0.000 A 
ATOM     31  C   UNL     1       1.821   7.518  20.427  0.00  0.00    +0.000 A 
BRANCH  26  33
ATOM     32  C   UNL     1       4.045   5.624  18.197  0.00  0.00    +0.000 C 
ATOM     33  O   UNL     1       3.511   6.045  19.456  0.00  0.00    +0.000 OA
ENDBRANCH  26  33
ENDBRANCH  25  29
ENDBRANCH   1  25
TORSDOF 7
ENDMDL
MODEL 7
REMARK VINA RESULT:      -7.8      3.811      7.061
REMARK  Name = 
REMARK  8 active torsions:
REMARK  status: ('A' for Active; 'I' for Inactive)
REMARK    1  A    between atoms: C_1  and  O_2
REMARK    2  A    between atoms: O_2  and  C_3
REMARK    3  A    between atoms: C_6  and  O_7
REMARK    4  A    between atoms: O_7  and  C_8
REMARK    5  A    between atoms: C_11  and  S_12
REMARK    6  A    between atoms: S_12  and  N_15
REMARK    7  A    between atoms: C_22  and  S_23
REMARK    8  A    between atoms: S_23  and  N_26
REMARK                            x       y       z     vdW  Elec       q    Type
REMARK                         _______ _______ _______ _____ _____    ______ ____
ROOT
ATOM      1  C   UNL     1       0.792   9.578  18.798  0.00  0.00    +0.000 A 
ATOM      2  C   UNL     1       1.146   8.980  17.574  0.00  0.00    +0.000 A 
ATOM      3  C   UNL     1       2.010   7.900  17.525  0.00  0.00    +0.000 A 
ATOM      4  C   UNL     1       2.536   7.387  18.715  0.00  0.00    +0.000 A 
ATOM      5  C   UNL     1       2.112   7.876  19.950  0.00  0.00    +0.000 A 
ATOM      6  C   UNL     1       1.210   8.954  19.994  0.00  0.00    +0.000 A 
ENDROOT
BRANCH   4   7
ATOM      7  S   UNL     1       3.669   6.005  18.612  0.00  0.00    +0.000 S 
ATOM      8  O   UNL     1       3.984   5.830  17.211  0.00  0.00    +0.000 OA
ATOM      9  O   UNL     1       4.710   6.239  19.591  0.00  0.00    +0.000 OA
BRANCH   7  10
ATOM     10  N   UNL     1       2.734   4.666  19.138  0.00  0.00    +0.000 NA
ATOM     11  C   UNL     1       2.382   4.650  20.581  0.00  0.00    +0.000 C 
ATOM     12  C   UNL     1       1.743   3.327  20.994  0.00  0.00    +0.000 C 
ATOM     13  C   UNL     1       0.559   2.988  20.100  0.00  0.00    +0.000 C 
ATOM     14  C   UNL     1       1.024   2.924  18.652  0.00  0.00    +0.000 C 
ATOM     15  C   UNL     1       1.651   4.244  18.213  0.00  0.00    +0.000 C 
ENDBRANCH   7  10
ENDBRANCH   4   7
BRANCH   6  16
ATOM     16  S   UNL     1       0.693   9.498  21.631  0.00  0.00    +0.000 S 
ATOM     17  O   UNL     1      -0.623   8.929  21.833  0.00  0.00    +0.000 OA
ATOM     18  O   UNL     1       1.766   9.260  22.572  0.00  0.00    +0.000 OA
BRANCH  16  19
ATOM     19  N   UNL     1       0.524  11.196  21.493  0.00  0.00    +0.000 NA
ATOM     20  C   UNL     1      -0.691  11.811  22.051  0.00  0.00    +0.000 C 
ATOM     21  C   UNL     1      -0.696  13.333  22.194  0.00  0.00    +0.000 C 
ATOM     22  C   UNL     1       0.607  14.044  21.882  0.00  0.00    +0.000 C 
ATOM     23  C   UNL     1       1.240  13.445  20.644  0.00  0.00    +0.000 C 
ATOM     24  C   UNL     1       1.608  11.988  20.887  0.00  0.00    +0.000 C 
ENDBRANCH  16  19
ENDBRANCH   6  16
BRANCH   1  25
ATOM     25  O   UNL     1      -0.014  10.688  18.791  0.00  0.00    +0.000 OA
BRANCH  25  29
ATOM     26  C   UNL     1      -3.858  11.120  17.253  0.00  0.00    +0.000 A 
ATOM     27  C   UNL     1      -3.476  11.744  18.438  0.00  0.00    +0.000 A 
ATOM     28  C   UNL     1      -2.212  11.498  18.981  0.00  0.00    +0.000 A 
ATOM     29  C   UNL     1      -1.329  10.617  18.350  0.00  0.00    +0.000 A 
ATOM     30  C   UNL     1      -1.786   9.864  17.260  0.00  0.00    +0.000 A 
ATOM     31  C   UNL     1      -3.060  10.105  16.723  0.00  0.00    +0.000 A 
BRANCH  26  33
ATOM     32  C   UNL     1      -5.820  12.378  17.533  0.00  0.00    +0.000 C 
ATOM     33  O   UNL     1      -5.005  11.582  16.667  0.00  0.00    +0.000 OA
ENDBRANCH  26  33
ENDBRANCH  25  29
ENDBRANCH   1  25
TORSDOF 7
ENDMDL
MODEL 8
REMARK VINA RESULT:      -7.7      3.611      6.995
REMARK  Name = 
REMARK  8 active torsions:
REMARK  status: ('A' for Active; 'I' for Inactive)
REMARK    1  A    between atoms: C_1  and  O_2
REMARK    2  A    between atoms: O_2  and  C_3
REMARK    3  A    between atoms: C_6  and  O_7
REMARK    4  A    between atoms: O_7  and  C_8
REMARK    5  A    between atoms: C_11  and  S_12
REMARK    6  A    between atoms: S_12  and  N_15
REMARK    7  A    between atoms: C_22  and  S_23
REMARK    8  A    between atoms: S_23  and  N_26
REMARK                            x       y       z     vdW  Elec       q    Type
REMARK                         _______ _______ _______ _____ _____    ______ ____
ROOT
ATOM      1  C   UNL     1       0.718   9.689  18.839  0.00  0.00    +0.000 A 
ATOM      2  C   UNL     1       1.046   9.083  17.611  0.00  0.00    +0.000 A 
ATOM      3  C   UNL     1       1.891   7.990  17.551  0.00  0.00    +0.000 A 
ATOM      4  C   UNL     1       2.425   7.469  18.735  0.00  0.00    +0.000 A 
ATOM      5  C   UNL     1       2.027   7.966  19.975  0.00  0.00    +0.000 A 
ATOM      6  C   UNL     1       1.143   9.059  20.030  0.00  0.00    +0.000 A 
ENDROOT
BRANCH   4   7
ATOM      7  S   UNL     1       3.534   6.068  18.617  0.00  0.00    +0.000 S 
ATOM      8  O   UNL     1       4.002   6.022  17.249  0.00  0.00    +0.000 OA
ATOM      9  O   UNL     1       4.463   6.172  19.724  0.00  0.00    +0.000 OA
BRANCH   7  10
ATOM     10  N   UNL     1       2.519   4.715  18.899  0.00  0.00    +0.000 NA
ATOM     11  C   UNL     1       2.790   3.518  18.061  0.00  0.00    +0.000 C 
ATOM     12  C   UNL     1       1.710   2.454  18.229  0.00  0.00    +0.000 C 
ATOM     13  C   UNL     1       1.507   2.105  19.696  0.00  0.00    +0.000 C 
ATOM     14  C   UNL     1       1.135   3.364  20.465  0.00  0.00    +0.000 C 
ATOM     15  C   UNL     1       2.209   4.438  20.325  0.00  0.00    +0.000 C 
ENDBRANCH   7  10
ENDBRANCH   4   7
BRANCH   6  16
ATOM     16  S   UNL     1       0.658   9.612  21.673  0.00  0.00    +0.000 S 
ATOM     17  O   UNL     1      -0.703   9.150  21.854  0.00  0.00    +0.000 OA
ATOM     18  O   UNL     1       1.698   9.269  22.618  0.00  0.00    +0.000 OA
BRANCH  16  19
ATOM     19  N   UNL     1       0.630  11.321  21.567  0.00  0.00    +0.000 NA
ATOM     20  C   UNL     1       1.756  11.984  20.888  0.00  0.00    +0.000 C 
ATOM     21  C   UNL     1       1.581  13.459  20.534  0.00  0.00    +0.000 C 
ATOM     22  C   UNL     1       0.210  14.056  20.786  0.00  0.00    +0.000 C 
ATOM     23  C   UNL     1      -0.328  13.573  22.116  0.00  0.00    +0.000 C 
ATOM     24  C   UNL     1      -0.528  12.063  22.092  0.00  0.00    +0.000 C 
ENDBRANCH  16  19
ENDBRANCH   6  16
BRANCH   1  25
ATOM     25  O   UNL     1      -0.069  10.811  18.842  0.00  0.00    +0.000 OA
BRANCH  25  29
ATOM     26  C   UNL     1      -4.002  11.254  17.553  0.00  0.00    +0.000 A 
ATOM     27  C   UNL     1      -3.534  11.906  18.692  0.00  0.00    +0.000 A 
ATOM     28  C   UNL     1      -2.239  11.656  19.155  0.00  0.00    +0.000 A 
ATOM     29  C   UNL     1      -1.412  10.746  18.492  0.00  0.00    +0.000 A 
ATOM     30  C   UNL     1      -1.950   9.970  17.457  0.00  0.00    +0.000 A 
ATOM     31  C   UNL     1      -3.254  10.215  17.000  0.00  0.00    +0.000 A 
BRANCH  26  33
ATOM     32  C   UNL     1      -6.291  11.619  17.929  0.00  0.00    +0.000 C 
ATOM     33  O   UNL     1      -5.181  11.717  17.032  0.00  0.00    +0.000 OA
ENDBRANCH  26  33
ENDBRANCH  25  29
ENDBRANCH   1  25
TORSDOF 7
ENDMDL
MODEL 9
REMARK VINA RESULT:      -7.7      1.221      1.640
REMARK  Name = 
REMARK  8 active torsions:
REMARK  status: ('A' for Active; 'I' for Inactive)
REMARK    1  A    between atoms: C_1  and  O_2
REMARK    2  A    between atoms: O_2  and  C_3
REMARK    3  A    between atoms: C_6  and  O_7
REMARK    4  A    between atoms: O_7  and  C_8
REMARK    5  A    between atoms: C_11  and  S_12
REMARK    6  A    between atoms: S_12  and  N_15
REMARK    7  A    between atoms: C_22  and  S_23
REMARK    8  A    between atoms: S_23  and  N_26
REMARK                            x       y       z     vdW  Elec       q    Type
REMARK                         _______ _______ _______ _____ _____    ______ ____
ROOT
ATOM      1  C   UNL     1       2.706   7.089  17.900  0.00  0.00    +0.000 A 
ATOM      2  C   UNL     1       3.662   7.948  17.325  0.00  0.00    +0.000 A 
ATOM      3  C   UNL     1       4.897   7.478  16.916  0.00  0.00    +0.000 A 
ATOM      4  C   UNL     1       5.200   6.121  17.069  0.00  0.00    +0.000 A 
ATOM      5  C   UNL     1       4.236   5.222  17.520  0.00  0.00    +0.000 A 
ATOM      6  C   UNL     1       2.971   5.702  17.906  0.00  0.00    +0.000 A 
ENDROOT
BRANCH   4   7
ATOM      7  S   UNL     1       6.817   5.553  16.550  0.00  0.00    +0.000 S 
ATOM      8  O   UNL     1       7.700   6.698  16.613  0.00  0.00    +0.000 OA
ATOM      9  O   UNL     1       7.101   4.347  17.299  0.00  0.00    +0.000 OA
BRANCH   7  10
ATOM     10  N   UNL     1       6.594   5.120  14.906  0.00  0.00    +0.000 NA
ATOM     11  C   UNL     1       7.777   5.293  14.024  0.00  0.00    +0.000 C 
ATOM     12  C   UNL     1       7.422   5.090  12.554  0.00  0.00    +0.000 C 
ATOM     13  C   UNL     1       6.724   3.755  12.338  0.00  0.00    +0.000 C 
ATOM     14  C   UNL     1       5.471   3.698  13.199  0.00  0.00    +0.000 C 
ATOM     15  C   UNL     1       5.804   3.882  14.676  0.00  0.00    +0.000 C 
ENDBRANCH   7  10
ENDBRANCH   4   7
BRANCH   6  16
ATOM     16  S   UNL     1       1.778   4.465  18.446  0.00  0.00    +0.000 S 
ATOM     17  O   UNL     1       1.083   5.059  19.569  0.00  0.00    +0.000 OA
ATOM     18  O   UNL     1       1.056   3.967  17.295  0.00  0.00    +0.000 OA
BRANCH  16  19
ATOM     19  N   UNL     1       2.729   3.169  19.033  0.00  0.00    +0.000 NA
ATOM     20  C   UNL     1       2.930   2.010  18.148  0.00  0.00    +0.000 C 
ATOM     21  C   UNL     1       4.010   1.008  18.551  0.00  0.00    +0.000 C 
ATOM     22  C   UNL     1       4.867   1.383  19.745  0.00  0.00    +0.000 C 
ATOM     23  C   UNL     1       4.003   1.977  20.836  0.00  0.00    +0.000 C 
ATOM     24  C   UNL     1       3.362   3.274  20.359  0.00  0.00    +0.000 C 
ENDBRANCH  16  19
ENDBRANCH   6  16
BRANCH   1  25
ATOM     25  O   UNL     1       1.522   7.613  18.352  0.00  0.00    +0.000 OA
BRANCH  25  29
ATOM     26  C   UNL     1       0.745  10.233  21.492  0.00  0.00    +0.000 A 
ATOM     27  C   UNL     1       0.773  10.672  20.170  0.00  0.00    +0.000 A 
ATOM     28  C   UNL     1       1.137   9.789  19.149  0.00  0.00    +0.000 A 
ATOM     29  C   UNL     1       1.487   8.469  19.445  0.00  0.00    +0.000 A 
ATOM     30  C   UNL     1       1.625   8.089  20.786  0.00  0.00    +0.000 A 
ATOM     31  C   UNL     1       1.270   8.980  21.810  0.00  0.00    +0.000 A 
BRANCH  26  33
ATOM     32  C   UNL     1      -0.878  11.891  21.850  0.00  0.00    +0.000 C 
ATOM     33  O   UNL     1       0.163  11.077  22.398  0.00  0.00    +0.000 OA
ENDBRANCH  26  33
ENDBRANCH  25  29
ENDBRANCH   1  25
TORSDOF 7
ENDMDL
