MODEL 1
REMARK VINA RESULT:      -7.4      0.000      0.000
REMARK  Name = 
REMARK  7 active torsions:
REMARK  status: ('A' for Active; 'I' for Inactive)
REMARK    1  A    between atoms: C_1  and  O_2
REMARK    2  A    between atoms: O_2  and  C_3
REMARK    3  A    between atoms: C_7  and  C_8
REMARK    4  A    between atoms: N_13  and  C_14
REMARK    5  A    between atoms: C_14  and  C_15
REMARK    6  A    between atoms: C_15  and  C_16
REMARK    7  A    between atoms: C_16  and  C_17
REMARK                            x       y       z     vdW  Elec       q    Type
REMARK                         _______ _______ _______ _____ _____    ______ ____
ROOT
ATOM      1  C   UNL     1       2.784   7.343  17.850  0.00  0.00    +0.000 C 
ATOM      2  C   UNL     1       2.159   8.063  18.778  0.00  0.00    +0.000 C 
ATOM      3  S   UNL     1       1.894   7.580  20.399  0.00  0.00    +0.000 S 
ATOM      4  C   UNL     1       0.869   8.951  20.750  0.00  0.00    +0.000 C 
ATOM      5  S   UNL     1       0.144   9.073  22.247  0.00  0.00    +0.000 S 
ATOM      6  N   UNL     1       0.800   9.793  19.653  0.00  0.00    +0.000 N 
ATOM      7  C   UNL     1       1.520   9.386  18.524  0.00  0.00    +0.000 C 
ATOM      8  O   UNL     1       1.616   9.987  17.472  0.00  0.00    +0.000 OA
ENDROOT
BRANCH   1  13
ATOM      9  C   UNL     1       5.148   4.494  18.507  0.00  0.00    +0.000 A 
ATOM     10  C   UNL     1       4.310   3.397  18.290  0.00  0.00    +0.000 A 
ATOM     11  C   UNL     1       2.956   3.586  18.003  0.00  0.00    +0.000 A 
ATOM     12  C   UNL     1       2.442   4.879  17.900  0.00  0.00    +0.000 A 
ATOM     13  C   UNL     1       3.283   5.980  18.078  0.00  0.00    +0.000 A 
ATOM     14  C   UNL     1       4.621   5.785  18.426  0.00  0.00    +0.000 A 
BRANCH   9  16
ATOM     15  C   UNL     1       7.394   4.743  17.790  0.00  0.00    +0.000 C 
ATOM     16  O   UNL     1       6.467   4.196  18.724  0.00  0.00    +0.000 OA
ENDBRANCH   9  16
ENDBRANCH   1  13
BRANCH   6  17
ATOM     17  C   UNL     1       0.079  11.071  19.562  0.00  0.00    +0.000 C 
BRANCH  17  18
ATOM     18  C   UNL     1      -1.443  10.965  19.664  0.00  0.00    +0.000 C 
BRANCH  18  19
ATOM     19  C   UNL     1      -2.255  12.143  19.142  0.00  0.00    +0.000 C 
BRANCH  19  20
ATOM     20  C   UNL     1      -3.345  11.613  18.224  0.00  0.00    +0.000 C 
ATOM     21  O   UNL     1      -3.064  10.906  17.241  0.00  0.00    +0.000 OA
ATOM     22  N   UNL     1      -4.645  11.922  18.523  0.00  0.00    +0.000 N 
ATOM     23  C   UNL     1      -5.111  12.761  19.627  0.00  0.00    +0.000 C 
ATOM     24  C   UNL     1      -6.112  11.988  20.496  0.00  0.00    +0.000 C 
ATOM     25  O   UNL     1      -7.179  11.437  19.705  0.00  0.00    +0.000 OA
ATOM     26  C   UNL     1      -6.669  10.566  18.679  0.00  0.00    +0.000 C 
ATOM     27  C   UNL     1      -5.727  11.323  17.741  0.00  0.00    +0.000 C 
ENDBRANCH  19  20
ENDBRANCH  18  19
ENDBRANCH  17  18
ENDBRANCH   6  17
TORSDOF 6
ENDMDL
MODEL 2
REMARK VINA RESULT:      -7.3      3.405      4.962
REMARK  Name = 
REMARK  7 active torsions:
REMARK  status: ('A' for Active; 'I' for Inactive)
REMARK    1  A    between atoms: C_1  and  O_2
REMARK    2  A    between atoms: O_2  and  C_3
REMARK    3  A    between atoms: C_7  and  C_8
REMARK    4  A    between atoms: N_13  and  C_14
REMARK    5  A    between atoms: C_14  and  C_15
REMARK    6  A    between atoms: C_15  and  C_16
REMARK    7  A    between atoms: C_16  and  C_17
REMARK                            x       y       z     vdW  Elec       q    Type
REMARK                         _______ _______ _______ _____ _____    ______ ____
ROOT
ATOM      1  C   UNL     1       2.870   7.427  17.846  0.00  0.00    +0.000 C 
ATOM      2  C   UNL     1       2.167   8.104  18.751  0.00  0.00    +0.000 C 
ATOM      3  S   UNL     1       1.799   7.560  20.333  0.00  0.00    +0.000 S 
ATOM      4  C   UNL     1       0.724   8.899  20.654  0.00  0.00    +0.000 C 
ATOM      5  S   UNL     1      -0.107   8.957  22.100  0.00  0.00    +0.000 S 
ATOM      6  N   UNL     1       0.714   9.778  19.583  0.00  0.00    +0.000 N 
ATOM      7  C   UNL     1       1.519   9.423  18.496  0.00  0.00    +0.000 C 
ATOM      8  O   UNL     1       1.676  10.061  17.473  0.00  0.00    +0.000 OA
ENDROOT
BRANCH   1  13
ATOM      9  C   UNL     1       5.252   4.595  18.511  0.00  0.00    +0.000 A 
ATOM     10  C   UNL     1       4.432   3.492  18.258  0.00  0.00    +0.000 A 
ATOM     11  C   UNL     1       3.083   3.670  17.945  0.00  0.00    +0.000 A 
ATOM     12  C   UNL     1       2.555   4.959  17.850  0.00  0.00    +0.000 A 
ATOM     13  C   UNL     1       3.380   6.066  18.064  0.00  0.00    +0.000 A 
ATOM     14  C   UNL     1       4.712   5.881  18.438  0.00  0.00    +0.000 A 
BRANCH   9  16
ATOM     15  C   UNL     1       7.482   4.638  17.709  0.00  0.00    +0.000 C 
ATOM     16  O   UNL     1       6.570   4.309  18.751  0.00  0.00    +0.000 OA
ENDBRANCH   9  16
ENDBRANCH   1  13
BRANCH   6  17
ATOM     17  C   UNL     1      -0.026  11.044  19.484  0.00  0.00    +0.000 C 
BRANCH  17  18
ATOM     18  C   UNL     1       0.753  12.287  19.917  0.00  0.00    +0.000 C 
BRANCH  18  19
ATOM     19  C   UNL     1       0.533  13.557  19.108  0.00  0.00    +0.000 C 
BRANCH  19  20
ATOM     20  C   UNL     1       1.868  14.008  18.539  0.00  0.00    +0.000 C 
ATOM     21  O   UNL     1       2.667  13.186  18.060  0.00  0.00    +0.000 OA
ATOM     22  N   UNL     1       2.155  15.347  18.553  0.00  0.00    +0.000 N 
ATOM     23  C   UNL     1       1.321  16.413  19.108  0.00  0.00    +0.000 C 
ATOM     24  C   UNL     1       1.033  17.473  18.036  0.00  0.00    +0.000 C 
ATOM     25  O   UNL     1       2.247  17.952  17.431  0.00  0.00    +0.000 OA
ATOM     26  C   UNL     1       2.994  16.872  16.841  0.00  0.00    +0.000 C 
ATOM     27  C   UNL     1       3.370  15.831  17.896  0.00  0.00    +0.000 C 
ENDBRANCH  19  20
ENDBRANCH  18  19
ENDBRANCH  17  18
ENDBRANCH   6  17
TORSDOF 6
ENDMDL
MODEL 3
REMARK VINA RESULT:      -7.2      3.755      5.877
REMARK  Name = 
REMARK  7 active torsions:
REMARK  status: ('A' for Active; 'I' for Inactive)
REMARK    1  A    between atoms: C_1  and  O_2
REMARK    2  A    between atoms: O_2  and  C_3
REMARK    3  A    between atoms: C_7  and  C_8
REMARK    4  A    between atoms: N_13  and  C_14
REMARK    5  A    between atoms: C_14  and  C_15
REMARK    6  A    between atoms: C_15  and  C_16
REMARK    7  A    between atoms: C_16  and  C_17
REMARK                            x       y       z     vdW  Elec       q    Type
REMARK                         _______ _______ _______ _____ _____    ______ ____
ROOT
ATOM      1  C   UNL     1       3.024   7.103  17.911  0.00  0.00    +0.000 C 
ATOM      2  C   UNL     1       2.330   7.847  18.768  0.00  0.00    +0.000 C 
ATOM      3  S   UNL     1       1.870   7.375  20.349  0.00  0.00    +0.000 S 
ATOM      4  C   UNL     1       0.867   8.785  20.590  0.00  0.00    +0.000 C 
ATOM      5  S   UNL     1      -0.013   8.936  21.999  0.00  0.00    +0.000 S 
ATOM      6  N   UNL     1       0.951   9.629  19.495  0.00  0.00    +0.000 N 
ATOM      7  C   UNL     1       1.773   9.194  18.450  0.00  0.00    +0.000 C 
ATOM      8  O   UNL     1       2.007   9.790  17.417  0.00  0.00    +0.000 OA
ENDROOT
BRANCH   1  13
ATOM      9  C   UNL     1       2.898   3.362  18.270  0.00  0.00    +0.000 A 
ATOM     10  C   UNL     1       4.113   3.115  18.914  0.00  0.00    +0.000 A 
ATOM     11  C   UNL     1       5.007   4.158  19.163  0.00  0.00    +0.000 A 
ATOM     12  C   UNL     1       4.673   5.463  18.797  0.00  0.00    +0.000 A 
ATOM     13  C   UNL     1       3.442   5.722  18.188  0.00  0.00    +0.000 A 
ATOM     14  C   UNL     1       2.580   4.667  17.885  0.00  0.00    +0.000 A 
BRANCH   9  16
ATOM     15  C   UNL     1       0.819   2.354  18.798  0.00  0.00    +0.000 C 
ATOM     16  O   UNL     1       2.073   2.279  18.128  0.00  0.00    +0.000 OA
ENDBRANCH   9  16
ENDBRANCH   1  13
BRANCH   6  17
ATOM     17  C   UNL     1       0.293  10.933  19.330  0.00  0.00    +0.000 C 
BRANCH  17  18
ATOM     18  C   UNL     1       0.961  12.095  20.066  0.00  0.00    +0.000 C 
BRANCH  18  19
ATOM     19  C   UNL     1       2.048  12.854  19.318  0.00  0.00    +0.000 C 
BRANCH  19  20
ATOM     20  C   UNL     1       2.670  13.870  20.263  0.00  0.00    +0.000 C 
ATOM     21  O   UNL     1       3.074  13.530  21.388  0.00  0.00    +0.000 OA
ATOM     22  N   UNL     1       2.787  15.164  19.832  0.00  0.00    +0.000 N 
ATOM     23  C   UNL     1       2.331  15.702  18.550  0.00  0.00    +0.000 C 
ATOM     24  C   UNL     1       3.496  16.370  17.810  0.00  0.00    +0.000 C 
ATOM     25  O   UNL     1       4.155  17.344  18.637  0.00  0.00    +0.000 OA
ATOM     26  C   UNL     1       4.645  16.748  19.852  0.00  0.00    +0.000 C 
ATOM     27  C   UNL     1       3.498  16.139  20.660  0.00  0.00    +0.000 C 
ENDBRANCH  19  20
ENDBRANCH  18  19
ENDBRANCH  17  18
ENDBRANCH   6  17
TORSDOF 6
ENDMDL
MODEL 4
REMARK VINA RESULT:      -7.1      1.719      2.357
REMARK  Name = 
REMARK  7 active torsions:
REMARK  status: ('A' for Active; 'I' for Inactive)
REMARK    1  A    between atoms: C_1  and  O_2
REMARK    2  A    between atoms: O_2  and  C_3
REMARK    3  A    between atoms: C_7  and  C_8
REMARK    4  A    between atoms: N_13  and  C_14
REMARK    5  A    between atoms: C_14  and  C_15
REMARK    6  A    between atoms: C_15  and  C_16
REMARK    7  A    between atoms: C_16  and  C_17
REMARK                            x       y       z     vdW  Elec       q    Type
REMARK                         _______ _______ _______ _____ _____    ______ ____
ROOT
ATOM      1  C   UNL     1       2.546   6.699  18.021  0.00  0.00    +0.000 C 
ATOM      2  C   UNL     1       2.139   7.628  18.883  0.00  0.00    +0.000 C 
ATOM      3  S   UNL     1       1.719   7.349  20.519  0.00  0.00    +0.000 S 
ATOM      4  C   UNL     1       1.127   8.976  20.753  0.00  0.00    +0.000 C 
ATOM      5  S   UNL     1       0.442   9.399  22.214  0.00  0.00    +0.000 S 
ATOM      6  N   UNL     1       1.321   9.729  19.606  0.00  0.00    +0.000 N 
ATOM      7  C   UNL     1       1.911   9.059  18.529  0.00  0.00    +0.000 C 
ATOM      8  O   UNL     1       2.194   9.536  17.448  0.00  0.00    +0.000 OA
ENDROOT
BRANCH   1  13
ATOM      9  C   UNL     1       3.910   3.403  19.209  0.00  0.00    +0.000 A 
ATOM     10  C   UNL     1       2.913   2.528  18.769  0.00  0.00    +0.000 A 
ATOM     11  C   UNL     1       1.761   3.020  18.153  0.00  0.00    +0.000 A 
ATOM     12  C   UNL     1       1.616   4.392  17.943  0.00  0.00    +0.000 A 
ATOM     13  C   UNL     1       2.627   5.269  18.346  0.00  0.00    +0.000 A 
ATOM     14  C   UNL     1       3.748   4.777  19.018  0.00  0.00    +0.000 A 
BRANCH   9  16
ATOM     15  C   UNL     1       4.792   1.646  20.533  0.00  0.00    +0.000 C 
ATOM     16  O   UNL     1       5.021   2.811  19.747  0.00  0.00    +0.000 OA
ENDBRANCH   9  16
ENDBRANCH   1  13
BRANCH   6  17
ATOM     17  C   UNL     1       0.999  11.150  19.416  0.00  0.00    +0.000 C 
BRANCH  17  18
ATOM     18  C   UNL     1      -0.344  11.595  19.997  0.00  0.00    +0.000 C 
BRANCH  18  19
ATOM     19  C   UNL     1      -1.162  12.578  19.172  0.00  0.00    +0.000 C 
BRANCH  19  20
ATOM     20  C   UNL     1      -2.616  12.132  19.187  0.00  0.00    +0.000 C 
ATOM     21  O   UNL     1      -3.396  12.529  20.068  0.00  0.00    +0.000 OA
ATOM     22  N   UNL     1      -3.043  11.296  18.190  0.00  0.00    +0.000 N 
ATOM     23  C   UNL     1      -2.228  10.735  17.112  0.00  0.00    +0.000 C 
ATOM     24  C   UNL     1      -2.835  11.090  15.748  0.00  0.00    +0.000 C 
ATOM     25  O   UNL     1      -4.221  10.712  15.675  0.00  0.00    +0.000 OA
ATOM     26  C   UNL     1      -4.988  11.346  16.715  0.00  0.00    +0.000 C 
ATOM     27  C   UNL     1      -4.462  10.951  18.096  0.00  0.00    +0.000 C 
ENDBRANCH  19  20
ENDBRANCH  18  19
ENDBRANCH  17  18
ENDBRANCH   6  17
TORSDOF 6
ENDMDL
MODEL 5
REMARK VINA RESULT:      -7.1      1.371      2.007
REMARK  Name = 
REMARK  7 active torsions:
REMARK  status: ('A' for Active; 'I' for Inactive)
REMARK    1  A    between atoms: C_1  and  O_2
REMARK    2  A    between atoms: O_2  and  C_3
REMARK    3  A    between atoms: C_7  and  C_8
REMARK    4  A    between atoms: N_13  and  C_14
REMARK    5  A    between atoms: C_14  and  C_15
REMARK    6  A    between atoms: C_15  and  C_16
REMARK    7  A    between atoms: C_16  and  C_17
REMARK                            x       y       z     vdW  Elec       q    Type
REMARK                         _______ _______ _______ _____ _____    ______ ____
ROOT
ATOM      1  C   UNL     1       2.678   7.647  17.982  0.00  0.00    +0.000 C 
ATOM      2  C   UNL     1       2.050   8.455  18.833  0.00  0.00    +0.000 C 
ATOM      3  S   UNL     1       1.518   8.025  20.403  0.00  0.00    +0.000 S 
ATOM      4  C   UNL     1       0.664   9.531  20.638  0.00  0.00    +0.000 C 
ATOM      5  S   UNL     1      -0.219   9.765  22.035  0.00  0.00    +0.000 S 
ATOM      6  N   UNL     1       0.853  10.367  19.551  0.00  0.00    +0.000 N 
ATOM      7  C   UNL     1       1.643   9.854  18.516  0.00  0.00    +0.000 C 
ATOM      8  O   UNL     1       1.955  10.428  17.491  0.00  0.00    +0.000 OA
ENDROOT
BRANCH   1  13
ATOM      9  C   UNL     1       2.170   3.932  18.270  0.00  0.00    +0.000 A 
ATOM     10  C   UNL     1       3.321   3.560  18.969  0.00  0.00    +0.000 A 
ATOM     11  C   UNL     1       4.298   4.507  19.281  0.00  0.00    +0.000 A 
ATOM     12  C   UNL     1       4.111   5.843  18.922  0.00  0.00    +0.000 A 
ATOM     13  C   UNL     1       2.945   6.228  18.256  0.00  0.00    +0.000 A 
ATOM     14  C   UNL     1       2.001   5.267  17.892  0.00  0.00    +0.000 A 
BRANCH   9  16
ATOM     15  C   UNL     1       1.332   1.822  18.951  0.00  0.00    +0.000 C 
ATOM     16  O   UNL     1       1.252   2.937  18.068  0.00  0.00    +0.000 OA
ENDBRANCH   9  16
ENDBRANCH   1  13
BRANCH   6  17
ATOM     17  C   UNL     1       0.338  11.734  19.385  0.00  0.00    +0.000 C 
BRANCH  17  18
ATOM     18  C   UNL     1      -0.918  11.854  18.521  0.00  0.00    +0.000 C 
BRANCH  18  19
ATOM     19  C   UNL     1      -2.253  11.930  19.248  0.00  0.00    +0.000 C 
BRANCH  19  20
ATOM     20  C   UNL     1      -3.355  11.525  18.282  0.00  0.00    +0.000 C 
ATOM     21  O   UNL     1      -3.099  10.860  17.264  0.00  0.00    +0.000 OA
ATOM     22  N   UNL     1      -4.639  11.901  18.576  0.00  0.00    +0.000 N 
ATOM     23  C   UNL     1      -5.074  12.703  19.720  0.00  0.00    +0.000 C 
ATOM     24  C   UNL     1      -6.139  11.947  20.524  0.00  0.00    +0.000 C 
ATOM     25  O   UNL     1      -7.223  11.513  19.683  0.00  0.00    +0.000 OA
ATOM     26  C   UNL     1      -6.748  10.671  18.616  0.00  0.00    +0.000 C 
ATOM     27  C   UNL     1      -5.740  11.419  17.742  0.00  0.00    +0.000 C 
ENDBRANCH  19  20
ENDBRANCH  18  19
ENDBRANCH  17  18
ENDBRANCH   6  17
TORSDOF 6
ENDMDL
MODEL 6
REMARK VINA RESULT:      -7.1      1.459      2.091
REMARK  Name = 
REMARK  7 active torsions:
REMARK  status: ('A' for Active; 'I' for Inactive)
REMARK    1  A    between atoms: C_1  and  O_2
REMARK    2  A    between atoms: O_2  and  C_3
REMARK    3  A    between atoms: C_7  and  C_8
REMARK    4  A    between atoms: N_13  and  C_14
REMARK    5  A    between atoms: C_14  and  C_15
REMARK    6  A    between atoms: C_15  and  C_16
REMARK    7  A    between atoms: C_16  and  C_17
REMARK                            x       y       z     vdW  Elec       q    Type
REMARK                         _______ _______ _______ _____ _____    ______ ____
ROOT
ATOM      1  C   UNL     1       2.920   7.001  18.154  0.00  0.00    +0.000 C 
ATOM      2  C   UNL     1       2.225   7.839  18.919  0.00  0.00    +0.000 C 
ATOM      3  S   UNL     1       1.751   7.545  20.538  0.00  0.00    +0.000 S 
ATOM      4  C   UNL     1       0.757   8.980  20.616  0.00  0.00    +0.000 C 
ATOM      5  S   UNL     1      -0.132   9.289  21.994  0.00  0.00    +0.000 S 
ATOM      6  N   UNL     1       0.855   9.699  19.436  0.00  0.00    +0.000 N 
ATOM      7  C   UNL     1       1.681   9.146  18.452  0.00  0.00    +0.000 C 
ATOM      8  O   UNL     1       1.927   9.625  17.362  0.00  0.00    +0.000 OA
ENDROOT
BRANCH   1  13
ATOM      9  C   UNL     1       2.716   3.483  19.467  0.00  0.00    +0.000 A 
ATOM     10  C   UNL     1       4.071   3.177  19.619  0.00  0.00    +0.000 A 
ATOM     11  C   UNL     1       5.052   4.088  19.223  0.00  0.00    +0.000 A 
ATOM     12  C   UNL     1       4.679   5.328  18.702  0.00  0.00    +0.000 A 
ATOM     13  C   UNL     1       3.326   5.655  18.583  0.00  0.00    +0.000 A 
ATOM     14  C   UNL     1       2.351   4.717  18.922  0.00  0.00    +0.000 A 
BRANCH   9  16
ATOM     15  C   UNL     1       1.500   2.643  21.320  0.00  0.00    +0.000 C 
ATOM     16  O   UNL     1       1.840   2.543  19.940  0.00  0.00    +0.000 OA
ENDBRANCH   9  16
ENDBRANCH   1  13
BRANCH   6  17
ATOM     17  C   UNL     1       0.208  10.981  19.125  0.00  0.00    +0.000 C 
BRANCH  17  18
ATOM     18  C   UNL     1      -1.245  10.880  18.658  0.00  0.00    +0.000 C 
BRANCH  18  19
ATOM     19  C   UNL     1      -2.233  11.875  19.250  0.00  0.00    +0.000 C 
BRANCH  19  20
ATOM     20  C   UNL     1      -3.597  11.635  18.624  0.00  0.00    +0.000 C 
ATOM     21  O   UNL     1      -3.727  10.882  17.645  0.00  0.00    +0.000 OA
ATOM     22  N   UNL     1      -4.681  12.259  19.183  0.00  0.00    +0.000 N 
ATOM     23  C   UNL     1      -4.667  13.187  20.315  0.00  0.00    +0.000 C 
ATOM     24  C   UNL     1      -5.602  12.687  21.423  0.00  0.00    +0.000 C 
ATOM     25  O   UNL     1      -6.922  12.421  20.917  0.00  0.00    +0.000 OA
ATOM     26  C   UNL     1      -6.885  11.451  19.854  0.00  0.00    +0.000 C 
ATOM     27  C   UNL     1      -6.024  11.950  18.692  0.00  0.00    +0.000 C 
ENDBRANCH  19  20
ENDBRANCH  18  19
ENDBRANCH  17  18
ENDBRANCH   6  17
TORSDOF 6
ENDMDL
MODEL 7
REMARK VINA RESULT:      -7.1      2.295      2.774
REMARK  Name = 
REMARK  7 active torsions:
REMARK  status: ('A' for Active; 'I' for Inactive)
REMARK    1  A    between atoms: C_1  and  O_2
REMARK    2  A    between atoms: O_2  and  C_3
REMARK    3  A    between atoms: C_7  and  C_8
REMARK    4  A    between atoms: N_13  and  C_14
REMARK    5  A    between atoms: C_14  and  C_15
REMARK    6  A    between atoms: C_15  and  C_16
REMARK    7  A    between atoms: C_16  and  C_17
REMARK                            x       y       z     vdW  Elec       q    Type
REMARK                         _______ _______ _______ _____ _____    ______ ____
ROOT
ATOM      1  C   UNL     1       2.756   7.432  17.901  0.00  0.00    +0.000 C 
ATOM      2  C   UNL     1       2.121   8.171  18.807  0.00  0.00    +0.000 C 
ATOM      3  S   UNL     1       1.755   7.684  20.408  0.00  0.00    +0.000 S 
ATOM      4  C   UNL     1       0.780   9.099  20.726  0.00  0.00    +0.000 C 
ATOM      5  S   UNL     1      -0.010   9.239  22.188  0.00  0.00    +0.000 S 
ATOM      6  N   UNL     1       0.804   9.955  19.637  0.00  0.00    +0.000 N 
ATOM      7  C   UNL     1       1.557   9.526  18.539  0.00  0.00    +0.000 C 
ATOM      8  O   UNL     1       1.732  10.132  17.501  0.00  0.00    +0.000 OA
ENDROOT
BRANCH   1  13
ATOM      9  C   UNL     1       4.952   4.466  18.620  0.00  0.00    +0.000 A 
ATOM     10  C   UNL     1       4.069   3.413  18.363  0.00  0.00    +0.000 A 
ATOM     11  C   UNL     1       2.739   3.670  18.028  0.00  0.00    +0.000 A 
ATOM     12  C   UNL     1       2.292   4.987  17.917  0.00  0.00    +0.000 A 
ATOM     13  C   UNL     1       3.179   6.045  18.136  0.00  0.00    +0.000 A 
ATOM     14  C   UNL     1       4.491   5.781  18.531  0.00  0.00    +0.000 A 
BRANCH   9  16
ATOM     15  C   UNL     1       7.243   4.696  18.057  0.00  0.00    +0.000 C 
ATOM     16  O   UNL     1       6.245   4.102  18.883  0.00  0.00    +0.000 OA
ENDBRANCH   9  16
ENDBRANCH   1  13
BRANCH   6  17
ATOM     17  C   UNL     1       0.148  11.266  19.528  0.00  0.00    +0.000 C 
BRANCH  17  18
ATOM     18  C   UNL     1       0.602  12.307  20.551  0.00  0.00    +0.000 C 
BRANCH  18  19
ATOM     19  C   UNL     1      -0.406  13.377  20.944  0.00  0.00    +0.000 C 
BRANCH  19  20
ATOM     20  C   UNL     1      -1.065  12.968  22.252  0.00  0.00    +0.000 C 
ATOM     21  O   UNL     1      -0.435  13.005  23.322  0.00  0.00    +0.000 OA
ATOM     22  N   UNL     1      -2.376  12.574  22.217  0.00  0.00    +0.000 N 
ATOM     23  C   UNL     1      -3.222  12.458  21.028  0.00  0.00    +0.000 C 
ATOM     24  C   UNL     1      -4.488  13.307  21.194  0.00  0.00    +0.000 C 
ATOM     25  O   UNL     1      -5.175  12.994  22.418  0.00  0.00    +0.000 OA
ATOM     26  C   UNL     1      -4.320  13.191  23.559  0.00  0.00    +0.000 C 
ATOM     27  C   UNL     1      -3.080  12.300  23.470  0.00  0.00    +0.000 C 
ENDBRANCH  19  20
ENDBRANCH  18  19
ENDBRANCH  17  18
ENDBRANCH   6  17
TORSDOF 6
ENDMDL
MODEL 8
REMARK VINA RESULT:      -7.0      3.460      5.517
REMARK  Name = 
REMARK  7 active torsions:
REMARK  status: ('A' for Active; 'I' for Inactive)
REMARK    1  A    between atoms: C_1  and  O_2
REMARK    2  A    between atoms: O_2  and  C_3
REMARK    3  A    between atoms: C_7  and  C_8
REMARK    4  A    between atoms: N_13  and  C_14
REMARK    5  A    between atoms: C_14  and  C_15
REMARK    6  A    between atoms: C_15  and  C_16
REMARK    7  A    between atoms: C_16  and  C_17
REMARK                            x       y       z     vdW  Elec       q    Type
REMARK                         _______ _______ _______ _____ _____    ______ ____
ROOT
ATOM      1  C   UNL     1       2.437   7.593  18.134  0.00  0.00    +0.000 C 
ATOM      2  C   UNL     1       1.852   8.307  19.091  0.00  0.00    +0.000 C 
ATOM      3  S   UNL     1       1.584   7.783  20.700  0.00  0.00    +0.000 S 
ATOM      4  C   UNL     1       0.620   9.183  21.105  0.00  0.00    +0.000 C 
ATOM      5  S   UNL     1      -0.084   9.286  22.614  0.00  0.00    +0.000 S 
ATOM      6  N   UNL     1       0.574  10.062  20.036  0.00  0.00    +0.000 N 
ATOM      7  C   UNL     1       1.264   9.662  18.886  0.00  0.00    +0.000 C 
ATOM      8  O   UNL     1       1.373  10.292  17.853  0.00  0.00    +0.000 OA
ENDROOT
BRANCH   1  13
ATOM      9  C   UNL     1       4.674   4.638  18.773  0.00  0.00    +0.000 A 
ATOM     10  C   UNL     1       3.822   3.582  18.438  0.00  0.00    +0.000 A 
ATOM     11  C   UNL     1       2.496   3.829  18.078  0.00  0.00    +0.000 A 
ATOM     12  C   UNL     1       2.025   5.141  18.017  0.00  0.00    +0.000 A 
ATOM     13  C   UNL     1       2.883   6.204  18.313  0.00  0.00    +0.000 A 
ATOM     14  C   UNL     1       4.189   5.947  18.734  0.00  0.00    +0.000 A 
BRANCH   9  16
ATOM     15  C   UNL     1       6.854   5.360  19.359  0.00  0.00    +0.000 C 
ATOM     16  O   UNL     1       5.967   4.288  19.055  0.00  0.00    +0.000 OA
ENDBRANCH   9  16
ENDBRANCH   1  13
BRANCH   6  17
ATOM     17  C   UNL     1      -0.096  11.370  19.993  0.00  0.00    +0.000 C 
BRANCH  17  18
ATOM     18  C   UNL     1       0.604  12.484  20.772  0.00  0.00    +0.000 C 
BRANCH  18  19
ATOM     19  C   UNL     1       1.977  12.917  20.278  0.00  0.00    +0.000 C 
BRANCH  19  20
ATOM     20  C   UNL     1       2.310  14.267  20.890  0.00  0.00    +0.000 C 
ATOM     21  O   UNL     1       2.449  14.394  22.119  0.00  0.00    +0.000 OA
ATOM     22  N   UNL     1       2.471  15.334  20.048  0.00  0.00    +0.000 N 
ATOM     23  C   UNL     1       2.311  15.331  18.593  0.00  0.00    +0.000 C 
ATOM     24  C   UNL     1       3.590  15.842  17.918  0.00  0.00    +0.000 C 
ATOM     25  O   UNL     1       3.990  17.118  18.447  0.00  0.00    +0.000 OA
ATOM     26  C   UNL     1       4.201  17.049  19.869  0.00  0.00    +0.000 C 
ATOM     27  C   UNL     1       2.921  16.618  20.587  0.00  0.00    +0.000 C 
ENDBRANCH  19  20
ENDBRANCH  18  19
ENDBRANCH  17  18
ENDBRANCH   6  17
TORSDOF 6
ENDMDL
MODEL 9
REMARK VINA RESULT:      -7.0      2.481      3.744
REMARK  Name = 
REMARK  7 active torsions:
REMARK  status: ('A' for Active; 'I' for Inactive)
REMARK    1  A    between atoms: C_1  and  O_2
REMARK    2  A    between atoms: O_2  and  C_3
REMARK    3  A    between atoms: C_7  and  C_8
REMARK    4  A    between atoms: N_13  and  C_14
REMARK    5  A    between atoms: C_14  and  C_15
REMARK    6  A    between atoms: C_15  and  C_16
REMARK    7  A    between atoms: C_16  and  C_17
REMARK                            x       y       z     vdW  Elec       q    Type
REMARK                         _______ _______ _______ _____ _____    ______ ____
ROOT
ATOM      1  C   UNL     1       3.034   7.005  17.851  0.00  0.00    +0.000 C 
ATOM      2  C   UNL     1       2.392   7.787  18.715  0.00  0.00    +0.000 C 
ATOM      3  S   UNL     1       1.971   7.359  20.319  0.00  0.00    +0.000 S 
ATOM      4  C   UNL     1       1.020   8.804  20.565  0.00  0.00    +0.000 C 
ATOM      5  S   UNL     1       0.193   9.008  21.999  0.00  0.00    +0.000 S 
ATOM      6  N   UNL     1       1.093   9.624  19.451  0.00  0.00    +0.000 N 
ATOM      7  C   UNL     1       1.866   9.144  18.389  0.00  0.00    +0.000 C 
ATOM      8  O   UNL     1       2.083   9.713  17.337  0.00  0.00    +0.000 OA
ENDROOT
BRANCH   1  13
ATOM      9  C   UNL     1       2.804   3.278  18.295  0.00  0.00    +0.000 A 
ATOM     10  C   UNL     1       4.036   3.005  18.896  0.00  0.00    +0.000 A 
ATOM     11  C   UNL     1       4.971   4.024  19.088  0.00  0.00    +0.000 A 
ATOM     12  C   UNL     1       4.664   5.331  18.707  0.00  0.00    +0.000 A 
ATOM     13  C   UNL     1       3.419   5.617  18.141  0.00  0.00    +0.000 A 
ATOM     14  C   UNL     1       2.513   4.584  17.894  0.00  0.00    +0.000 A 
BRANCH   9  16
ATOM     15  C   UNL     1       0.640   2.425  18.751  0.00  0.00    +0.000 C 
ATOM     16  O   UNL     1       1.941   2.219  18.208  0.00  0.00    +0.000 OA
ENDBRANCH   9  16
ENDBRANCH   1  13
BRANCH   6  17
ATOM     17  C   UNL     1       0.470  10.944  19.282  0.00  0.00    +0.000 C 
BRANCH  17  18
ATOM     18  C   UNL     1      -0.966  10.923  18.757  0.00  0.00    +0.000 C 
BRANCH  18  19
ATOM     19  C   UNL     1      -1.648  12.269  18.553  0.00  0.00    +0.000 C 
BRANCH  19  20
ATOM     20  C   UNL     1      -2.308  12.681  19.858  0.00  0.00    +0.000 C 
ATOM     21  O   UNL     1      -3.394  12.189  20.208  0.00  0.00    +0.000 OA
ATOM     22  N   UNL     1      -1.662  13.598  20.645  0.00  0.00    +0.000 N 
ATOM     23  C   UNL     1      -0.400  14.273  20.342  0.00  0.00    +0.000 C 
ATOM     24  C   UNL     1       0.614  14.033  21.469  0.00  0.00    +0.000 C 
ATOM     25  O   UNL     1       0.067  14.388  22.751  0.00  0.00    +0.000 OA
ATOM     26  C   UNL     1      -1.134  13.645  23.028  0.00  0.00    +0.000 C 
ATOM     27  C   UNL     1      -2.200  13.920  21.967  0.00  0.00    +0.000 C 
ENDBRANCH  19  20
ENDBRANCH  18  19
ENDBRANCH  17  18
ENDBRANCH   6  17
TORSDOF 6
ENDMDL
