MODEL 1
REMARK VINA RESULT:      -5.7      0.000      0.000
REMARK  Name = 
REMARK  6 active torsions:
REMARK  status: ('A' for Active; 'I' for Inactive)
REMARK    1  A    between atoms: C_1  and  C_2
REMARK    2  A    between atoms: C_2  and  C_3
REMARK    3  A    between atoms: C_2  and  C_4
REMARK    4  A    between atoms: C_2  and  O_5
REMARK    5  A    between atoms: O_5  and  C_6
REMARK    6  A    between atoms: C_17  and  C_18
REMARK                            x       y       z     vdW  Elec       q    Type
REMARK                         _______ _______ _______ _____ _____    ______ ____
ROOT
ATOM      1  C   UNL     1       0.353   9.529  19.310  0.00  0.00    +0.000 C 
ATOM      2  O   UNL     1       0.027   9.918  18.194  0.00  0.00    +0.000 OA
ATOM      3  N   UNL     1       1.456   8.715  19.489  0.00  0.00    +0.000 N 
ATOM      4  C   UNL     1       1.879   8.162  20.766  0.00  0.00    +0.000 C 
ATOM      5  C   UNL     1       1.343   6.760  21.032  0.00  0.00    +0.000 C 
ATOM      6  C   UNL     1       1.614   5.676  19.981  0.00  0.00    +0.000 C 
ATOM      7  N   UNL     1       2.625   5.992  18.978  0.00  0.00    +0.000 N 
ATOM      8  C   UNL     1       3.758   5.175  18.885  0.00  0.00    +0.000 C 
ATOM      9  O   UNL     1       3.968   4.140  19.505  0.00  0.00    +0.000 OA
ATOM     10  N   UNL     1       4.711   5.585  17.921  0.00  0.00    +0.000 N 
ATOM     11  C   UNL     1       5.264   4.824  16.908  0.00  0.00    +0.000 A 
ATOM     12  C   UNL     1       6.184   5.618  16.261  0.00  0.00    +0.000 A 
ATOM     13  C   UNL     1       6.151   6.835  16.962  0.00  0.00    +0.000 A 
ATOM     14  N   UNL     1       5.237   6.850  17.936  0.00  0.00    +0.000 NA
ATOM     15  C   UNL     1       2.189   6.914  17.915  0.00  0.00    +0.000 C 
ATOM     16  C   UNL     1       2.268   8.384  18.315  0.00  0.00    +0.000 C 
ENDROOT
BRANCH  12  17
ATOM     17  C   UNL     1       6.968   5.282  15.117  0.00  0.00    +0.000 C 
ATOM     18  N   UNL     1       7.633   5.025  14.193  0.00  0.00    +0.000 NA
ENDBRANCH  12  17
BRANCH   1  19
ATOM     19  O   UNL     1      -0.313   9.863  20.463  0.00  0.00    +0.000 OA
BRANCH  19  21
ATOM     20  C   UNL     1      -1.405  12.043  20.118  0.00  0.00    +0.000 C 
ATOM     21  C   UNL     1      -0.313  11.265  20.865  0.00  0.00    +0.000 C 
ATOM     22  C   UNL     1       1.077  11.889  20.644  0.00  0.00    +0.000 C 
ATOM     23  C   UNL     1      -0.655  11.361  22.368  0.00  0.00    +0.000 C 
ENDBRANCH  19  21
ENDBRANCH   1  19
TORSDOF 3
ENDMDL
MODEL 2
REMARK VINA RESULT:      -5.7      1.355      1.620
REMARK  Name = 
REMARK  6 active torsions:
REMARK  status: ('A' for Active; 'I' for Inactive)
REMARK    1  A    between atoms: C_1  and  C_2
REMARK    2  A    between atoms: C_2  and  C_3
REMARK    3  A    between atoms: C_2  and  C_4
REMARK    4  A    between atoms: C_2  and  O_5
REMARK    5  A    between atoms: O_5  and  C_6
REMARK    6  A    between atoms: C_17  and  C_18
REMARK                            x       y       z     vdW  Elec       q    Type
REMARK                         _______ _______ _______ _____ _____    ______ ____
ROOT
ATOM      1  C   UNL     1       1.022   8.469  20.027  0.00  0.00    +0.000 C 
ATOM      2  O   UNL     1       0.855   9.326  19.166  0.00  0.00    +0.000 OA
ATOM      3  N   UNL     1       1.961   7.467  19.865  0.00  0.00    +0.000 N 
ATOM      4  C   UNL     1       2.185   6.381  20.806  0.00  0.00    +0.000 C 
ATOM      5  C   UNL     1       1.409   5.112  20.470  0.00  0.00    +0.000 C 
ATOM      6  C   UNL     1       1.586   4.512  19.070  0.00  0.00    +0.000 C 
ATOM      7  N   UNL     1       2.713   5.017  18.292  0.00  0.00    +0.000 N 
ATOM      8  C   UNL     1       3.703   4.116  17.882  0.00  0.00    +0.000 C 
ATOM      9  O   UNL     1       3.693   2.900  18.024  0.00  0.00    +0.000 OA
ATOM     10  N   UNL     1       4.785   4.700  17.178  0.00  0.00    +0.000 N 
ATOM     11  C   UNL     1       5.289   4.324  15.946  0.00  0.00    +0.000 A 
ATOM     12  C   UNL     1       6.374   5.131  15.689  0.00  0.00    +0.000 A 
ATOM     13  C   UNL     1       6.481   5.947  16.827  0.00  0.00    +0.000 A 
ATOM     14  N   UNL     1       5.505   5.735  17.715  0.00  0.00    +0.000 NA
ATOM     15  C   UNL     1       2.520   6.351  17.697  0.00  0.00    +0.000 C 
ATOM     16  C   UNL     1       2.802   7.495  18.665  0.00  0.00    +0.000 C 
ENDROOT
BRANCH  12  17
ATOM     17  C   UNL     1       7.183   5.148  14.514  0.00  0.00    +0.000 C 
ATOM     18  N   UNL     1       7.865   5.182  13.567  0.00  0.00    +0.000 NA
ENDBRANCH  12  17
BRANCH   1  19
ATOM     19  O   UNL     1       0.328   8.425  21.210  0.00  0.00    +0.000 OA
BRANCH  19  21
ATOM     20  C   UNL     1       0.351  10.877  21.439  0.00  0.00    +0.000 C 
ATOM     21  C   UNL     1       0.516   9.527  22.148  0.00  0.00    +0.000 C 
ATOM     22  C   UNL     1       1.886   9.415  22.842  0.00  0.00    +0.000 C 
ATOM     23  C   UNL     1      -0.583   9.461  23.232  0.00  0.00    +0.000 C 
ENDBRANCH  19  21
ENDBRANCH   1  19
TORSDOF 3
ENDMDL
MODEL 3
REMARK VINA RESULT:      -5.5      0.955      1.004
REMARK  Name = 
REMARK  6 active torsions:
REMARK  status: ('A' for Active; 'I' for Inactive)
REMARK    1  A    between atoms: C_1  and  C_2
REMARK    2  A    between atoms: C_2  and  C_3
REMARK    3  A    between atoms: C_2  and  C_4
REMARK    4  A    between atoms: C_2  and  O_5
REMARK    5  A    between atoms: O_5  and  C_6
REMARK    6  A    between atoms: C_17  and  C_18
REMARK                            x       y       z     vdW  Elec       q    Type
REMARK                         _______ _______ _______ _____ _____    ______ ____
ROOT
ATOM      1  C   UNL     1       0.015   9.951  18.826  0.00  0.00    +0.000 C 
ATOM      2  O   UNL     1      -0.538   9.976  17.732  0.00  0.00    +0.000 OA
ATOM      3  N   UNL     1       1.178   9.228  19.021  0.00  0.00    +0.000 N 
ATOM      4  C   UNL     1       1.867   9.097  20.295  0.00  0.00    +0.000 C 
ATOM      5  C   UNL     1       1.473   7.848  21.077  0.00  0.00    +0.000 C 
ATOM      6  C   UNL     1       1.602   6.491  20.375  0.00  0.00    +0.000 C 
ATOM      7  N   UNL     1       2.384   6.477  19.143  0.00  0.00    +0.000 N 
ATOM      8  C   UNL     1       3.525   5.667  19.081  0.00  0.00    +0.000 C 
ATOM      9  O   UNL     1       3.909   4.874  19.931  0.00  0.00    +0.000 OA
ATOM     10  N   UNL     1       4.252   5.755  17.868  0.00  0.00    +0.000 N 
ATOM     11  C   UNL     1       4.647   4.715  17.046  0.00  0.00    +0.000 A 
ATOM     12  C   UNL     1       5.379   5.266  16.020  0.00  0.00    +0.000 A 
ATOM     13  C   UNL     1       5.409   6.640  16.309  0.00  0.00    +0.000 A 
ATOM     14  N   UNL     1       4.697   6.960  17.393  0.00  0.00    +0.000 NA
ATOM     15  C   UNL     1       1.702   7.025  17.958  0.00  0.00    +0.000 C 
ATOM     16  C   UNL     1       1.771   8.546  17.868  0.00  0.00    +0.000 C 
ENDROOT
BRANCH  12  17
ATOM     17  C   UNL     1       5.950   4.589  14.901  0.00  0.00    +0.000 C 
ATOM     18  N   UNL     1       6.433   4.061  13.979  0.00  0.00    +0.000 NA
ENDBRANCH  12  17
BRANCH   1  19
ATOM     19  O   UNL     1      -0.438  10.628  19.930  0.00  0.00    +0.000 OA
BRANCH  19  21
ATOM     20  C   UNL     1      -1.631  12.748  19.544  0.00  0.00    +0.000 C 
ATOM     21  C   UNL     1      -0.306  12.081  19.937  0.00  0.00    +0.000 C 
ATOM     22  C   UNL     1       0.845  12.522  19.014  0.00  0.00    +0.000 C 
ATOM     23  C   UNL     1       0.016  12.553  21.372  0.00  0.00    +0.000 C 
ENDBRANCH  19  21
ENDBRANCH   1  19
TORSDOF 3
ENDMDL
MODEL 4
REMARK VINA RESULT:      -5.5      2.824      4.002
REMARK  Name = 
REMARK  6 active torsions:
REMARK  status: ('A' for Active; 'I' for Inactive)
REMARK    1  A    between atoms: C_1  and  C_2
REMARK    2  A    between atoms: C_2  and  C_3
REMARK    3  A    between atoms: C_2  and  C_4
REMARK    4  A    between atoms: C_2  and  O_5
REMARK    5  A    between atoms: O_5  and  C_6
REMARK    6  A    between atoms: C_17  and  C_18
REMARK                            x       y       z     vdW  Elec       q    Type
REMARK                         _______ _______ _______ _____ _____    ______ ____
ROOT
ATOM      1  C   UNL     1      -0.613  10.533  22.148  0.00  0.00    +0.000 C 
ATOM      2  O   UNL     1      -0.140  10.370  23.268  0.00  0.00    +0.000 OA
ATOM      3  N   UNL     1      -0.309   9.669  21.113  0.00  0.00    +0.000 N 
ATOM      4  C   UNL     1      -0.778   9.819  19.745  0.00  0.00    +0.000 C 
ATOM      5  C   UNL     1       0.204  10.556  18.841  0.00  0.00    +0.000 C 
ATOM      6  C   UNL     1       1.638  10.019  18.749  0.00  0.00    +0.000 C 
ATOM      7  N   UNL     1       1.856   8.677  19.278  0.00  0.00    +0.000 N 
ATOM      8  C   UNL     1       2.328   7.682  18.413  0.00  0.00    +0.000 C 
ATOM      9  O   UNL     1       2.677   7.829  17.248  0.00  0.00    +0.000 OA
ATOM     10  N   UNL     1       2.461   6.399  18.997  0.00  0.00    +0.000 N 
ATOM     11  C   UNL     1       3.578   5.583  18.991  0.00  0.00    +0.000 A 
ATOM     12  C   UNL     1       3.227   4.411  19.622  0.00  0.00    +0.000 A 
ATOM     13  C   UNL     1       1.872   4.584  19.953  0.00  0.00    +0.000 A 
ATOM     14  N   UNL     1       1.405   5.792  19.625  0.00  0.00    +0.000 NA
ATOM     15  C   UNL     1       1.913   8.581  20.746  0.00  0.00    +0.000 C 
ATOM     16  C   UNL     1       0.539   8.510  21.405  0.00  0.00    +0.000 C 
ENDROOT
BRANCH  12  17
ATOM     17  C   UNL     1       4.065   3.291  19.901  0.00  0.00    +0.000 C 
ATOM     18  N   UNL     1       4.725   2.358  20.138  0.00  0.00    +0.000 NA
ENDBRANCH  12  17
BRANCH   1  19
ATOM     19  O   UNL     1      -1.476  11.548  21.822  0.00  0.00    +0.000 OA
BRANCH  19  21
ATOM     20  C   UNL     1       0.518  12.945  21.452  0.00  0.00    +0.000 C 
ATOM     21  C   UNL     1      -0.962  12.914  21.855  0.00  0.00    +0.000 C 
ATOM     22  C   UNL     1      -1.184  13.540  23.243  0.00  0.00    +0.000 C 
ATOM     23  C   UNL     1      -1.721  13.765  20.812  0.00  0.00    +0.000 C 
ENDBRANCH  19  21
ENDBRANCH   1  19
TORSDOF 3
ENDMDL
MODEL 5
REMARK VINA RESULT:      -5.4      2.721      7.812
REMARK  Name = 
REMARK  6 active torsions:
REMARK  status: ('A' for Active; 'I' for Inactive)
REMARK    1  A    between atoms: C_1  and  C_2
REMARK    2  A    between atoms: C_2  and  C_3
REMARK    3  A    between atoms: C_2  and  C_4
REMARK    4  A    between atoms: C_2  and  O_5
REMARK    5  A    between atoms: O_5  and  C_6
REMARK    6  A    between atoms: C_17  and  C_18
REMARK                            x       y       z     vdW  Elec       q    Type
REMARK                         _______ _______ _______ _____ _____    ______ ____
ROOT
ATOM      1  C   UNL     1       6.603   5.091  16.530  0.00  0.00    +0.000 C 
ATOM      2  O   UNL     1       7.464   5.817  17.013  0.00  0.00    +0.000 OA
ATOM      3  N   UNL     1       5.289   5.162  16.955  0.00  0.00    +0.000 N 
ATOM      4  C   UNL     1       4.217   4.301  16.478  0.00  0.00    +0.000 C 
ATOM      5  C   UNL     1       3.981   3.078  17.358  0.00  0.00    +0.000 C 
ATOM      6  C   UNL     1       3.719   3.307  18.851  0.00  0.00    +0.000 C 
ATOM      7  N   UNL     1       3.404   4.676  19.246  0.00  0.00    +0.000 N 
ATOM      8  C   UNL     1       2.169   4.932  19.854  0.00  0.00    +0.000 C 
ATOM      9  O   UNL     1       1.330   4.105  20.188  0.00  0.00    +0.000 OA
ATOM     10  N   UNL     1       1.925   6.295  20.156  0.00  0.00    +0.000 N 
ATOM     11  C   UNL     1       1.549   6.833  21.373  0.00  0.00    +0.000 A 
ATOM     12  C   UNL     1       1.367   8.184  21.179  0.00  0.00    +0.000 A 
ATOM     13  C   UNL     1       1.622   8.379  19.812  0.00  0.00    +0.000 A 
ATOM     14  N   UNL     1       2.005   7.261  19.188  0.00  0.00    +0.000 NA
ATOM     15  C   UNL     1       4.554   5.594  19.306  0.00  0.00    +0.000 C 
ATOM     16  C   UNL     1       4.937   6.177  17.950  0.00  0.00    +0.000 C 
ENDROOT
BRANCH  12  17
ATOM     17  C   UNL     1       1.026   9.162  22.160  0.00  0.00    +0.000 C 
ATOM     18  N   UNL     1       0.716   9.954  22.960  0.00  0.00    +0.000 NA
ENDBRANCH  12  17
BRANCH   1  19
ATOM     19  O   UNL     1       6.843   4.172  15.539  0.00  0.00    +0.000 OA
BRANCH  19  21
ATOM     20  C   UNL     1       5.658   5.773  14.091  0.00  0.00    +0.000 C 
ATOM     21  C   UNL     1       6.638   4.594  14.158  0.00  0.00    +0.000 C 
ATOM     22  C   UNL     1       6.158   3.410  13.298  0.00  0.00    +0.000 C 
ATOM     23  C   UNL     1       7.977   5.102  13.580  0.00  0.00    +0.000 C 
ENDBRANCH  19  21
ENDBRANCH   1  19
TORSDOF 3
ENDMDL
MODEL 6
REMARK VINA RESULT:      -5.3      7.129      8.578
REMARK  Name = 
REMARK  6 active torsions:
REMARK  status: ('A' for Active; 'I' for Inactive)
REMARK    1  A    between atoms: C_1  and  C_2
REMARK    2  A    between atoms: C_2  and  C_3
REMARK    3  A    between atoms: C_2  and  C_4
REMARK    4  A    between atoms: C_2  and  O_5
REMARK    5  A    between atoms: O_5  and  C_6
REMARK    6  A    between atoms: C_17  and  C_18
REMARK                            x       y       z     vdW  Elec       q    Type
REMARK                         _______ _______ _______ _____ _____    ______ ____
ROOT
ATOM      1  C   UNL     1      -0.740  13.946  22.609  0.00  0.00    +0.000 C 
ATOM      2  O   UNL     1       0.110  14.552  21.966  0.00  0.00    +0.000 OA
ATOM      3  N   UNL     1      -1.581  13.033  22.000  0.00  0.00    +0.000 N 
ATOM      4  C   UNL     1      -2.650  12.314  22.675  0.00  0.00    +0.000 C 
ATOM      5  C   UNL     1      -4.010  12.993  22.557  0.00  0.00    +0.000 C 
ATOM      6  C   UNL     1      -4.530  13.320  21.152  0.00  0.00    +0.000 C 
ATOM      7  N   UNL     1      -3.835  12.675  20.043  0.00  0.00    +0.000 N 
ATOM      8  C   UNL     1      -4.560  11.828  19.196  0.00  0.00    +0.000 C 
ATOM      9  O   UNL     1      -5.768  11.627  19.220  0.00  0.00    +0.000 OA
ATOM     10  N   UNL     1      -3.796  11.204  18.180  0.00  0.00    +0.000 N 
ATOM     11  C   UNL     1      -4.050  11.196  16.821  0.00  0.00    +0.000 A 
ATOM     12  C   UNL     1      -3.080  10.417  16.232  0.00  0.00    +0.000 A 
ATOM     13  C   UNL     1      -2.294   9.966  17.305  0.00  0.00    +0.000 A 
ATOM     14  N   UNL     1      -2.682  10.466  18.482  0.00  0.00    +0.000 NA
ATOM     15  C   UNL     1      -2.527  13.258  19.696  0.00  0.00    +0.000 C 
ATOM     16  C   UNL     1      -1.386  12.757  20.575  0.00  0.00    +0.000 C 
ENDROOT
BRANCH  12  17
ATOM     17  C   UNL     1      -2.901  10.158  14.840  0.00  0.00    +0.000 C 
ATOM     18  N   UNL     1      -2.730   9.965  13.702  0.00  0.00    +0.000 NA
ENDBRANCH  12  17
BRANCH   1  19
ATOM     19  O   UNL     1      -0.927  14.094  23.961  0.00  0.00    +0.000 OA
BRANCH  19  21
ATOM     20  C   UNL     1      -0.537  16.268  25.050  0.00  0.00    +0.000 C 
ATOM     21  C   UNL     1      -1.569  15.319  24.427  0.00  0.00    +0.000 C 
ATOM     22  C   UNL     1      -2.704  14.990  25.414  0.00  0.00    +0.000 C 
ATOM     23  C   UNL     1      -2.178  16.062  23.217  0.00  0.00    +0.000 C 
ENDBRANCH  19  21
ENDBRANCH   1  19
TORSDOF 3
ENDMDL
MODEL 7
REMARK VINA RESULT:      -5.3      4.075      7.359
REMARK  Name = 
REMARK  6 active torsions:
REMARK  status: ('A' for Active; 'I' for Inactive)
REMARK    1  A    between atoms: C_1  and  C_2
REMARK    2  A    between atoms: C_2  and  C_3
REMARK    3  A    between atoms: C_2  and  C_4
REMARK    4  A    between atoms: C_2  and  O_5
REMARK    5  A    between atoms: O_5  and  C_6
REMARK    6  A    between atoms: C_17  and  C_18
REMARK                            x       y       z     vdW  Elec       q    Type
REMARK                         _______ _______ _______ _____ _____    ______ ____
ROOT
ATOM      1  C   UNL     1      -1.635  14.364  23.909  0.00  0.00    +0.000 C 
ATOM      2  O   UNL     1      -0.527  14.883  23.989  0.00  0.00    +0.000 OA
ATOM      3  N   UNL     1      -1.860  13.283  23.077  0.00  0.00    +0.000 N 
ATOM      4  C   UNL     1      -3.151  12.644  22.879  0.00  0.00    +0.000 C 
ATOM      5  C   UNL     1      -3.918  13.179  21.674  0.00  0.00    +0.000 C 
ATOM      6  C   UNL     1      -3.215  13.162  20.311  0.00  0.00    +0.000 C 
ATOM      7  N   UNL     1      -2.005  12.352  20.222  0.00  0.00    +0.000 N 
ATOM      8  C   UNL     1      -1.971  11.294  19.306  0.00  0.00    +0.000 C 
ATOM      9  O   UNL     1      -2.830  11.012  18.479  0.00  0.00    +0.000 OA
ATOM     10  N   UNL     1      -0.779  10.529  19.323  0.00  0.00    +0.000 N 
ATOM     11  C   UNL     1       0.035  10.215  18.250  0.00  0.00    +0.000 A 
ATOM     12  C   UNL     1       1.040   9.405  18.728  0.00  0.00    +0.000 A 
ATOM     13  C   UNL     1       0.746   9.250  20.092  0.00  0.00    +0.000 A 
ATOM     14  N   UNL     1      -0.320   9.957  20.480  0.00  0.00    +0.000 NA
ATOM     15  C   UNL     1      -0.804  12.945  20.834  0.00  0.00    +0.000 C 
ATOM     16  C   UNL     1      -0.721  12.728  22.342  0.00  0.00    +0.000 C 
ENDROOT
BRANCH  12  17
ATOM     17  C   UNL     1       2.145   8.872  17.999  0.00  0.00    +0.000 C 
ATOM     18  N   UNL     1       3.035   8.408  17.403  0.00  0.00    +0.000 NA
ENDBRANCH  12  17
BRANCH   1  19
ATOM     19  O   UNL     1      -2.729  14.780  24.627  0.00  0.00    +0.000 OA
BRANCH  19  21
ATOM     20  C   UNL     1      -2.960  16.467  22.848  0.00  0.00    +0.000 C 
ATOM     21  C   UNL     1      -3.309  16.076  24.290  0.00  0.00    +0.000 C 
ATOM     22  C   UNL     1      -2.850  17.149  25.294  0.00  0.00    +0.000 C 
ATOM     23  C   UNL     1      -4.849  15.973  24.359  0.00  0.00    +0.000 C 
ENDBRANCH  19  21
ENDBRANCH   1  19
TORSDOF 3
ENDMDL
MODEL 8
REMARK VINA RESULT:      -5.2      4.469      7.899
REMARK  Name = 
REMARK  6 active torsions:
REMARK  status: ('A' for Active; 'I' for Inactive)
REMARK    1  A    between atoms: C_1  and  C_2
REMARK    2  A    between atoms: C_2  and  C_3
REMARK    3  A    between atoms: C_2  and  C_4
REMARK    4  A    between atoms: C_2  and  O_5
REMARK    5  A    between atoms: O_5  and  C_6
REMARK    6  A    between atoms: C_17  and  C_18
REMARK                            x       y       z     vdW  Elec       q    Type
REMARK                         _______ _______ _______ _____ _____    ______ ____
ROOT
ATOM      1  C   UNL     1      -1.517  14.816  24.205  0.00  0.00    +0.000 C 
ATOM      2  O   UNL     1      -0.373  15.253  24.253  0.00  0.00    +0.000 OA
ATOM      3  N   UNL     1      -1.849  13.772  23.361  0.00  0.00    +0.000 N 
ATOM      4  C   UNL     1      -3.190  13.232  23.200  0.00  0.00    +0.000 C 
ATOM      5  C   UNL     1      -3.959  13.846  22.036  0.00  0.00    +0.000 C 
ATOM      6  C   UNL     1      -3.310  13.810  20.647  0.00  0.00    +0.000 C 
ATOM      7  N   UNL     1      -2.165  12.918  20.496  0.00  0.00    +0.000 N 
ATOM      8  C   UNL     1      -2.241  11.881  19.559  0.00  0.00    +0.000 C 
ATOM      9  O   UNL     1      -3.147  11.679  18.760  0.00  0.00    +0.000 OA
ATOM     10  N   UNL     1      -1.107  11.033  19.516  0.00  0.00    +0.000 N 
ATOM     11  C   UNL     1      -0.357  10.685  18.407  0.00  0.00    +0.000 A 
ATOM     12  C   UNL     1       0.603   9.795  18.831  0.00  0.00    +0.000 A 
ATOM     13  C   UNL     1       0.349   9.631  20.202  0.00  0.00    +0.000 A 
ATOM     14  N   UNL     1      -0.649  10.404  20.643  0.00  0.00    +0.000 NA
ATOM     15  C   UNL     1      -0.903  13.410  21.074  0.00  0.00    +0.000 C 
ATOM     16  C   UNL     1      -0.781  13.154  22.573  0.00  0.00    +0.000 C 
ENDROOT
BRANCH  12  17
ATOM     17  C   UNL     1       1.640   9.201  18.050  0.00  0.00    +0.000 C 
ATOM     18  N   UNL     1       2.500   8.744  17.406  0.00  0.00    +0.000 NA
ENDBRANCH  12  17
BRANCH   1  19
ATOM     19  O   UNL     1      -2.551  15.293  24.972  0.00  0.00    +0.000 OA
BRANCH  19  21
ATOM     20  C   UNL     1      -4.543  16.740  25.004  0.00  0.00    +0.000 C 
ATOM     21  C   UNL     1      -3.046  16.635  24.685  0.00  0.00    +0.000 C 
ATOM     22  C   UNL     1      -2.750  17.018  23.224  0.00  0.00    +0.000 C 
ATOM     23  C   UNL     1      -2.327  17.646  25.606  0.00  0.00    +0.000 C 
ENDBRANCH  19  21
ENDBRANCH   1  19
TORSDOF 3
ENDMDL
MODEL 9
REMARK VINA RESULT:      -5.1      3.848      6.122
REMARK  Name = 
REMARK  6 active torsions:
REMARK  status: ('A' for Active; 'I' for Inactive)
REMARK    1  A    between atoms: C_1  and  C_2
REMARK    2  A    between atoms: C_2  and  C_3
REMARK    3  A    between atoms: C_2  and  C_4
REMARK    4  A    between atoms: C_2  and  O_5
REMARK    5  A    between atoms: O_5  and  C_6
REMARK    6  A    between atoms: C_17  and  C_18
REMARK                            x       y       z     vdW  Elec       q    Type
REMARK                         _______ _______ _______ _____ _____    ______ ____
ROOT
ATOM      1  C   UNL     1       3.738   3.641  19.087  0.00  0.00    +0.000 C 
ATOM      2  O   UNL     1       3.710   2.421  19.203  0.00  0.00    +0.000 OA
ATOM      3  N   UNL     1       4.156   4.238  17.911  0.00  0.00    +0.000 N 
ATOM      4  C   UNL     1       4.273   5.673  17.707  0.00  0.00    +0.000 C 
ATOM      5  C   UNL     1       5.674   6.214  17.972  0.00  0.00    +0.000 C 
ATOM      6  C   UNL     1       6.845   5.574  17.217  0.00  0.00    +0.000 C 
ATOM      7  N   UNL     1       6.492   4.725  16.084  0.00  0.00    +0.000 N 
ATOM      8  C   UNL     1       6.964   5.073  14.812  0.00  0.00    +0.000 C 
ATOM      9  O   UNL     1       7.737   5.983  14.540  0.00  0.00    +0.000 OA
ATOM     10  N   UNL     1       6.531   4.225  13.764  0.00  0.00    +0.000 N 
ATOM     11  C   UNL     1       7.314   3.581  12.823  0.00  0.00    +0.000 A 
ATOM     12  C   UNL     1       6.461   2.920  11.969  0.00  0.00    +0.000 A 
ATOM     13  C   UNL     1       5.177   3.238  12.441  0.00  0.00    +0.000 A 
ATOM     14  N   UNL     1       5.199   3.985  13.550  0.00  0.00    +0.000 NA
ATOM     15  C   UNL     1       5.986   3.387  16.433  0.00  0.00    +0.000 C 
ATOM     16  C   UNL     1       4.501   3.372  16.781  0.00  0.00    +0.000 C 
ENDROOT
BRANCH  12  17
ATOM     17  C   UNL     1       6.812   2.079  10.872  0.00  0.00    +0.000 C 
ATOM     18  N   UNL     1       7.106   1.366   9.995  0.00  0.00    +0.000 NA
ENDBRANCH  12  17
BRANCH   1  19
ATOM     19  O   UNL     1       3.354   4.513  20.074  0.00  0.00    +0.000 OA
BRANCH  19  21
ATOM     20  C   UNL     1       1.435   5.809  20.913  0.00  0.00    +0.000 C 
ATOM     21  C   UNL     1       1.985   4.418  20.570  0.00  0.00    +0.000 C 
ATOM     22  C   UNL     1       1.914   3.467  21.779  0.00  0.00    +0.000 C 
ATOM     23  C   UNL     1       1.081   3.850  19.453  0.00  0.00    +0.000 C 
ENDBRANCH  19  21
ENDBRANCH   1  19
TORSDOF 3
ENDMDL
