MODEL 1
REMARK VINA RESULT:      -7.3      0.000      0.000
REMARK  Name = 
REMARK  4 active torsions:
REMARK  status: ('A' for Active; 'I' for Inactive)
REMARK    1  A    between atoms: C_1  and  N_2
REMARK    2  A    between atoms: N_2  and  C_3
REMARK    3  A    between atoms: C_16  and  O_17
REMARK    4  A    between atoms: O_17  and  C_18
REMARK                            x       y       z     vdW  Elec       q    Type
REMARK                         _______ _______ _______ _____ _____    ______ ____
ROOT
ATOM      1  C   UNL     1       3.134   5.596  20.125  0.00  0.00    +0.000 A 
ATOM      2  N   UNL     1       4.253   5.036  19.631  0.00  0.00    +0.000 NA
ATOM      3  C   UNL     1       4.689   5.413  18.411  0.00  0.00    +0.000 A 
ATOM      4  C   UNL     1       5.727   4.709  17.867  0.00  0.00    +0.000 A 
ATOM      5  C   UNL     1       5.765   4.472  16.505  0.00  0.00    +0.000 A 
ATOM      6  C   UNL     1       5.165   5.415  15.684  0.00  0.00    +0.000 A 
ATOM      7  C   UNL     1       4.464   6.483  16.263  0.00  0.00    +0.000 A 
ATOM      8  C   UNL     1       4.100   6.416  17.638  0.00  0.00    +0.000 A 
ATOM      9  C   UNL     1       3.177   7.199  18.346  0.00  0.00    +0.000 A 
ATOM     10  C   UNL     1       2.648   6.759  19.551  0.00  0.00    +0.000 A 
ATOM     11  C   UNL     1       1.634   7.642  20.045  0.00  0.00    +0.000 A 
ATOM     12  C   UNL     1       0.824   7.526  21.146  0.00  0.00    +0.000 A 
ATOM     13  C   UNL     1      -0.010   8.621  21.436  0.00  0.00    +0.000 A 
ATOM     14  C   UNL     1       0.022   9.812  20.698  0.00  0.00    +0.000 A 
ATOM     15  C   UNL     1       0.806   9.894  19.555  0.00  0.00    +0.000 A 
ATOM     16  C   UNL     1       1.598   8.784  19.217  0.00  0.00    +0.000 A 
ATOM     17  C   UNL     1       2.532   8.526  18.081  0.00  0.00    +0.000 C 
ATOM     18  O   UNL     1       2.732   9.257  17.136  0.00  0.00    +0.000 OA
ENDROOT
BRANCH   1  20
ATOM     19  C   UNL     1       1.602   3.846  20.774  0.00  0.00    +0.000 C 
ATOM     20  N   UNL     1       2.466   4.953  21.174  0.00  0.00    +0.000 N 
ATOM     21  H   UNL     1       1.905   5.659  21.656  0.00  0.00    +0.000 HD
ENDBRANCH   1  20
BRANCH  14  22
ATOM     22  O   UNL     1      -0.822  10.736  21.235  0.00  0.00    +0.000 OA
ATOM     23  C   UNL     1      -0.832  10.892  22.638  0.00  0.00    +0.000 C 
ENDBRANCH  14  22
TORSDOF 2
ENDMDL
MODEL 2
REMARK VINA RESULT:      -7.1      1.050      1.199
REMARK  Name = 
REMARK  4 active torsions:
REMARK  status: ('A' for Active; 'I' for Inactive)
REMARK    1  A    between atoms: C_1  and  N_2
REMARK    2  A    between atoms: N_2  and  C_3
REMARK    3  A    between atoms: C_16  and  O_17
REMARK    4  A    between atoms: O_17  and  C_18
REMARK                            x       y       z     vdW  Elec       q    Type
REMARK                         _______ _______ _______ _____ _____    ______ ____
ROOT
ATOM      1  C   UNL     1       3.911   4.779  19.434  0.00  0.00    +0.000 A 
ATOM      2  N   UNL     1       5.023   4.348  18.813  0.00  0.00    +0.000 NA
ATOM      3  C   UNL     1       5.371   4.905  17.635  0.00  0.00    +0.000 A 
ATOM      4  C   UNL     1       6.406   4.335  16.948  0.00  0.00    +0.000 A 
ATOM      5  C   UNL     1       6.376   4.282  15.566  0.00  0.00    +0.000 A 
ATOM      6  C   UNL     1       5.687   5.292  14.912  0.00  0.00    +0.000 A 
ATOM      7  C   UNL     1       4.973   6.236  15.664  0.00  0.00    +0.000 A 
ATOM      8  C   UNL     1       4.693   5.970  17.034  0.00  0.00    +0.000 A 
ATOM      9  C   UNL     1       3.778   6.603  17.888  0.00  0.00    +0.000 A 
ATOM     10  C   UNL     1       3.340   5.980  19.048  0.00  0.00    +0.000 A 
ATOM     11  C   UNL     1       2.318   6.736  19.708  0.00  0.00    +0.000 A 
ATOM     12  C   UNL     1       1.579   6.433  20.823  0.00  0.00    +0.000 A 
ATOM     13  C   UNL     1       0.715   7.435  21.301  0.00  0.00    +0.000 A 
ATOM     14  C   UNL     1       0.650   8.713  20.728  0.00  0.00    +0.000 A 
ATOM     15  C   UNL     1       1.361   8.986  19.568  0.00  0.00    +0.000 A 
ATOM     16  C   UNL     1       2.182   7.973  19.044  0.00  0.00    +0.000 A 
ATOM     17  C   UNL     1       3.060   7.918  17.838  0.00  0.00    +0.000 C 
ATOM     18  O   UNL     1       3.172   8.777  16.990  0.00  0.00    +0.000 OA
ENDROOT
BRANCH   1  20
ATOM     19  C   UNL     1       2.524   2.862  19.919  0.00  0.00    +0.000 C 
ATOM     20  N   UNL     1       3.334   3.969  20.421  0.00  0.00    +0.000 N 
ATOM     21  H   UNL     1       2.753   4.571  21.008  0.00  0.00    +0.000 HD
ENDBRANCH   1  20
BRANCH  14  22
ATOM     22  O   UNL     1      -0.202   9.513  21.427  0.00  0.00    +0.000 OA
ATOM     23  C   UNL     1      -0.123   9.499  22.837  0.00  0.00    +0.000 C 
ENDBRANCH  14  22
TORSDOF 2
ENDMDL
MODEL 3
REMARK VINA RESULT:      -6.8      3.374      8.055
REMARK  Name = 
REMARK  4 active torsions:
REMARK  status: ('A' for Active; 'I' for Inactive)
REMARK    1  A    between atoms: C_1  and  N_2
REMARK    2  A    between atoms: N_2  and  C_3
REMARK    3  A    between atoms: C_16  and  O_17
REMARK    4  A    between atoms: O_17  and  C_18
REMARK                            x       y       z     vdW  Elec       q    Type
REMARK                         _______ _______ _______ _____ _____    ______ ____
ROOT
ATOM      1  C   UNL     1      -0.903  12.011  19.182  0.00  0.00    +0.000 A 
ATOM      2  N   UNL     1      -1.415  13.044  19.875  0.00  0.00    +0.000 NA
ATOM      3  C   UNL     1      -1.689  12.880  21.186  0.00  0.00    +0.000 A 
ATOM      4  C   UNL     1      -2.362  13.887  21.820  0.00  0.00    +0.000 A 
ATOM      5  C   UNL     1      -3.292  13.589  22.801  0.00  0.00    +0.000 A 
ATOM      6  C   UNL     1      -3.085  12.430  23.534  0.00  0.00    +0.000 A 
ATOM      7  C   UNL     1      -2.032  11.573  23.183  0.00  0.00    +0.000 A 
ATOM      8  C   UNL     1      -1.406  11.720  21.912  0.00  0.00    +0.000 A 
ATOM      9  C   UNL     1      -0.557  10.831  21.238  0.00  0.00    +0.000 A 
ATOM     10  C   UNL     1      -0.361  10.937  19.868  0.00  0.00    +0.000 A 
ATOM     11  C   UNL     1       0.436   9.862  19.357  0.00  0.00    +0.000 A 
ATOM     12  C   UNL     1       0.786   9.561  18.066  0.00  0.00    +0.000 A 
ATOM     13  C   UNL     1       1.679   8.489  17.885  0.00  0.00    +0.000 A 
ATOM     14  C   UNL     1       2.254   7.796  18.960  0.00  0.00    +0.000 A 
ATOM     15  C   UNL     1       1.847   8.074  20.257  0.00  0.00    +0.000 A 
ATOM     16  C   UNL     1       0.909   9.102  20.448  0.00  0.00    +0.000 A 
ATOM     17  C   UNL     1       0.258   9.651  21.674  0.00  0.00    +0.000 C 
ATOM     18  O   UNL     1       0.376   9.225  22.803  0.00  0.00    +0.000 OA
ENDROOT
BRANCH   1  20
ATOM     19  C   UNL     1      -2.225  11.505  17.226  0.00  0.00    +0.000 C 
ATOM     20  N   UNL     1      -0.983  12.033  17.784  0.00  0.00    +0.000 N 
ATOM     21  H   UNL     1      -0.195  11.487  17.426  0.00  0.00    +0.000 HD
ENDBRANCH   1  20
BRANCH  14  22
ATOM     22  O   UNL     1       3.139   6.862  18.513  0.00  0.00    +0.000 OA
ATOM     23  C   UNL     1       3.344   5.708  19.301  0.00  0.00    +0.000 C 
ENDBRANCH  14  22
TORSDOF 2
ENDMDL
MODEL 4
REMARK VINA RESULT:      -6.7      1.445      6.039
REMARK  Name = 
REMARK  4 active torsions:
REMARK  status: ('A' for Active; 'I' for Inactive)
REMARK    1  A    between atoms: C_1  and  N_2
REMARK    2  A    between atoms: N_2  and  C_3
REMARK    3  A    between atoms: C_16  and  O_17
REMARK    4  A    between atoms: O_17  and  C_18
REMARK                            x       y       z     vdW  Elec       q    Type
REMARK                         _______ _______ _______ _____ _____    ______ ____
ROOT
ATOM      1  C   UNL     1       2.100   6.118  20.531  0.00  0.00    +0.000 A 
ATOM      2  N   UNL     1       1.018   6.565  21.193  0.00  0.00    +0.000 NA
ATOM      3  C   UNL     1       0.615   7.838  21.005  0.00  0.00    +0.000 A 
ATOM      4  C   UNL     1      -0.380   8.311  21.814  0.00  0.00    +0.000 A 
ATOM      5  C   UNL     1      -0.361   9.627  22.240  0.00  0.00    +0.000 A 
ATOM      6  C   UNL     1       0.241  10.552  21.401  0.00  0.00    +0.000 A 
ATOM      7  C   UNL     1       0.888  10.108  20.239  0.00  0.00    +0.000 A 
ATOM      8  C   UNL     1       1.203   8.726  20.100  0.00  0.00    +0.000 A 
ATOM      9  C   UNL     1       2.075   8.105  19.194  0.00  0.00    +0.000 A 
ATOM     10  C   UNL     1       2.572   6.834  19.444  0.00  0.00    +0.000 A 
ATOM     11  C   UNL     1       3.540   6.437  18.466  0.00  0.00    +0.000 A 
ATOM     12  C   UNL     1       4.313   5.305  18.399  0.00  0.00    +0.000 A 
ATOM     13  C   UNL     1       5.103   5.145  17.246  0.00  0.00    +0.000 A 
ATOM     14  C   UNL     1       5.062   6.044  16.172  0.00  0.00    +0.000 A 
ATOM     15  C   UNL     1       4.320   7.212  16.277  0.00  0.00    +0.000 A 
ATOM     16  C   UNL     1       3.574   7.415  17.450  0.00  0.00    +0.000 A 
ATOM     17  C   UNL     1       2.690   8.533  17.896  0.00  0.00    +0.000 C 
ATOM     18  O   UNL     1       2.503   9.579  17.311  0.00  0.00    +0.000 OA
ENDROOT
BRANCH   1  20
ATOM     19  C   UNL     1       1.876   3.824  21.249  0.00  0.00    +0.000 C 
ATOM     20  N   UNL     1       2.748   4.968  20.998  0.00  0.00    +0.000 N 
ATOM     21  H   UNL     1       3.229   5.220  21.865  0.00  0.00    +0.000 HD
ENDBRANCH   1  20
BRANCH  14  22
ATOM     22  O   UNL     1       5.858   5.616  15.153  0.00  0.00    +0.000 OA
ATOM     23  C   UNL     1       5.974   4.225  14.939  0.00  0.00    +0.000 C 
ENDBRANCH  14  22
TORSDOF 2
ENDMDL
MODEL 5
REMARK VINA RESULT:      -6.6      3.686      7.164
REMARK  Name = 
REMARK  4 active torsions:
REMARK  status: ('A' for Active; 'I' for Inactive)
REMARK    1  A    between atoms: C_1  and  N_2
REMARK    2  A    between atoms: N_2  and  C_3
REMARK    3  A    between atoms: C_16  and  O_17
REMARK    4  A    between atoms: O_17  and  C_18
REMARK                            x       y       z     vdW  Elec       q    Type
REMARK                         _______ _______ _______ _____ _____    ______ ____
ROOT
ATOM      1  C   UNL     1       3.568   6.275  18.419  0.00  0.00    +0.000 A 
ATOM      2  N   UNL     1       3.087   6.052  19.655  0.00  0.00    +0.000 NA
ATOM      3  C   UNL     1       2.745   4.795  20.007  0.00  0.00    +0.000 A 
ATOM      4  C   UNL     1       2.105   4.627  21.203  0.00  0.00    +0.000 A 
ATOM      5  C   UNL     1       1.117   3.668  21.332  0.00  0.00    +0.000 A 
ATOM      6  C   UNL     1       1.222   2.543  20.527  0.00  0.00    +0.000 A 
ATOM      7  C   UNL     1       2.237   2.481  19.561  0.00  0.00    +0.000 A 
ATOM      8  C   UNL     1       2.927   3.672  19.196  0.00  0.00    +0.000 A 
ATOM      9  C   UNL     1       3.751   3.910  18.087  0.00  0.00    +0.000 A 
ATOM     10  C   UNL     1       4.015   5.205  17.663  0.00  0.00    +0.000 A 
ATOM     11  C   UNL     1       4.768   5.225  16.445  0.00  0.00    +0.000 A 
ATOM     12  C   UNL     1       5.158   6.286  15.667  0.00  0.00    +0.000 A 
ATOM     13  C   UNL     1       5.993   5.996  14.573  0.00  0.00    +0.000 A 
ATOM     14  C   UNL     1       6.477   4.706  14.313  0.00  0.00    +0.000 A 
ATOM     15  C   UNL     1       6.030   3.635  15.074  0.00  0.00    +0.000 A 
ATOM     16  C   UNL     1       5.146   3.902  16.133  0.00  0.00    +0.000 A 
ATOM     17  C   UNL     1       4.474   3.014  17.127  0.00  0.00    +0.000 C 
ATOM     18  O   UNL     1       4.517   1.803  17.154  0.00  0.00    +0.000 OA
ENDROOT
BRANCH   1  20
ATOM     19  C   UNL     1       2.237   8.216  17.877  0.00  0.00    +0.000 C 
ATOM     20  N   UNL     1       3.552   7.582  17.916  0.00  0.00    +0.000 N 
ATOM     21  H   UNL     1       3.937   7.549  16.969  0.00  0.00    +0.000 HD
ENDBRANCH   1  20
BRANCH  14  22
ATOM     22  O   UNL     1       7.325   4.714  13.247  0.00  0.00    +0.000 OA
ATOM     23  C   UNL     1       6.988   3.931  12.122  0.00  0.00    +0.000 C 
ENDBRANCH  14  22
TORSDOF 2
ENDMDL
MODEL 6
REMARK VINA RESULT:      -6.5      3.153      7.816
REMARK  Name = 
REMARK  4 active torsions:
REMARK  status: ('A' for Active; 'I' for Inactive)
REMARK    1  A    between atoms: C_1  and  N_2
REMARK    2  A    between atoms: N_2  and  C_3
REMARK    3  A    between atoms: C_16  and  O_17
REMARK    4  A    between atoms: O_17  and  C_18
REMARK                            x       y       z     vdW  Elec       q    Type
REMARK                         _______ _______ _______ _____ _____    ______ ____
ROOT
ATOM      1  C   UNL     1       0.663  12.238  19.540  0.00  0.00    +0.000 A 
ATOM      2  N   UNL     1       0.293  13.199  20.404  0.00  0.00    +0.000 NA
ATOM      3  C   UNL     1      -0.329  12.846  21.548  0.00  0.00    +0.000 A 
ATOM      4  C   UNL     1      -0.841  13.849  22.323  0.00  0.00    +0.000 A 
ATOM      5  C   UNL     1      -2.028  13.659  23.007  0.00  0.00    +0.000 A 
ATOM      6  C   UNL     1      -2.328  12.364  23.401  0.00  0.00    +0.000 A 
ATOM      7  C   UNL     1      -1.492  11.312  22.999  0.00  0.00    +0.000 A 
ATOM      8  C   UNL     1      -0.556  11.526  21.948  0.00  0.00    +0.000 A 
ATOM      9  C   UNL     1       0.162  10.584  21.198  0.00  0.00    +0.000 A 
ATOM     10  C   UNL     1       0.711  10.922  19.969  0.00  0.00    +0.000 A 
ATOM     11  C   UNL     1       1.289   9.788  19.311  0.00  0.00    +0.000 A 
ATOM     12  C   UNL     1       1.853   9.685  18.065  0.00  0.00    +0.000 A 
ATOM     13  C   UNL     1       2.440   8.450  17.736  0.00  0.00    +0.000 A 
ATOM     14  C   UNL     1       2.524   7.387  18.646  0.00  0.00    +0.000 A 
ATOM     15  C   UNL     1       1.901   7.487  19.882  0.00  0.00    +0.000 A 
ATOM     16  C   UNL     1       1.256   8.694  20.201  0.00  0.00    +0.000 A 
ATOM     17  C   UNL     1       0.495   9.137  21.406  0.00  0.00    +0.000 C 
ATOM     18  O   UNL     1       0.213   8.456  22.369  0.00  0.00    +0.000 OA
ENDROOT
BRANCH   1  20
ATOM     19  C   UNL     1       2.147  13.393  18.025  0.00  0.00    +0.000 C 
ATOM     20  N   UNL     1       0.940  12.594  18.214  0.00  0.00    +0.000 N 
ATOM     21  H   UNL     1       0.133  13.118  17.865  0.00  0.00    +0.000 HD
ENDBRANCH   1  20
BRANCH  14  22
ATOM     22  O   UNL     1       3.208   6.341  18.105  0.00  0.00    +0.000 OA
ATOM     23  C   UNL     1       4.353   6.624  17.329  0.00  0.00    +0.000 C 
ENDBRANCH  14  22
TORSDOF 2
ENDMDL
MODEL 7
REMARK VINA RESULT:      -6.5      2.707      5.954
REMARK  Name = 
REMARK  4 active torsions:
REMARK  status: ('A' for Active; 'I' for Inactive)
REMARK    1  A    between atoms: C_1  and  N_2
REMARK    2  A    between atoms: N_2  and  C_3
REMARK    3  A    between atoms: C_16  and  O_17
REMARK    4  A    between atoms: O_17  and  C_18
REMARK                            x       y       z     vdW  Elec       q    Type
REMARK                         _______ _______ _______ _____ _____    ______ ____
ROOT
ATOM      1  C   UNL     1       0.448   9.287  20.846  0.00  0.00    +0.000 A 
ATOM      2  N   UNL     1      -0.037  10.502  20.535  0.00  0.00    +0.000 NA
ATOM      3  C   UNL     1       0.528  11.193  19.525  0.00  0.00    +0.000 A 
ATOM      4  C   UNL     1       0.127  12.487  19.343  0.00  0.00    +0.000 A 
ATOM      5  C   UNL     1       1.038  13.446  18.937  0.00  0.00    +0.000 A 
ATOM      6  C   UNL     1       2.098  13.016  18.154  0.00  0.00    +0.000 A 
ATOM      7  C   UNL     1       2.259  11.645  17.908  0.00  0.00    +0.000 A 
ATOM      8  C   UNL     1       1.552  10.703  18.709  0.00  0.00    +0.000 A 
ATOM      9  C   UNL     1       1.762   9.323  18.843  0.00  0.00    +0.000 A 
ATOM     10  C   UNL     1       1.268   8.633  19.941  0.00  0.00    +0.000 A 
ATOM     11  C   UNL     1       1.699   7.267  19.952  0.00  0.00    +0.000 A 
ATOM     12  C   UNL     1       1.499   6.287  20.890  0.00  0.00    +0.000 A 
ATOM     13  C   UNL     1       1.957   4.997  20.566  0.00  0.00    +0.000 A 
ATOM     14  C   UNL     1       2.525   4.687  19.323  0.00  0.00    +0.000 A 
ATOM     15  C   UNL     1       2.772   5.699  18.406  0.00  0.00    +0.000 A 
ATOM     16  C   UNL     1       2.375   7.005  18.742  0.00  0.00    +0.000 A 
ATOM     17  C   UNL     1       2.489   8.305  18.017  0.00  0.00    +0.000 C 
ATOM     18  O   UNL     1       3.053   8.493  16.961  0.00  0.00    +0.000 OA
ENDROOT
BRANCH   1  20
ATOM     19  C   UNL     1      -0.223   9.715  23.126  0.00  0.00    +0.000 C 
ATOM     20  N   UNL     1       0.150   8.743  22.101  0.00  0.00    +0.000 N 
ATOM     21  H   UNL     1       0.975   8.226  22.413  0.00  0.00    +0.000 HD
ENDBRANCH   1  20
BRANCH  14  22
ATOM     22  O   UNL     1       2.807   3.358  19.238  0.00  0.00    +0.000 OA
ATOM     23  C   UNL     1       1.752   2.470  18.934  0.00  0.00    +0.000 C 
ENDBRANCH  14  22
TORSDOF 2
ENDMDL
MODEL 8
REMARK VINA RESULT:      -6.4      3.061      5.444
REMARK  Name = 
REMARK  4 active torsions:
REMARK  status: ('A' for Active; 'I' for Inactive)
REMARK    1  A    between atoms: C_1  and  N_2
REMARK    2  A    between atoms: N_2  and  C_3
REMARK    3  A    between atoms: C_16  and  O_17
REMARK    4  A    between atoms: O_17  and  C_18
REMARK                            x       y       z     vdW  Elec       q    Type
REMARK                         _______ _______ _______ _____ _____    ______ ____
ROOT
ATOM      1  C   UNL     1       1.015  11.310  18.892  0.00  0.00    +0.000 A 
ATOM      2  N   UNL     1       1.371  10.315  18.060  0.00  0.00    +0.000 NA
ATOM      3  C   UNL     1       1.529   9.071  18.558  0.00  0.00    +0.000 A 
ATOM      4  C   UNL     1       2.052   8.120  17.727  0.00  0.00    +0.000 A 
ATOM      5  C   UNL     1       2.903   7.153  18.229  0.00  0.00    +0.000 A 
ATOM      6  C   UNL     1       2.723   6.780  19.553  0.00  0.00    +0.000 A 
ATOM      7  C   UNL     1       1.783   7.464  20.337  0.00  0.00    +0.000 A 
ATOM      8  C   UNL     1       1.273   8.714  19.885  0.00  0.00    +0.000 A 
ATOM      9  C   UNL     1       0.569   9.692  20.601  0.00  0.00    +0.000 A 
ATOM     10  C   UNL     1       0.498  10.998  20.139  0.00  0.00    +0.000 A 
ATOM     11  C   UNL     1      -0.154  11.863  21.076  0.00  0.00    +0.000 A 
ATOM     12  C   UNL     1      -0.352  13.220  21.034  0.00  0.00    +0.000 A 
ATOM     13  C   UNL     1      -1.131  13.779  22.063  0.00  0.00    +0.000 A 
ATOM     14  C   UNL     1      -1.749  12.999  23.051  0.00  0.00    +0.000 A 
ATOM     15  C   UNL     1      -1.494  11.637  23.113  0.00  0.00    +0.000 A 
ATOM     16  C   UNL     1      -0.666  11.074  22.127  0.00  0.00    +0.000 A 
ATOM     17  C   UNL     1      -0.184   9.680  21.897  0.00  0.00    +0.000 C 
ATOM     18  O   UNL     1      -0.377   8.725  22.619  0.00  0.00    +0.000 OA
ENDROOT
BRANCH   1  20
ATOM     19  C   UNL     1       2.624  12.995  18.257  0.00  0.00    +0.000 C 
ATOM     20  N   UNL     1       1.228  12.634  18.488  0.00  0.00    +0.000 N 
ATOM     21  H   UNL     1       0.840  13.240  19.215  0.00  0.00    +0.000 HD
ENDBRANCH   1  20
BRANCH  14  22
ATOM     22  O   UNL     1      -2.507  13.775  23.874  0.00  0.00    +0.000 OA
ATOM     23  C   UNL     1      -3.732  13.251  24.341  0.00  0.00    +0.000 C 
ENDBRANCH  14  22
TORSDOF 2
ENDMDL
MODEL 9
REMARK VINA RESULT:      -6.3      2.761      6.445
REMARK  Name = 
REMARK  4 active torsions:
REMARK  status: ('A' for Active; 'I' for Inactive)
REMARK    1  A    between atoms: C_1  and  N_2
REMARK    2  A    between atoms: N_2  and  C_3
REMARK    3  A    between atoms: C_16  and  O_17
REMARK    4  A    between atoms: O_17  and  C_18
REMARK                            x       y       z     vdW  Elec       q    Type
REMARK                         _______ _______ _______ _____ _____    ______ ____
ROOT
ATOM      1  C   UNL     1      -0.171   9.620  21.048  0.00  0.00    +0.000 A 
ATOM      2  N   UNL     1      -0.901  10.739  20.890  0.00  0.00    +0.000 NA
ATOM      3  C   UNL     1      -0.494  11.665  19.997  0.00  0.00    +0.000 A 
ATOM      4  C   UNL     1      -1.158  12.859  19.980  0.00  0.00    +0.000 A 
ATOM      5  C   UNL     1      -0.468  14.033  19.732  0.00  0.00    +0.000 A 
ATOM      6  C   UNL     1       0.658  13.943  18.928  0.00  0.00    +0.000 A 
ATOM      7  C   UNL     1       1.102  12.682  18.504  0.00  0.00    +0.000 A 
ATOM      8  C   UNL     1       0.609  11.514  19.152  0.00  0.00    +0.000 A 
ATOM      9  C   UNL     1       1.103  10.203  19.105  0.00  0.00    +0.000 A 
ATOM     10  C   UNL     1       0.766   9.281  20.087  0.00  0.00    +0.000 A 
ATOM     11  C   UNL     1       1.473   8.046  19.926  0.00  0.00    +0.000 A 
ATOM     12  C   UNL     1       1.484   6.927  20.719  0.00  0.00    +0.000 A 
ATOM     13  C   UNL     1       2.202   5.817  20.237  0.00  0.00    +0.000 A 
ATOM     14  C   UNL     1       2.820   5.805  18.979  0.00  0.00    +0.000 A 
ATOM     15  C   UNL     1       2.849   6.962  18.214  0.00  0.00    +0.000 A 
ATOM     16  C   UNL     1       2.188   8.098  18.711  0.00  0.00    +0.000 A 
ATOM     17  C   UNL     1       2.026   9.481  18.171  0.00  0.00    +0.000 C 
ATOM     18  O   UNL     1       2.537   9.924  17.165  0.00  0.00    +0.000 OA
ENDROOT
BRANCH   1  20
ATOM     19  C   UNL     1      -0.021   9.546  23.457  0.00  0.00    +0.000 C 
ATOM     20  N   UNL     1      -0.348   8.860  22.210  0.00  0.00    +0.000 N 
ATOM     21  H   UNL     1       0.239   8.027  22.122  0.00  0.00    +0.000 HD
ENDBRANCH   1  20
BRANCH  14  22
ATOM     22  O   UNL     1       3.375   4.587  18.726  0.00  0.00    +0.000 OA
ATOM     23  C   UNL     1       4.768   4.440  18.900  0.00  0.00    +0.000 C 
ENDBRANCH  14  22
TORSDOF 2
ENDMDL
