MODEL 1
REMARK VINA RESULT:      -8.1      0.000      0.000
REMARK  Name = 
REMARK  6 active torsions:
REMARK  status: ('A' for Active; 'I' for Inactive)
REMARK    1  A    between atoms: C_4  and  C_5
REMARK    2  A    between atoms: N_7  and  N_8
REMARK    3  A    between atoms: C_9  and  C_10
REMARK    4  A    between atoms: N_18  and  C_19
REMARK    5  A    between atoms: C_22  and  S_23
REMARK    6  A    between atoms: S_23  and  N_24
REMARK                            x       y       z     vdW  Elec       q    Type
REMARK                         _______ _______ _______ _____ _____    ______ ____
ROOT
ATOM      1  N   UNL     1       2.401   5.269  20.940  0.00  0.00    +0.000 N 
ATOM      2  C   UNL     1       1.998   6.459  20.437  0.00  0.00    +0.000 A 
ATOM      3  N   UNL     1       1.167   7.293  21.022  0.00  0.00    +0.000 NA
ATOM      4  C   UNL     1       1.217   8.422  20.219  0.00  0.00    +0.000 A 
ATOM      5  N   UNL     1       2.093   8.326  19.205  0.00  0.00    +0.000 NA
ATOM      6  N   UNL     1       2.496   7.038  19.268  0.00  0.00    +0.000 N 
ATOM      7  H   UNL     1       2.193   5.117  21.923  0.00  0.00    +0.000 HD
ATOM      8  H   UNL     1       3.325   4.922  20.694  0.00  0.00    +0.000 HD
ENDROOT
BRANCH   6   9
ATOM      9  C   UNL     1       3.315   6.480  18.248  0.00  0.00    +0.000 A 
ATOM     10  C   UNL     1       3.336   5.086  18.080  0.00  0.00    +0.000 A 
ATOM     11  C   UNL     1       4.132   4.508  17.090  0.00  0.00    +0.000 A 
ATOM     12  C   UNL     1       4.933   5.322  16.285  0.00  0.00    +0.000 A 
ATOM     13  C   UNL     1       4.949   6.709  16.468  0.00  0.00    +0.000 A 
ATOM     14  C   UNL     1       4.129   7.291  17.441  0.00  0.00    +0.000 A 
BRANCH  12  15
ATOM     15  S   UNL     1       5.996   4.580  15.082  0.00  0.00    +0.000 S 
ATOM     16  O   UNL     1       5.247   4.337  13.870  0.00  0.00    +0.000 OA
ATOM     17  O   UNL     1       7.271   5.258  15.082  0.00  0.00    +0.000 OA
BRANCH  15  18
ATOM     18  N   UNL     1       6.278   3.069  15.758  0.00  0.00    +0.000 NA
ATOM     19  H   UNL     1       5.988   3.073  16.737  0.00  0.00    +0.000 HD
ATOM     20  H   UNL     1       5.816   2.352  15.199  0.00  0.00    +0.000 HD
ENDBRANCH  15  18
ENDBRANCH  12  15
ENDBRANCH   6   9
BRANCH   4  21
ATOM     21  C   UNL     1       0.401   9.635  20.467  0.00  0.00    +0.000 C 
ATOM     22  O   UNL     1      -0.408  10.071  19.648  0.00  0.00    +0.000 OA
ATOM     23  N   UNL     1       0.643  10.219  21.712  0.00  0.00    +0.000 N 
ATOM     24  H   UNL     1       1.328   9.795  22.327  0.00  0.00    +0.000 HD
BRANCH  23  25
ATOM     25  N   UNL     1      -0.027  11.357  22.070  0.00  0.00    +0.000 NA
ATOM     26  C   UNL     1      -1.075  11.214  22.815  0.00  0.00    +0.000 C 
BRANCH  26  27
ATOM     27  C   UNL     1      -1.867  12.382  23.271  0.00  0.00    +0.000 A 
ATOM     28  C   UNL     1      -3.221  12.245  23.606  0.00  0.00    +0.000 A 
ATOM     29  C   UNL     1      -3.958  13.359  24.019  0.00  0.00    +0.000 A 
ATOM     30  C   UNL     1      -3.341  14.608  24.098  0.00  0.00    +0.000 A 
ATOM     31 CL   UNL     1      -4.249  15.981  24.598  0.00  0.00    +0.000 Cl
ATOM     32  C   UNL     1      -1.992  14.751  23.771  0.00  0.00    +0.000 A 
ATOM     33  C   UNL     1      -1.250  13.637  23.356  0.00  0.00    +0.000 A 
ENDBRANCH  26  27
ENDBRANCH  23  25
ENDBRANCH   4  21
TORSDOF 6
ENDMDL
MODEL 2
REMARK VINA RESULT:      -7.9      1.090      1.741
REMARK  Name = 
REMARK  6 active torsions:
REMARK  status: ('A' for Active; 'I' for Inactive)
REMARK    1  A    between atoms: C_4  and  C_5
REMARK    2  A    between atoms: N_7  and  N_8
REMARK    3  A    between atoms: C_9  and  C_10
REMARK    4  A    between atoms: N_18  and  C_19
REMARK    5  A    between atoms: C_22  and  S_23
REMARK    6  A    between atoms: S_23  and  N_24
REMARK                            x       y       z     vdW  Elec       q    Type
REMARK                         _______ _______ _______ _____ _____    ______ ____
ROOT
ATOM      1  N   UNL     1       1.683   4.739  20.779  0.00  0.00    +0.000 N 
ATOM      2  C   UNL     1       1.666   6.063  20.495  0.00  0.00    +0.000 A 
ATOM      3  N   UNL     1       0.817   6.937  20.987  0.00  0.00    +0.000 NA
ATOM      4  C   UNL     1       1.315   8.156  20.551  0.00  0.00    +0.000 A 
ATOM      5  N   UNL     1       2.465   8.057  19.865  0.00  0.00    +0.000 NA
ATOM      6  N   UNL     1       2.623   6.722  19.721  0.00  0.00    +0.000 N 
ATOM      7  H   UNL     1       1.124   4.456  21.579  0.00  0.00    +0.000 HD
ATOM      8  H   UNL     1       2.572   4.245  20.750  0.00  0.00    +0.000 HD
ENDROOT
BRANCH   6   9
ATOM      9  C   UNL     1       3.654   6.195  18.896  0.00  0.00    +0.000 A 
ATOM     10  C   UNL     1       3.798   6.688  17.589  0.00  0.00    +0.000 A 
ATOM     11  C   UNL     1       4.799   6.188  16.754  0.00  0.00    +0.000 A 
ATOM     12  C   UNL     1       5.637   5.170  17.214  0.00  0.00    +0.000 A 
ATOM     13  C   UNL     1       5.479   4.644  18.500  0.00  0.00    +0.000 A 
ATOM     14  C   UNL     1       4.495   5.165  19.348  0.00  0.00    +0.000 A 
BRANCH  12  15
ATOM     15  S   UNL     1       6.855   4.488  16.128  0.00  0.00    +0.000 S 
ATOM     16  O   UNL     1       8.035   4.147  16.888  0.00  0.00    +0.000 OA
ATOM     17  O   UNL     1       6.223   3.560  15.219  0.00  0.00    +0.000 OA
BRANCH  15  18
ATOM     18  N   UNL     1       7.275   5.824  15.200  0.00  0.00    +0.000 NA
ATOM     19  H   UNL     1       6.763   5.802  14.318  0.00  0.00    +0.000 HD
ATOM     20  H   UNL     1       7.122   6.676  15.740  0.00  0.00    +0.000 HD
ENDBRANCH  15  18
ENDBRANCH  12  15
ENDBRANCH   6   9
BRANCH   4  21
ATOM     21  C   UNL     1       0.655   9.454  20.834  0.00  0.00    +0.000 C 
ATOM     22  O   UNL     1       0.179  10.164  19.950  0.00  0.00    +0.000 OA
ATOM     23  N   UNL     1       0.630   9.776  22.193  0.00  0.00    +0.000 N 
ATOM     24  H   UNL     1       1.047   9.133  22.856  0.00  0.00    +0.000 HD
BRANCH  23  25
ATOM     25  N   UNL     1       0.067  10.955  22.601  0.00  0.00    +0.000 NA
ATOM     26  C   UNL     1      -1.209  10.955  22.812  0.00  0.00    +0.000 C 
BRANCH  26  27
ATOM     27  C   UNL     1      -1.918  12.176  23.268  0.00  0.00    +0.000 A 
ATOM     28  C   UNL     1      -1.271  13.419  23.283  0.00  0.00    +0.000 A 
ATOM     29  C   UNL     1      -1.947  14.557  23.730  0.00  0.00    +0.000 A 
ATOM     30  C   UNL     1      -3.271  14.453  24.162  0.00  0.00    +0.000 A 
ATOM     31 CL   UNL     1      -4.101  15.852  24.721  0.00  0.00    +0.000 Cl
ATOM     32  C   UNL     1      -3.923  13.220  24.145  0.00  0.00    +0.000 A 
ATOM     33  C   UNL     1      -3.247  12.076  23.698  0.00  0.00    +0.000 A 
ENDBRANCH  26  27
ENDBRANCH  23  25
ENDBRANCH   4  21
TORSDOF 6
ENDMDL
MODEL 3
REMARK VINA RESULT:      -7.8      0.865      1.260
REMARK  Name = 
REMARK  6 active torsions:
REMARK  status: ('A' for Active; 'I' for Inactive)
REMARK    1  A    between atoms: C_4  and  C_5
REMARK    2  A    between atoms: N_7  and  N_8
REMARK    3  A    between atoms: C_9  and  C_10
REMARK    4  A    between atoms: N_18  and  C_19
REMARK    5  A    between atoms: C_22  and  S_23
REMARK    6  A    between atoms: S_23  and  N_24
REMARK                            x       y       z     vdW  Elec       q    Type
REMARK                         _______ _______ _______ _____ _____    ______ ____
ROOT
ATOM      1  N   UNL     1       2.199   5.290  21.030  0.00  0.00    +0.000 N 
ATOM      2  C   UNL     1       1.932   6.505  20.495  0.00  0.00    +0.000 A 
ATOM      3  N   UNL     1       1.043   7.360  20.950  0.00  0.00    +0.000 NA
ATOM      4  C   UNL     1       1.272   8.501  20.196  0.00  0.00    +0.000 A 
ATOM      5  N   UNL     1       2.306   8.390  19.345  0.00  0.00    +0.000 NA
ATOM      6  N   UNL     1       2.646   7.085  19.444  0.00  0.00    +0.000 N 
ATOM      7  H   UNL     1       1.820   5.128  21.958  0.00  0.00    +0.000 HD
ATOM      8  H   UNL     1       3.139   4.912  20.938  0.00  0.00    +0.000 HD
ENDROOT
BRANCH   6   9
ATOM      9  C   UNL     1       3.608   6.514  18.567  0.00  0.00    +0.000 A 
ATOM     10  C   UNL     1       4.370   5.422  19.011  0.00  0.00    +0.000 A 
ATOM     11  C   UNL     1       5.324   4.842  18.174  0.00  0.00    +0.000 A 
ATOM     12  C   UNL     1       5.540   5.373  16.900  0.00  0.00    +0.000 A 
ATOM     13  C   UNL     1       4.813   6.485  16.460  0.00  0.00    +0.000 A 
ATOM     14  C   UNL     1       3.836   7.048  17.288  0.00  0.00    +0.000 A 
BRANCH  12  15
ATOM     15  S   UNL     1       6.801   4.682  15.871  0.00  0.00    +0.000 S 
ATOM     16  O   UNL     1       6.296   3.487  15.235  0.00  0.00    +0.000 OA
ATOM     17  O   UNL     1       7.453   5.738  15.131  0.00  0.00    +0.000 OA
BRANCH  15  18
ATOM     18  N   UNL     1       7.922   4.159  17.007  0.00  0.00    +0.000 NA
ATOM     19  H   UNL     1       7.803   4.686  17.873  0.00  0.00    +0.000 HD
ATOM     20  H   UNL     1       7.839   3.149  17.129  0.00  0.00    +0.000 HD
ENDBRANCH  15  18
ENDBRANCH  12  15
ENDBRANCH   6   9
BRANCH   4  21
ATOM     21  C   UNL     1       0.469   9.741  20.330  0.00  0.00    +0.000 C 
ATOM     22  O   UNL     1       0.509  10.651  19.504  0.00  0.00    +0.000 OA
ATOM     23  N   UNL     1      -0.327   9.762  21.477  0.00  0.00    +0.000 N 
ATOM     24  H   UNL     1      -0.299   8.969  22.107  0.00  0.00    +0.000 HD
BRANCH  23  25
ATOM     25  N   UNL     1      -1.110  10.853  21.740  0.00  0.00    +0.000 NA
ATOM     26  C   UNL     1      -1.118  11.292  22.957  0.00  0.00    +0.000 C 
BRANCH  26  27
ATOM     27  C   UNL     1      -1.921  12.476  23.348  0.00  0.00    +0.000 A 
ATOM     28  C   UNL     1      -1.347  13.753  23.385  0.00  0.00    +0.000 A 
ATOM     29  C   UNL     1      -2.113  14.857  23.770  0.00  0.00    +0.000 A 
ATOM     30  C   UNL     1      -3.454  14.683  24.116  0.00  0.00    +0.000 A 
ATOM     31 CL   UNL     1      -4.396  16.040  24.599  0.00  0.00    +0.000 Cl
ATOM     32  C   UNL     1      -4.034  13.415  24.077  0.00  0.00    +0.000 A 
ATOM     33  C   UNL     1      -3.269  12.306  23.692  0.00  0.00    +0.000 A 
ENDBRANCH  26  27
ENDBRANCH  23  25
ENDBRANCH   4  21
TORSDOF 6
ENDMDL
MODEL 4
REMARK VINA RESULT:      -7.7      5.595     11.505
REMARK  Name = 
REMARK  6 active torsions:
REMARK  status: ('A' for Active; 'I' for Inactive)
REMARK    1  A    between atoms: C_4  and  C_5
REMARK    2  A    between atoms: N_7  and  N_8
REMARK    3  A    between atoms: C_9  and  C_10
REMARK    4  A    between atoms: N_18  and  C_19
REMARK    5  A    between atoms: C_22  and  S_23
REMARK    6  A    between atoms: S_23  and  N_24
REMARK                            x       y       z     vdW  Elec       q    Type
REMARK                         _______ _______ _______ _____ _____    ______ ____
ROOT
ATOM      1  N   UNL     1      -0.402   9.344  23.819  0.00  0.00    +0.000 N 
ATOM      2  C   UNL     1      -0.069   9.705  22.557  0.00  0.00    +0.000 A 
ATOM      3  N   UNL     1       0.609   8.966  21.707  0.00  0.00    +0.000 NA
ATOM      4  C   UNL     1       0.532   9.680  20.521  0.00  0.00    +0.000 A 
ATOM      5  N   UNL     1      -0.218  10.791  20.606  0.00  0.00    +0.000 NA
ATOM      6  N   UNL     1      -0.496  10.875  21.925  0.00  0.00    +0.000 N 
ATOM      7  H   UNL     1      -0.286   8.359  24.038  0.00  0.00    +0.000 HD
ATOM      8  H   UNL     1      -1.257   9.719  24.224  0.00  0.00    +0.000 HD
ENDROOT
BRANCH   6   9
ATOM      9  C   UNL     1      -1.144  12.021  22.463  0.00  0.00    +0.000 A 
ATOM     10  C   UNL     1      -0.489  13.261  22.405  0.00  0.00    +0.000 A 
ATOM     11  C   UNL     1      -1.098  14.404  22.927  0.00  0.00    +0.000 A 
ATOM     12  C   UNL     1      -2.350  14.301  23.537  0.00  0.00    +0.000 A 
ATOM     13  C   UNL     1      -2.995  13.064  23.636  0.00  0.00    +0.000 A 
ATOM     14  C   UNL     1      -2.399  11.924  23.086  0.00  0.00    +0.000 A 
BRANCH  12  15
ATOM     15  S   UNL     1      -3.084  15.737  24.264  0.00  0.00    +0.000 S 
ATOM     16  O   UNL     1      -2.557  15.919  25.597  0.00  0.00    +0.000 OA
ATOM     17  O   UNL     1      -3.120  16.805  23.292  0.00  0.00    +0.000 OA
BRANCH  15  18
ATOM     18  N   UNL     1      -4.678  15.245  24.463  0.00  0.00    +0.000 NA
ATOM     19  H   UNL     1      -4.947  14.636  23.689  0.00  0.00    +0.000 HD
ATOM     20  H   UNL     1      -4.790  14.812  25.381  0.00  0.00    +0.000 HD
ENDBRANCH  15  18
ENDBRANCH  12  15
ENDBRANCH   6   9
BRANCH   4  21
ATOM     21  C   UNL     1       1.194   9.248  19.266  0.00  0.00    +0.000 C 
ATOM     22  O   UNL     1       1.085   9.870  18.210  0.00  0.00    +0.000 OA
ATOM     23  N   UNL     1       1.944   8.080  19.411  0.00  0.00    +0.000 N 
ATOM     24  H   UNL     1       1.979   7.630  20.318  0.00  0.00    +0.000 HD
BRANCH  23  25
ATOM     25  N   UNL     1       2.597   7.554  18.329  0.00  0.00    +0.000 NA
ATOM     26  C   UNL     1       3.312   6.495  18.531  0.00  0.00    +0.000 C 
BRANCH  26  27
ATOM     27  C   UNL     1       4.050   5.837  17.425  0.00  0.00    +0.000 A 
ATOM     28  C   UNL     1       4.017   4.445  17.268  0.00  0.00    +0.000 A 
ATOM     29  C   UNL     1       4.731   3.838  16.230  0.00  0.00    +0.000 A 
ATOM     30  C   UNL     1       5.476   4.624  15.349  0.00  0.00    +0.000 A 
ATOM     31 CL   UNL     1       6.361   3.878  14.077  0.00  0.00    +0.000 Cl
ATOM     32  C   UNL     1       5.509   6.011  15.497  0.00  0.00    +0.000 A 
ATOM     33  C   UNL     1       4.795   6.622  16.536  0.00  0.00    +0.000 A 
ENDBRANCH  26  27
ENDBRANCH  23  25
ENDBRANCH   4  21
TORSDOF 6
ENDMDL
MODEL 5
REMARK VINA RESULT:      -7.7      6.015     11.516
REMARK  Name = 
REMARK  6 active torsions:
REMARK  status: ('A' for Active; 'I' for Inactive)
REMARK    1  A    between atoms: C_4  and  C_5
REMARK    2  A    between atoms: N_7  and  N_8
REMARK    3  A    between atoms: C_9  and  C_10
REMARK    4  A    between atoms: N_18  and  C_19
REMARK    5  A    between atoms: C_22  and  S_23
REMARK    6  A    between atoms: S_23  and  N_24
REMARK                            x       y       z     vdW  Elec       q    Type
REMARK                         _______ _______ _______ _____ _____    ______ ____
ROOT
ATOM      1  N   UNL     1      -0.542  14.295  21.812  0.00  0.00    +0.000 N 
ATOM      2  C   UNL     1      -0.499  12.943  21.858  0.00  0.00    +0.000 A 
ATOM      3  N   UNL     1       0.560  12.205  21.608  0.00  0.00    +0.000 NA
ATOM      4  C   UNL     1       0.158  10.927  21.962  0.00  0.00    +0.000 A 
ATOM      5  N   UNL     1      -1.083  10.871  22.474  0.00  0.00    +0.000 NA
ATOM      6  N   UNL     1      -1.546  12.127  22.292  0.00  0.00    +0.000 N 
ATOM      7  H   UNL     1       0.360  14.761  21.775  0.00  0.00    +0.000 HD
ATOM      8  H   UNL     1      -1.192  14.784  22.424  0.00  0.00    +0.000 HD
ENDROOT
BRANCH   6   9
ATOM      9  C   UNL     1      -2.906  12.448  22.556  0.00  0.00    +0.000 A 
ATOM     10  C   UNL     1      -3.368  12.415  23.881  0.00  0.00    +0.000 A 
ATOM     11  C   UNL     1      -4.698  12.722  24.171  0.00  0.00    +0.000 A 
ATOM     12  C   UNL     1      -5.577  13.033  23.131  0.00  0.00    +0.000 A 
ATOM     13  C   UNL     1      -5.138  13.032  21.803  0.00  0.00    +0.000 A 
ATOM     14  C   UNL     1      -3.798  12.753  21.515  0.00  0.00    +0.000 A 
BRANCH  12  15
ATOM     15  S   UNL     1      -7.279  13.348  23.495  0.00  0.00    +0.000 S 
ATOM     16  O   UNL     1      -7.896  12.134  23.980  0.00  0.00    +0.000 OA
ATOM     17  O   UNL     1      -7.398  14.609  24.190  0.00  0.00    +0.000 OA
BRANCH  15  18
ATOM     18  N   UNL     1      -7.916  13.607  21.963  0.00  0.00    +0.000 NA
ATOM     19  H   UNL     1      -7.719  12.800  21.370  0.00  0.00    +0.000 HD
ATOM     20  H   UNL     1      -8.911  13.824  22.038  0.00  0.00    +0.000 HD
ENDBRANCH  15  18
ENDBRANCH  12  15
ENDBRANCH   6   9
BRANCH   4  21
ATOM     21  C   UNL     1       1.023   9.730  21.814  0.00  0.00    +0.000 C 
ATOM     22  O   UNL     1       1.698   9.280  22.739  0.00  0.00    +0.000 OA
ATOM     23  N   UNL     1       0.987   9.178  20.533  0.00  0.00    +0.000 N 
ATOM     24  H   UNL     1       0.403   9.613  19.828  0.00  0.00    +0.000 HD
BRANCH  23  25
ATOM     25  N   UNL     1       1.750   8.078  20.246  0.00  0.00    +0.000 NA
ATOM     26  C   UNL     1       1.297   6.930  20.633  0.00  0.00    +0.000 C 
BRANCH  26  27
ATOM     27  C   UNL     1       2.039   5.674  20.362  0.00  0.00    +0.000 A 
ATOM     28  C   UNL     1       3.272   5.697  19.696  0.00  0.00    +0.000 A 
ATOM     29  C   UNL     1       3.951   4.504  19.435  0.00  0.00    +0.000 A 
ATOM     30  C   UNL     1       3.398   3.288  19.841  0.00  0.00    +0.000 A 
ATOM     31 CL   UNL     1       4.229   1.818  19.512  0.00  0.00    +0.000 Cl
ATOM     32  C   UNL     1       2.174   3.258  20.509  0.00  0.00    +0.000 A 
ATOM     33  C   UNL     1       1.490   4.452  20.772  0.00  0.00    +0.000 A 
ENDBRANCH  26  27
ENDBRANCH  23  25
ENDBRANCH   4  21
TORSDOF 6
ENDMDL
MODEL 6
REMARK VINA RESULT:      -7.6      0.510      1.390
REMARK  Name = 
REMARK  6 active torsions:
REMARK  status: ('A' for Active; 'I' for Inactive)
REMARK    1  A    between atoms: C_4  and  C_5
REMARK    2  A    between atoms: N_7  and  N_8
REMARK    3  A    between atoms: C_9  and  C_10
REMARK    4  A    between atoms: N_18  and  C_19
REMARK    5  A    between atoms: C_22  and  S_23
REMARK    6  A    between atoms: S_23  and  N_24
REMARK                            x       y       z     vdW  Elec       q    Type
REMARK                         _______ _______ _______ _____ _____    ______ ____
ROOT
ATOM      1  N   UNL     1       2.333   4.955  20.937  0.00  0.00    +0.000 N 
ATOM      2  C   UNL     1       2.037   6.186  20.458  0.00  0.00    +0.000 A 
ATOM      3  N   UNL     1       1.166   7.019  20.982  0.00  0.00    +0.000 NA
ATOM      4  C   UNL     1       1.356   8.187  20.258  0.00  0.00    +0.000 A 
ATOM      5  N   UNL     1       2.350   8.110  19.358  0.00  0.00    +0.000 NA
ATOM      6  N   UNL     1       2.699   6.806  19.396  0.00  0.00    +0.000 N 
ATOM      7  H   UNL     1       1.997   4.759  21.876  0.00  0.00    +0.000 HD
ATOM      8  H   UNL     1       3.269   4.585  20.790  0.00  0.00    +0.000 HD
ENDROOT
BRANCH   6   9
ATOM      9  C   UNL     1       3.622   6.270  18.456  0.00  0.00    +0.000 A 
ATOM     10  C   UNL     1       4.477   7.146  17.768  0.00  0.00    +0.000 A 
ATOM     11  C   UNL     1       5.392   6.651  16.837  0.00  0.00    +0.000 A 
ATOM     12  C   UNL     1       5.431   5.280  16.570  0.00  0.00    +0.000 A 
ATOM     13  C   UNL     1       4.559   4.402  17.221  0.00  0.00    +0.000 A 
ATOM     14  C   UNL     1       3.662   4.895  18.176  0.00  0.00    +0.000 A 
BRANCH  12  15
ATOM     15  S   UNL     1       6.540   4.666  15.336  0.00  0.00    +0.000 S 
ATOM     16  O   UNL     1       6.281   5.341  14.085  0.00  0.00    +0.000 OA
ATOM     17  O   UNL     1       7.867   4.550  15.895  0.00  0.00    +0.000 OA
BRANCH  15  18
ATOM     18  N   UNL     1       5.989   3.092  15.132  0.00  0.00    +0.000 NA
ATOM     19  H   UNL     1       5.012   3.032  15.422  0.00  0.00    +0.000 HD
ATOM     20  H   UNL     1       6.148   2.797  14.168  0.00  0.00    +0.000 HD
ENDBRANCH  15  18
ENDBRANCH  12  15
ENDBRANCH   6   9
BRANCH   4  21
ATOM     21  C   UNL     1       0.554   9.417  20.472  0.00  0.00    +0.000 C 
ATOM     22  O   UNL     1      -0.236   9.849  19.634  0.00  0.00    +0.000 OA
ATOM     23  N   UNL     1       0.789  10.020  21.709  0.00  0.00    +0.000 N 
ATOM     24  H   UNL     1       1.459   9.598  22.341  0.00  0.00    +0.000 HD
BRANCH  23  25
ATOM     25  N   UNL     1       0.131  11.175  22.036  0.00  0.00    +0.000 NA
ATOM     26  C   UNL     1      -0.962  11.057  22.718  0.00  0.00    +0.000 C 
BRANCH  26  27
ATOM     27  C   UNL     1      -1.746  12.245  23.135  0.00  0.00    +0.000 A 
ATOM     28  C   UNL     1      -1.186  13.528  23.087  0.00  0.00    +0.000 A 
ATOM     29  C   UNL     1      -1.933  14.636  23.499  0.00  0.00    +0.000 A 
ATOM     30  C   UNL     1      -3.240  14.460  23.957  0.00  0.00    +0.000 A 
ATOM     31 CL   UNL     1      -4.156  15.822  24.471  0.00  0.00    +0.000 Cl
ATOM     32  C   UNL     1      -3.806  13.186  24.002  0.00  0.00    +0.000 A 
ATOM     33  C   UNL     1      -3.060  12.073  23.590  0.00  0.00    +0.000 A 
ENDBRANCH  26  27
ENDBRANCH  23  25
ENDBRANCH   4  21
TORSDOF 6
ENDMDL
MODEL 7
REMARK VINA RESULT:      -7.5      0.819      1.402
REMARK  Name = 
REMARK  6 active torsions:
REMARK  status: ('A' for Active; 'I' for Inactive)
REMARK    1  A    between atoms: C_4  and  C_5
REMARK    2  A    between atoms: N_7  and  N_8
REMARK    3  A    between atoms: C_9  and  C_10
REMARK    4  A    between atoms: N_18  and  C_19
REMARK    5  A    between atoms: C_22  and  S_23
REMARK    6  A    between atoms: S_23  and  N_24
REMARK                            x       y       z     vdW  Elec       q    Type
REMARK                         _______ _______ _______ _____ _____    ______ ____
ROOT
ATOM      1  N   UNL     1       2.421   5.289  20.940  0.00  0.00    +0.000 N 
ATOM      2  C   UNL     1       2.057   6.456  20.357  0.00  0.00    +0.000 A 
ATOM      3  N   UNL     1       1.165   7.298  20.829  0.00  0.00    +0.000 NA
ATOM      4  C   UNL     1       1.282   8.399  19.995  0.00  0.00    +0.000 A 
ATOM      5  N   UNL     1       2.252   8.279  19.073  0.00  0.00    +0.000 NA
ATOM      6  N   UNL     1       2.661   7.000  19.222  0.00  0.00    +0.000 N 
ATOM      7  H   UNL     1       2.121   5.169  21.903  0.00  0.00    +0.000 HD
ATOM      8  H   UNL     1       3.368   4.947  20.797  0.00  0.00    +0.000 HD
ENDROOT
BRANCH   6   9
ATOM      9  C   UNL     1       3.580   6.417  18.306  0.00  0.00    +0.000 A 
ATOM     10  C   UNL     1       3.487   5.043  18.031  0.00  0.00    +0.000 A 
ATOM     11  C   UNL     1       4.377   4.442  17.140  0.00  0.00    +0.000 A 
ATOM     12  C   UNL     1       5.382   5.208  16.545  0.00  0.00    +0.000 A 
ATOM     13  C   UNL     1       5.508   6.570  16.840  0.00  0.00    +0.000 A 
ATOM     14  C   UNL     1       4.598   7.179  17.711  0.00  0.00    +0.000 A 
BRANCH  12  15
ATOM     15  S   UNL     1       6.553   4.427  15.474  0.00  0.00    +0.000 S 
ATOM     16  O   UNL     1       7.833   4.354  16.140  0.00  0.00    +0.000 OA
ATOM     17  O   UNL     1       5.940   3.281  14.844  0.00  0.00    +0.000 OA
BRANCH  15  18
ATOM     18  N   UNL     1       6.730   5.577  14.262  0.00  0.00    +0.000 NA
ATOM     19  H   UNL     1       7.487   5.300  13.636  0.00  0.00    +0.000 HD
ATOM     20  H   UNL     1       5.837   5.714  13.788  0.00  0.00    +0.000 HD
ENDBRANCH  15  18
ENDBRANCH  12  15
ENDBRANCH   6   9
BRANCH   4  21
ATOM     21  C   UNL     1       0.433   9.609  20.118  0.00  0.00    +0.000 C 
ATOM     22  O   UNL     1       0.279  10.409  19.197  0.00  0.00    +0.000 OA
ATOM     23  N   UNL     1      -0.165   9.738  21.373  0.00  0.00    +0.000 N 
ATOM     24  H   UNL     1       0.016   9.032  22.077  0.00  0.00    +0.000 HD
BRANCH  23  25
ATOM     25  N   UNL     1      -0.963  10.818  21.637  0.00  0.00    +0.000 NA
ATOM     26  C   UNL     1      -0.975  11.258  22.854  0.00  0.00    +0.000 C 
BRANCH  26  27
ATOM     27  C   UNL     1      -1.795  12.430  23.245  0.00  0.00    +0.000 A 
ATOM     28  C   UNL     1      -1.215  13.698  23.387  0.00  0.00    +0.000 A 
ATOM     29  C   UNL     1      -1.998  14.790  23.771  0.00  0.00    +0.000 A 
ATOM     30  C   UNL     1      -3.362  14.615  24.012  0.00  0.00    +0.000 A 
ATOM     31 CL   UNL     1      -4.325  15.956  24.493  0.00  0.00    +0.000 Cl
ATOM     32  C   UNL     1      -3.948  13.357  23.867  0.00  0.00    +0.000 A 
ATOM     33  C   UNL     1      -3.165  12.260  23.483  0.00  0.00    +0.000 A 
ENDBRANCH  26  27
ENDBRANCH  23  25
ENDBRANCH   4  21
TORSDOF 6
ENDMDL
MODEL 8
REMARK VINA RESULT:      -7.5      5.640     11.543
REMARK  Name = 
REMARK  6 active torsions:
REMARK  status: ('A' for Active; 'I' for Inactive)
REMARK    1  A    between atoms: C_4  and  C_5
REMARK    2  A    between atoms: N_7  and  N_8
REMARK    3  A    between atoms: C_9  and  C_10
REMARK    4  A    between atoms: N_18  and  C_19
REMARK    5  A    between atoms: C_22  and  S_23
REMARK    6  A    between atoms: S_23  and  N_24
REMARK                            x       y       z     vdW  Elec       q    Type
REMARK                         _______ _______ _______ _____ _____    ______ ____
ROOT
ATOM      1  N   UNL     1      -0.615   9.697  23.557  0.00  0.00    +0.000 N 
ATOM      2  C   UNL     1      -0.244  10.013  22.294  0.00  0.00    +0.000 A 
ATOM      3  N   UNL     1       0.536   9.287  21.523  0.00  0.00    +0.000 NA
ATOM      4  C   UNL     1       0.465   9.924  20.294  0.00  0.00    +0.000 A 
ATOM      5  N   UNL     1      -0.374  10.973  20.275  0.00  0.00    +0.000 NA
ATOM      6  N   UNL     1      -0.728  11.107  21.573  0.00  0.00    +0.000 N 
ATOM      7  H   UNL     1      -0.432   8.738  23.839  0.00  0.00    +0.000 HD
ATOM      8  H   UNL     1      -1.517  10.022  23.896  0.00  0.00    +0.000 HD
ENDROOT
BRANCH   6   9
ATOM      9  C   UNL     1      -1.493  12.223  22.009  0.00  0.00    +0.000 A 
ATOM     10  C   UNL     1      -2.701  12.517  21.357  0.00  0.00    +0.000 A 
ATOM     11  C   UNL     1      -3.471  13.609  21.760  0.00  0.00    +0.000 A 
ATOM     12  C   UNL     1      -3.019  14.428  22.798  0.00  0.00    +0.000 A 
ATOM     13  C   UNL     1      -1.799  14.167  23.430  0.00  0.00    +0.000 A 
ATOM     14  C   UNL     1      -1.040  13.056  23.045  0.00  0.00    +0.000 A 
BRANCH  12  15
ATOM     15  S   UNL     1      -3.962  15.852  23.256  0.00  0.00    +0.000 S 
ATOM     16  O   UNL     1      -3.089  17.002  23.318  0.00  0.00    +0.000 OA
ATOM     17  O   UNL     1      -5.207  15.863  22.523  0.00  0.00    +0.000 OA
BRANCH  15  18
ATOM     18  N   UNL     1      -4.369  15.498  24.846  0.00  0.00    +0.000 NA
ATOM     19  H   UNL     1      -5.224  15.994  25.099  0.00  0.00    +0.000 HD
ATOM     20  H   UNL     1      -4.434  14.486  24.965  0.00  0.00    +0.000 HD
ENDBRANCH  15  18
ENDBRANCH  12  15
ENDBRANCH   6   9
BRANCH   4  21
ATOM     21  C   UNL     1       1.226   9.480  19.101  0.00  0.00    +0.000 C 
ATOM     22  O   UNL     1       1.329  10.166  18.085  0.00  0.00    +0.000 OA
ATOM     23  N   UNL     1       1.805   8.219  19.254  0.00  0.00    +0.000 N 
ATOM     24  H   UNL     1       1.669   7.720  20.125  0.00  0.00    +0.000 HD
BRANCH  23  25
ATOM     25  N   UNL     1       2.523   7.672  18.225  0.00  0.00    +0.000 NA
ATOM     26  C   UNL     1       3.187   6.592  18.479  0.00  0.00    +0.000 C 
BRANCH  26  27
ATOM     27  C   UNL     1       3.988   5.911  17.433  0.00  0.00    +0.000 A 
ATOM     28  C   UNL     1       4.743   6.650  16.511  0.00  0.00    +0.000 A 
ATOM     29  C   UNL     1       5.480   5.993  15.521  0.00  0.00    +0.000 A 
ATOM     30  C   UNL     1       5.464   4.599  15.454  0.00  0.00    +0.000 A 
ATOM     31 CL   UNL     1       6.365   3.791  14.231  0.00  0.00    +0.000 Cl
ATOM     32  C   UNL     1       4.720   3.857  16.372  0.00  0.00    +0.000 A 
ATOM     33  C   UNL     1       3.979   4.512  17.365  0.00  0.00    +0.000 A 
ENDBRANCH  26  27
ENDBRANCH  23  25
ENDBRANCH   4  21
TORSDOF 6
ENDMDL
MODEL 9
REMARK VINA RESULT:      -7.4      5.790     11.404
REMARK  Name = 
REMARK  6 active torsions:
REMARK  status: ('A' for Active; 'I' for Inactive)
REMARK    1  A    between atoms: C_4  and  C_5
REMARK    2  A    between atoms: N_7  and  N_8
REMARK    3  A    between atoms: C_9  and  C_10
REMARK    4  A    between atoms: N_18  and  C_19
REMARK    5  A    between atoms: C_22  and  S_23
REMARK    6  A    between atoms: S_23  and  N_24
REMARK                            x       y       z     vdW  Elec       q    Type
REMARK                         _______ _______ _______ _____ _____    ______ ____
ROOT
ATOM      1  N   UNL     1      -0.781  15.485  19.647  0.00  0.00    +0.000 N 
ATOM      2  C   UNL     1      -0.469  14.181  19.464  0.00  0.00    +0.000 A 
ATOM      3  N   UNL     1       0.529  13.730  18.737  0.00  0.00    +0.000 NA
ATOM      4  C   UNL     1       0.544  12.371  19.009  0.00  0.00    +0.000 A 
ATOM      5  N   UNL     1      -0.367  11.991  19.920  0.00  0.00    +0.000 NA
ATOM      6  N   UNL     1      -1.092  13.115  20.116  0.00  0.00    +0.000 N 
ATOM      7  H   UNL     1      -0.069  16.150  19.359  0.00  0.00    +0.000 HD
ATOM      8  H   UNL     1      -1.222  15.764  20.520  0.00  0.00    +0.000 HD
ENDROOT
BRANCH   6   9
ATOM      9  C   UNL     1      -2.278  13.089  20.900  0.00  0.00    +0.000 A 
ATOM     10  C   UNL     1      -3.508  12.854  20.265  0.00  0.00    +0.000 A 
ATOM     11  C   UNL     1      -4.690  12.827  21.007  0.00  0.00    +0.000 A 
ATOM     12  C   UNL     1      -4.647  13.066  22.383  0.00  0.00    +0.000 A 
ATOM     13  C   UNL     1      -3.433  13.339  23.020  0.00  0.00    +0.000 A 
ATOM     14  C   UNL     1      -2.244  13.338  22.282  0.00  0.00    +0.000 A 
BRANCH  12  15
ATOM     15  S   UNL     1      -6.155  13.104  23.307  0.00  0.00    +0.000 S 
ATOM     16  O   UNL     1      -7.265  13.289  22.400  0.00  0.00    +0.000 OA
ATOM     17  O   UNL     1      -6.135  12.060  24.305  0.00  0.00    +0.000 OA
BRANCH  15  18
ATOM     18  N   UNL     1      -6.004  14.549  24.150  0.00  0.00    +0.000 NA
ATOM     19  H   UNL     1      -5.093  14.584  24.608  0.00  0.00    +0.000 HD
ATOM     20  H   UNL     1      -6.175  15.332  23.519  0.00  0.00    +0.000 HD
ENDBRANCH  15  18
ENDBRANCH  12  15
ENDBRANCH   6   9
BRANCH   4  21
ATOM     21  C   UNL     1       1.493  11.423  18.375  0.00  0.00    +0.000 C 
ATOM     22  O   UNL     1       2.631  11.748  18.038  0.00  0.00    +0.000 OA
ATOM     23  N   UNL     1       0.965  10.142  18.208  0.00  0.00    +0.000 N 
ATOM     24  H   UNL     1       0.016   9.960  18.513  0.00  0.00    +0.000 HD
BRANCH  23  25
ATOM     25  N   UNL     1       1.723   9.167  17.619  0.00  0.00    +0.000 NA
ATOM     26  C   UNL     1       2.207   8.250  18.393  0.00  0.00    +0.000 C 
BRANCH  26  27
ATOM     27  C   UNL     1       3.031   7.140  17.857  0.00  0.00    +0.000 A 
ATOM     28  C   UNL     1       2.694   5.804  18.115  0.00  0.00    +0.000 A 
ATOM     29  C   UNL     1       3.489   4.770  17.615  0.00  0.00    +0.000 A 
ATOM     30  C   UNL     1       4.621   5.070  16.855  0.00  0.00    +0.000 A 
ATOM     31 CL   UNL     1       5.606   3.797  16.247  0.00  0.00    +0.000 Cl
ATOM     32  C   UNL     1       4.960   6.397  16.589  0.00  0.00    +0.000 A 
ATOM     33  C   UNL     1       4.165   7.437  17.089  0.00  0.00    +0.000 A 
ENDBRANCH  26  27
ENDBRANCH  23  25
ENDBRANCH   4  21
TORSDOF 6
ENDMDL
