MODEL 1
REMARK VINA RESULT:      -7.4      0.000      0.000
REMARK  Name = 
REMARK  6 active torsions:
REMARK  status: ('A' for Active; 'I' for Inactive)
REMARK    1  A    between atoms: C_1  and  N_2
REMARK    2  A    between atoms: C_6  and  C_8
REMARK    3  A    between atoms: C_8  and  C_9
REMARK    4  A    between atoms: C_9  and  N_10
REMARK    5  A    between atoms: N_13  and  C_14
REMARK    6  A    between atoms: C_14  and  C_15
REMARK                            x       y       z     vdW  Elec       q    Type
REMARK                         _______ _______ _______ _____ _____    ______ ____
ROOT
ATOM      1  N   UNL     1       4.786   4.878  17.676  0.00  0.00    +0.000 NA
ATOM      2  C   UNL     1       4.949   6.330  17.932  0.00  0.00    +0.000 C 
ATOM      3  C   UNL     1       3.696   7.191  17.656  0.00  0.00    +0.000 C 
ATOM      4  N   UNL     1       2.459   6.711  18.312  0.00  0.00    +0.000 NA
ATOM      5  C   UNL     1       2.296   5.267  18.041  0.00  0.00    +0.000 C 
ATOM      6  C   UNL     1       3.552   4.413  18.354  0.00  0.00    +0.000 C 
ENDROOT
BRANCH   1   7
ATOM      7  C   UNL     1       4.739   4.525  16.240  0.00  0.00    +0.000 C 
BRANCH   7   8
ATOM      8  C   UNL     1       5.697   5.329  15.358  0.00  0.00    +0.000 C 
BRANCH   8  14
ATOM      9  C   UNL     1       7.268   1.952  10.956  0.00  0.00    +0.000 C 
ATOM     10  N   UNL     1       6.886   2.835  12.017  0.00  0.00    +0.000 N 
ATOM     11  C   UNL     1       5.591   3.185  12.250  0.00  0.00    +0.000 C 
ATOM     12  O   UNL     1       4.642   2.784  11.582  0.00  0.00    +0.000 OA
ATOM     13  N   UNL     1       5.388   4.019  13.314  0.00  0.00    +0.000 N 
ATOM     14  C   UNL     1       6.302   4.559  14.200  0.00  0.00    +0.000 C 
ATOM     15  O   UNL     1       7.518   4.381  14.124  0.00  0.00    +0.000 OA
ATOM     16  H   UNL     1       7.597   3.265  12.608  0.00  0.00    +0.000 HD
ATOM     17  H   UNL     1       4.406   4.249  13.459  0.00  0.00    +0.000 HD
ENDBRANCH   8  14
ENDBRANCH   7   8
ENDBRANCH   1   7
BRANCH   4  18
ATOM     18  C   UNL     1       2.462   6.955  19.767  0.00  0.00    +0.000 C 
BRANCH  18  19
ATOM     19  C   UNL     1       1.628   8.145  20.191  0.00  0.00    +0.000 A 
ATOM     20  C   UNL     1       1.309   9.148  19.248  0.00  0.00    +0.000 A 
ATOM     21  C   UNL     1       0.566  10.271  19.616  0.00  0.00    +0.000 A 
ATOM     22  C   UNL     1       0.129  10.350  20.920  0.00  0.00    +0.000 A 
ATOM     23  C   UNL     1       0.413   9.367  21.855  0.00  0.00    +0.000 A 
ATOM     24  C   UNL     1       1.179   8.266  21.518  0.00  0.00    +0.000 A 
ATOM     25  C   UNL     1      -0.182   9.747  23.155  0.00  0.00    +0.000 C 
ATOM     26  C   UNL     1      -1.121  10.851  22.668  0.00  0.00    +0.000 C 
ATOM     27  O   UNL     1      -0.618  11.386  21.421  0.00  0.00    +0.000 OA
ENDBRANCH  18  19
ENDBRANCH   4  18
TORSDOF 5
ENDMDL
MODEL 2
REMARK VINA RESULT:      -7.3      5.195      7.608
REMARK  Name = 
REMARK  6 active torsions:
REMARK  status: ('A' for Active; 'I' for Inactive)
REMARK    1  A    between atoms: C_1  and  N_2
REMARK    2  A    between atoms: C_6  and  C_8
REMARK    3  A    between atoms: C_8  and  C_9
REMARK    4  A    between atoms: C_9  and  N_10
REMARK    5  A    between atoms: N_13  and  C_14
REMARK    6  A    between atoms: C_14  and  C_15
REMARK                            x       y       z     vdW  Elec       q    Type
REMARK                         _______ _______ _______ _____ _____    ______ ____
ROOT
ATOM      1  N   UNL     1       7.013   6.015  18.188  0.00  0.00    +0.000 NA
ATOM      2  C   UNL     1       5.541   5.945  18.366  0.00  0.00    +0.000 C 
ATOM      3  C   UNL     1       4.724   5.845  17.060  0.00  0.00    +0.000 C 
ATOM      4  N   UNL     1       5.160   4.772  16.138  0.00  0.00    +0.000 NA
ATOM      5  C   UNL     1       6.624   4.858  15.953  0.00  0.00    +0.000 C 
ATOM      6  C   UNL     1       7.432   4.924  17.276  0.00  0.00    +0.000 C 
ENDROOT
BRANCH   1   7
ATOM      7  C   UNL     1       7.491   7.318  17.674  0.00  0.00    +0.000 C 
BRANCH   7   8
ATOM      8  C   UNL     1       8.536   8.002  18.558  0.00  0.00    +0.000 C 
BRANCH   8  14
ATOM      9  C   UNL     1       9.003  13.744  18.815  0.00  0.00    +0.000 C 
ATOM     10  N   UNL     1       8.928  12.318  18.713  0.00  0.00    +0.000 N 
ATOM     11  C   UNL     1       9.624  11.485  19.536  0.00  0.00    +0.000 C 
ATOM     12  O   UNL     1      10.370  11.873  20.430  0.00  0.00    +0.000 OA
ATOM     13  N   UNL     1       9.427  10.149  19.326  0.00  0.00    +0.000 N 
ATOM     14  C   UNL     1       8.619   9.509  18.404  0.00  0.00    +0.000 C 
ATOM     15  O   UNL     1       7.946  10.097  17.558  0.00  0.00    +0.000 OA
ATOM     16  H   UNL     1       8.371  11.884  17.976  0.00  0.00    +0.000 HD
ATOM     17  H   UNL     1       9.958   9.562  19.967  0.00  0.00    +0.000 HD
ENDBRANCH   8  14
ENDBRANCH   7   8
ENDBRANCH   1   7
BRANCH   4  18
ATOM     18  C   UNL     1       4.790   3.428  16.621  0.00  0.00    +0.000 C 
BRANCH  18  19
ATOM     19  C   UNL     1       3.673   3.431  17.643  0.00  0.00    +0.000 A 
ATOM     20  C   UNL     1       2.368   3.811  17.253  0.00  0.00    +0.000 A 
ATOM     21  C   UNL     1       1.325   3.850  18.179  0.00  0.00    +0.000 A 
ATOM     22  C   UNL     1       1.603   3.476  19.474  0.00  0.00    +0.000 A 
ATOM     23  C   UNL     1       2.870   3.080  19.872  0.00  0.00    +0.000 A 
ATOM     24  C   UNL     1       3.925   3.070  18.978  0.00  0.00    +0.000 A 
ATOM     25  C   UNL     1       2.846   2.754  21.315  0.00  0.00    +0.000 C 
ATOM     26  C   UNL     1       1.332   2.669  21.510  0.00  0.00    +0.000 C 
ATOM     27  O   UNL     1       0.678   3.454  20.486  0.00  0.00    +0.000 OA
ENDBRANCH  18  19
ENDBRANCH   4  18
TORSDOF 5
ENDMDL
MODEL 3
REMARK VINA RESULT:      -7.3      5.282      7.786
REMARK  Name = 
REMARK  6 active torsions:
REMARK  status: ('A' for Active; 'I' for Inactive)
REMARK    1  A    between atoms: C_1  and  N_2
REMARK    2  A    between atoms: C_6  and  C_8
REMARK    3  A    between atoms: C_8  and  C_9
REMARK    4  A    between atoms: C_9  and  N_10
REMARK    5  A    between atoms: N_13  and  C_14
REMARK    6  A    between atoms: C_14  and  C_15
REMARK                            x       y       z     vdW  Elec       q    Type
REMARK                         _______ _______ _______ _____ _____    ______ ____
ROOT
ATOM      1  N   UNL     1       7.478   6.128  17.318  0.00  0.00    +0.000 NA
ATOM      2  C   UNL     1       6.533   5.768  18.403  0.00  0.00    +0.000 C 
ATOM      3  C   UNL     1       5.055   6.126  18.133  0.00  0.00    +0.000 C 
ATOM      4  N   UNL     1       4.527   5.639  16.838  0.00  0.00    +0.000 NA
ATOM      5  C   UNL     1       5.467   6.014  15.761  0.00  0.00    +0.000 C 
ATOM      6  C   UNL     1       6.941   5.618  16.034  0.00  0.00    +0.000 C 
ENDROOT
BRANCH   1   7
ATOM      7  C   UNL     1       7.747   7.580  17.215  0.00  0.00    +0.000 C 
BRANCH   7   8
ATOM      8  C   UNL     1       8.350   8.203  18.476  0.00  0.00    +0.000 C 
BRANCH   8  14
ATOM      9  C   UNL     1       9.515  13.827  18.990  0.00  0.00    +0.000 C 
ATOM     10  N   UNL     1       9.266  12.427  18.824  0.00  0.00    +0.000 N 
ATOM     11  C   UNL     1       9.855  11.479  19.605  0.00  0.00    +0.000 C 
ATOM     12  O   UNL     1      10.643  11.731  20.511  0.00  0.00    +0.000 OA
ATOM     13  N   UNL     1       9.496  10.187  19.336  0.00  0.00    +0.000 N 
ATOM     14  C   UNL     1       8.617   9.693  18.390  0.00  0.00    +0.000 C 
ATOM     15  O   UNL     1       8.020  10.397  17.575  0.00  0.00    +0.000 OA
ATOM     16  H   UNL     1       8.661  12.098  18.072  0.00  0.00    +0.000 HD
ATOM     17  H   UNL     1       9.952   9.511  19.946  0.00  0.00    +0.000 HD
ENDBRANCH   8  14
ENDBRANCH   7   8
ENDBRANCH   1   7
BRANCH   4  18
ATOM     18  C   UNL     1       4.307   4.180  16.832  0.00  0.00    +0.000 C 
BRANCH  18  19
ATOM     19  C   UNL     1       3.832   3.626  18.158  0.00  0.00    +0.000 A 
ATOM     20  C   UNL     1       4.724   2.886  18.967  0.00  0.00    +0.000 A 
ATOM     21  C   UNL     1       4.306   2.339  20.182  0.00  0.00    +0.000 A 
ATOM     22  C   UNL     1       3.008   2.572  20.577  0.00  0.00    +0.000 A 
ATOM     23  C   UNL     1       2.124   3.312  19.808  0.00  0.00    +0.000 A 
ATOM     24  C   UNL     1       2.508   3.831  18.585  0.00  0.00    +0.000 A 
ATOM     25  C   UNL     1       0.815   3.372  20.495  0.00  0.00    +0.000 C 
ATOM     26  C   UNL     1       1.257   2.895  21.879  0.00  0.00    +0.000 C 
ATOM     27  O   UNL     1       2.463   2.108  21.746  0.00  0.00    +0.000 OA
ENDBRANCH  18  19
ENDBRANCH   4  18
TORSDOF 5
ENDMDL
MODEL 4
REMARK VINA RESULT:      -7.2      5.065     11.714
REMARK  Name = 
REMARK  6 active torsions:
REMARK  status: ('A' for Active; 'I' for Inactive)
REMARK    1  A    between atoms: C_1  and  N_2
REMARK    2  A    between atoms: C_6  and  C_8
REMARK    3  A    between atoms: C_8  and  C_9
REMARK    4  A    between atoms: C_9  and  N_10
REMARK    5  A    between atoms: N_13  and  C_14
REMARK    6  A    between atoms: C_14  and  C_15
REMARK                            x       y       z     vdW  Elec       q    Type
REMARK                         _______ _______ _______ _____ _____    ______ ____
ROOT
ATOM      1  N   UNL     1      -0.024  11.184  22.366  0.00  0.00    +0.000 NA
ATOM      2  C   UNL     1      -0.086   9.848  23.010  0.00  0.00    +0.000 C 
ATOM      3  C   UNL     1      -0.545   8.696  22.090  0.00  0.00    +0.000 C 
ATOM      4  N   UNL     1       0.193   8.592  20.811  0.00  0.00    +0.000 NA
ATOM      5  C   UNL     1       0.238   9.923  20.170  0.00  0.00    +0.000 C 
ATOM      6  C   UNL     1       0.733  11.063  21.097  0.00  0.00    +0.000 C 
ENDROOT
BRANCH   1   7
ATOM      7  C   UNL     1      -1.352  11.786  22.110  0.00  0.00    +0.000 C 
BRANCH   7   8
ATOM      8  C   UNL     1      -1.849  12.716  23.219  0.00  0.00    +0.000 C 
BRANCH   8  14
ATOM      9  C   UNL     1      -7.502  13.355  24.158  0.00  0.00    +0.000 C 
ATOM     10  N   UNL     1      -6.111  13.164  23.882  0.00  0.00    +0.000 N 
ATOM     11  C   UNL     1      -5.395  14.013  23.094  0.00  0.00    +0.000 C 
ATOM     12  O   UNL     1      -5.868  15.009  22.554  0.00  0.00    +0.000 OA
ATOM     13  N   UNL     1      -4.071  13.705  22.946  0.00  0.00    +0.000 N 
ATOM     14  C   UNL     1      -3.342  12.660  23.482  0.00  0.00    +0.000 C 
ATOM     15  O   UNL     1      -3.828  11.776  24.188  0.00  0.00    +0.000 OA
ATOM     16  H   UNL     1      -5.623  12.344  24.243  0.00  0.00    +0.000 HD
ATOM     17  H   UNL     1      -3.571  14.369  22.357  0.00  0.00    +0.000 HD
ENDBRANCH   8  14
ENDBRANCH   7   8
ENDBRANCH   1   7
BRANCH   4  18
ATOM     18  C   UNL     1       1.563   8.073  20.991  0.00  0.00    +0.000 C 
BRANCH  18  19
ATOM     19  C   UNL     1       1.840   6.798  20.223  0.00  0.00    +0.000 A 
ATOM     20  C   UNL     1       2.466   6.866  18.957  0.00  0.00    +0.000 A 
ATOM     21  C   UNL     1       2.709   5.710  18.213  0.00  0.00    +0.000 A 
ATOM     22  C   UNL     1       2.347   4.503  18.768  0.00  0.00    +0.000 A 
ATOM     23  C   UNL     1       1.751   4.414  20.016  0.00  0.00    +0.000 A 
ATOM     24  C   UNL     1       1.469   5.550  20.752  0.00  0.00    +0.000 A 
ATOM     25  C   UNL     1       1.476   2.992  20.322  0.00  0.00    +0.000 C 
ATOM     26  C   UNL     1       2.350   2.349  19.244  0.00  0.00    +0.000 C 
ATOM     27  O   UNL     1       2.533   3.288  18.160  0.00  0.00    +0.000 OA
ENDBRANCH  18  19
ENDBRANCH   4  18
TORSDOF 5
ENDMDL
MODEL 5
REMARK VINA RESULT:      -7.2      5.196      7.315
REMARK  Name = 
REMARK  6 active torsions:
REMARK  status: ('A' for Active; 'I' for Inactive)
REMARK    1  A    between atoms: C_1  and  N_2
REMARK    2  A    between atoms: C_6  and  C_8
REMARK    3  A    between atoms: C_8  and  C_9
REMARK    4  A    between atoms: C_9  and  N_10
REMARK    5  A    between atoms: N_13  and  C_14
REMARK    6  A    between atoms: C_14  and  C_15
REMARK                            x       y       z     vdW  Elec       q    Type
REMARK                         _______ _______ _______ _____ _____    ______ ____
ROOT
ATOM      1  N   UNL     1       7.322   5.939  17.651  0.00  0.00    +0.000 NA
ATOM      2  C   UNL     1       5.914   5.912  18.116  0.00  0.00    +0.000 C 
ATOM      3  C   UNL     1       4.859   5.701  17.008  0.00  0.00    +0.000 C 
ATOM      4  N   UNL     1       5.109   4.537  16.129  0.00  0.00    +0.000 NA
ATOM      5  C   UNL     1       6.510   4.579  15.658  0.00  0.00    +0.000 C 
ATOM      6  C   UNL     1       7.558   4.758  16.786  0.00  0.00    +0.000 C 
ENDROOT
BRANCH   1   7
ATOM      7  C   UNL     1       7.690   7.178  16.929  0.00  0.00    +0.000 C 
BRANCH   7   8
ATOM      8  C   UNL     1       7.233   8.469  17.613  0.00  0.00    +0.000 C 
BRANCH   8  14
ATOM      9  C   UNL     1      11.492  11.883  19.473  0.00  0.00    +0.000 C 
ATOM     10  N   UNL     1      10.403  11.053  19.054  0.00  0.00    +0.000 N 
ATOM     11  C   UNL     1       9.482  11.459  18.136  0.00  0.00    +0.000 C 
ATOM     12  O   UNL     1       9.497  12.558  17.591  0.00  0.00    +0.000 OA
ATOM     13  N   UNL     1       8.517  10.542  17.825  0.00  0.00    +0.000 N 
ATOM     14  C   UNL     1       8.335   9.255  18.297  0.00  0.00    +0.000 C 
ATOM     15  O   UNL     1       9.048   8.733  19.154  0.00  0.00    +0.000 OA
ATOM     16  H   UNL     1      10.266  10.134  19.474  0.00  0.00    +0.000 HD
ATOM     17  H   UNL     1       7.854  10.882  17.130  0.00  0.00    +0.000 HD
ENDBRANCH   8  14
ENDBRANCH   7   8
ENDBRANCH   1   7
BRANCH   4  18
ATOM     18  C   UNL     1       4.842   3.252  16.805  0.00  0.00    +0.000 C 
BRANCH  18  19
ATOM     19  C   UNL     1       3.690   3.303  17.785  0.00  0.00    +0.000 A 
ATOM     20  C   UNL     1       2.390   3.614  17.323  0.00  0.00    +0.000 A 
ATOM     21  C   UNL     1       1.314   3.696  18.208  0.00  0.00    +0.000 A 
ATOM     22  C   UNL     1       1.556   3.434  19.537  0.00  0.00    +0.000 A 
ATOM     23  C   UNL     1       2.819   3.108  20.008  0.00  0.00    +0.000 A 
ATOM     24  C   UNL     1       3.904   3.057  19.153  0.00  0.00    +0.000 A 
ATOM     25  C   UNL     1       2.753   2.897  21.471  0.00  0.00    +0.000 C 
ATOM     26  C   UNL     1       1.235   2.783  21.621  0.00  0.00    +0.000 C 
ATOM     27  O   UNL     1       0.597   3.466  20.517  0.00  0.00    +0.000 OA
ENDBRANCH  18  19
ENDBRANCH   4  18
TORSDOF 5
ENDMDL
MODEL 6
REMARK VINA RESULT:      -7.2      2.754      9.951
REMARK  Name = 
REMARK  6 active torsions:
REMARK  status: ('A' for Active; 'I' for Inactive)
REMARK    1  A    between atoms: C_1  and  N_2
REMARK    2  A    between atoms: C_6  and  C_8
REMARK    3  A    between atoms: C_8  and  C_9
REMARK    4  A    between atoms: C_9  and  N_10
REMARK    5  A    between atoms: N_13  and  C_14
REMARK    6  A    between atoms: C_14  and  C_15
REMARK                            x       y       z     vdW  Elec       q    Type
REMARK                         _______ _______ _______ _____ _____    ______ ____
ROOT
ATOM      1  N   UNL     1       2.309   5.766  20.909  0.00  0.00    +0.000 NA
ATOM      2  C   UNL     1       1.998   4.316  20.878  0.00  0.00    +0.000 C 
ATOM      3  C   UNL     1       1.564   3.765  19.502  0.00  0.00    +0.000 C 
ATOM      4  N   UNL     1       2.478   4.096  18.386  0.00  0.00    +0.000 NA
ATOM      5  C   UNL     1       2.773   5.544  18.415  0.00  0.00    +0.000 C 
ATOM      6  C   UNL     1       3.239   6.074  19.796  0.00  0.00    +0.000 C 
ENDROOT
BRANCH   1   7
ATOM      7  C   UNL     1       1.115   6.636  20.828  0.00  0.00    +0.000 C 
BRANCH   7   8
ATOM      8  C   UNL     1       1.419   8.135  20.885  0.00  0.00    +0.000 C 
BRANCH   8  14
ATOM      9  C   UNL     1      -2.190  11.955  23.258  0.00  0.00    +0.000 C 
ATOM     10  N   UNL     1      -1.323  11.010  22.622  0.00  0.00    +0.000 N 
ATOM     11  C   UNL     1      -0.178  11.377  21.984  0.00  0.00    +0.000 C 
ATOM     12  O   UNL     1       0.214  12.537  21.895  0.00  0.00    +0.000 OA
ATOM     13  N   UNL     1       0.552  10.354  21.447  0.00  0.00    +0.000 N 
ATOM     14  C   UNL     1       0.307   8.993  21.457  0.00  0.00    +0.000 C 
ATOM     15  O   UNL     1      -0.696   8.481  21.956  0.00  0.00    +0.000 OA
ATOM     16  H   UNL     1      -1.573  10.021  22.595  0.00  0.00    +0.000 HD
ATOM     17  H   UNL     1       1.404  10.671  20.987  0.00  0.00    +0.000 HD
ENDBRANCH   8  14
ENDBRANCH   7   8
ENDBRANCH   1   7
BRANCH   4  18
ATOM     18  C   UNL     1       3.735   3.324  18.440  0.00  0.00    +0.000 C 
BRANCH  18  19
ATOM     19  C   UNL     1       4.811   3.840  17.509  0.00  0.00    +0.000 A 
ATOM     20  C   UNL     1       5.992   4.403  18.046  0.00  0.00    +0.000 A 
ATOM     21  C   UNL     1       6.989   4.912  17.213  0.00  0.00    +0.000 A 
ATOM     22  C   UNL     1       6.796   4.819  15.853  0.00  0.00    +0.000 A 
ATOM     23  C   UNL     1       5.655   4.253  15.306  0.00  0.00    +0.000 A 
ATOM     24  C   UNL     1       4.640   3.776  16.115  0.00  0.00    +0.000 A 
ATOM     25  C   UNL     1       5.743   4.312  13.830  0.00  0.00    +0.000 C 
ATOM     26  C   UNL     1       7.233   4.631  13.698  0.00  0.00    +0.000 C 
ATOM     27  O   UNL     1       7.691   5.266  14.915  0.00  0.00    +0.000 OA
ENDBRANCH  18  19
ENDBRANCH   4  18
TORSDOF 5
ENDMDL
MODEL 7
REMARK VINA RESULT:      -7.2      4.658      9.281
REMARK  Name = 
REMARK  6 active torsions:
REMARK  status: ('A' for Active; 'I' for Inactive)
REMARK    1  A    between atoms: C_1  and  N_2
REMARK    2  A    between atoms: C_6  and  C_8
REMARK    3  A    between atoms: C_8  and  C_9
REMARK    4  A    between atoms: C_9  and  N_10
REMARK    5  A    between atoms: N_13  and  C_14
REMARK    6  A    between atoms: C_14  and  C_15
REMARK                            x       y       z     vdW  Elec       q    Type
REMARK                         _______ _______ _______ _____ _____    ______ ____
ROOT
ATOM      1  N   UNL     1       0.084  11.290  21.978  0.00  0.00    +0.000 NA
ATOM      2  C   UNL     1      -0.077  10.026  22.738  0.00  0.00    +0.000 C 
ATOM      3  C   UNL     1      -0.511   8.805  21.898  0.00  0.00    +0.000 C 
ATOM      4  N   UNL     1       0.317   8.554  20.697  0.00  0.00    +0.000 NA
ATOM      5  C   UNL     1       0.461   9.814  19.938  0.00  0.00    +0.000 C 
ATOM      6  C   UNL     1       0.929  11.023  20.789  0.00  0.00    +0.000 C 
ENDROOT
BRANCH   1   7
ATOM      7  C   UNL     1      -1.196  11.906  21.562  0.00  0.00    +0.000 C 
BRANCH   7   8
ATOM      8  C   UNL     1      -1.052  13.041  20.546  0.00  0.00    +0.000 C 
BRANCH   8  14
ATOM      9  C   UNL     1      -2.857  10.988  15.469  0.00  0.00    +0.000 C 
ATOM     10  N   UNL     1      -2.433  11.546  16.717  0.00  0.00    +0.000 N 
ATOM     11  C   UNL     1      -3.160  11.422  17.862  0.00  0.00    +0.000 C 
ATOM     12  O   UNL     1      -4.233  10.829  17.931  0.00  0.00    +0.000 OA
ATOM     13  N   UNL     1      -2.609  11.992  18.976  0.00  0.00    +0.000 N 
ATOM     14  C   UNL     1      -1.414  12.674  19.120  0.00  0.00    +0.000 C 
ATOM     15  O   UNL     1      -0.645  12.912  18.189  0.00  0.00    +0.000 OA
ATOM     16  H   UNL     1      -1.578  12.099  16.768  0.00  0.00    +0.000 HD
ATOM     17  H   UNL     1      -3.179  11.870  19.811  0.00  0.00    +0.000 HD
ENDBRANCH   8  14
ENDBRANCH   7   8
ENDBRANCH   1   7
BRANCH   4  18
ATOM     18  C   UNL     1       1.648   8.011  21.032  0.00  0.00    +0.000 C 
BRANCH  18  19
ATOM     19  C   UNL     1       1.967   6.702  20.342  0.00  0.00    +0.000 A 
ATOM     20  C   UNL     1       1.472   5.490  20.875  0.00  0.00    +0.000 A 
ATOM     21  C   UNL     1       1.773   4.266  20.277  0.00  0.00    +0.000 A 
ATOM     22  C   UNL     1       2.542   4.283  19.135  0.00  0.00    +0.000 A 
ATOM     23  C   UNL     1       3.021   5.462  18.585  0.00  0.00    +0.000 A 
ATOM     24  C   UNL     1       2.764   6.681  19.184  0.00  0.00    +0.000 A 
ATOM     25  C   UNL     1       3.817   5.146  17.378  0.00  0.00    +0.000 C 
ATOM     26  C   UNL     1       3.365   3.700  17.172  0.00  0.00    +0.000 C 
ATOM     27  O   UNL     1       2.908   3.162  18.435  0.00  0.00    +0.000 OA
ENDBRANCH  18  19
ENDBRANCH   4  18
TORSDOF 5
ENDMDL
MODEL 8
REMARK VINA RESULT:      -7.1      2.625      9.791
REMARK  Name = 
REMARK  6 active torsions:
REMARK  status: ('A' for Active; 'I' for Inactive)
REMARK    1  A    between atoms: C_1  and  N_2
REMARK    2  A    between atoms: C_6  and  C_8
REMARK    3  A    between atoms: C_8  and  C_9
REMARK    4  A    between atoms: C_9  and  N_10
REMARK    5  A    between atoms: N_13  and  C_14
REMARK    6  A    between atoms: C_14  and  C_15
REMARK                            x       y       z     vdW  Elec       q    Type
REMARK                         _______ _______ _______ _____ _____    ______ ____
ROOT
ATOM      1  N   UNL     1       2.620   6.142  20.520  0.00  0.00    +0.000 NA
ATOM      2  C   UNL     1       2.406   4.694  20.762  0.00  0.00    +0.000 C 
ATOM      3  C   UNL     1       1.906   3.890  19.541  0.00  0.00    +0.000 C 
ATOM      4  N   UNL     1       2.707   4.071  18.310  0.00  0.00    +0.000 NA
ATOM      5  C   UNL     1       2.904   5.516  18.068  0.00  0.00    +0.000 C 
ATOM      6  C   UNL     1       3.438   6.302  19.293  0.00  0.00    +0.000 C 
ENDROOT
BRANCH   1   7
ATOM      7  C   UNL     1       1.366   6.919  20.399  0.00  0.00    +0.000 C 
BRANCH   7   8
ATOM      8  C   UNL     1       1.541   8.311  19.787  0.00  0.00    +0.000 C 
BRANCH   8  14
ATOM      9  C   UNL     1      -1.622  11.926  22.978  0.00  0.00    +0.000 C 
ATOM     10  N   UNL     1      -0.795  11.065  22.187  0.00  0.00    +0.000 N 
ATOM     11  C   UNL     1      -0.016  10.091  22.733  0.00  0.00    +0.000 C 
ATOM     12  O   UNL     1       0.050   9.861  23.937  0.00  0.00    +0.000 OA
ATOM     13  N   UNL     1       0.698   9.338  21.843  0.00  0.00    +0.000 N 
ATOM     14  C   UNL     1       0.746   9.412  20.463  0.00  0.00    +0.000 C 
ATOM     15  O   UNL     1       0.137  10.252  19.800  0.00  0.00    +0.000 OA
ATOM     16  H   UNL     1      -0.737  11.195  21.177  0.00  0.00    +0.000 HD
ATOM     17  H   UNL     1       1.260   8.617  22.291  0.00  0.00    +0.000 HD
ENDBRANCH   8  14
ENDBRANCH   7   8
ENDBRANCH   1   7
BRANCH   4  18
ATOM     18  C   UNL     1       4.014   3.389  18.383  0.00  0.00    +0.000 C 
BRANCH  18  19
ATOM     19  C   UNL     1       5.031   3.905  17.387  0.00  0.00    +0.000 A 
ATOM     20  C   UNL     1       6.196   4.558  17.849  0.00  0.00    +0.000 A 
ATOM     21  C   UNL     1       7.137   5.069  16.954  0.00  0.00    +0.000 A 
ATOM     22  C   UNL     1       6.906   4.886  15.609  0.00  0.00    +0.000 A 
ATOM     23  C   UNL     1       5.780   4.231  15.135  0.00  0.00    +0.000 A 
ATOM     24  C   UNL     1       4.819   3.750  16.005  0.00  0.00    +0.000 A 
ATOM     25  C   UNL     1       5.818   4.208  13.656  0.00  0.00    +0.000 C 
ATOM     26  C   UNL     1       7.283   4.596  13.454  0.00  0.00    +0.000 C 
ATOM     27  O   UNL     1       7.745   5.323  14.616  0.00  0.00    +0.000 OA
ENDBRANCH  18  19
ENDBRANCH   4  18
TORSDOF 5
ENDMDL
MODEL 9
REMARK VINA RESULT:      -6.9      5.100     11.661
REMARK  Name = 
REMARK  6 active torsions:
REMARK  status: ('A' for Active; 'I' for Inactive)
REMARK    1  A    between atoms: C_1  and  N_2
REMARK    2  A    between atoms: C_6  and  C_8
REMARK    3  A    between atoms: C_8  and  C_9
REMARK    4  A    between atoms: C_9  and  N_10
REMARK    5  A    between atoms: N_13  and  C_14
REMARK    6  A    between atoms: C_14  and  C_15
REMARK                            x       y       z     vdW  Elec       q    Type
REMARK                         _______ _______ _______ _____ _____    ______ ____
ROOT
ATOM      1  N   UNL     1      -0.107  11.314  22.269  0.00  0.00    +0.000 NA
ATOM      2  C   UNL     1      -0.185   9.948  22.844  0.00  0.00    +0.000 C 
ATOM      3  C   UNL     1      -0.571   8.835  21.845  0.00  0.00    +0.000 C 
ATOM      4  N   UNL     1       0.244   8.803  20.609  0.00  0.00    +0.000 NA
ATOM      5  C   UNL     1       0.306  10.164  20.035  0.00  0.00    +0.000 C 
ATOM      6  C   UNL     1       0.726  11.264  21.043  0.00  0.00    +0.000 C 
ENDROOT
BRANCH   1   7
ATOM      7  C   UNL     1      -1.426  11.911  21.962  0.00  0.00    +0.000 C 
BRANCH   7   8
ATOM      8  C   UNL     1      -2.375  11.996  23.159  0.00  0.00    +0.000 C 
BRANCH   8  14
ATOM      9  C   UNL     1      -1.939  17.131  25.746  0.00  0.00    +0.000 C 
ATOM     10  N   UNL     1      -2.067  15.882  25.059  0.00  0.00    +0.000 N 
ATOM     11  C   UNL     1      -1.043  15.323  24.356  0.00  0.00    +0.000 C 
ATOM     12  O   UNL     1       0.070  15.829  24.247  0.00  0.00    +0.000 OA
ATOM     13  N   UNL     1      -1.317  14.116  23.775  0.00  0.00    +0.000 N 
ATOM     14  C   UNL     1      -2.481  13.369  23.797  0.00  0.00    +0.000 C 
ATOM     15  O   UNL     1      -3.518  13.731  24.352  0.00  0.00    +0.000 OA
ATOM     16  H   UNL     1      -2.962  15.393  25.044  0.00  0.00    +0.000 HD
ATOM     17  H   UNL     1      -0.524  13.729  23.267  0.00  0.00    +0.000 HD
ENDBRANCH   8  14
ENDBRANCH   7   8
ENDBRANCH   1   7
BRANCH   4  18
ATOM     18  C   UNL     1       1.608   8.293  20.846  0.00  0.00    +0.000 C 
BRANCH  18  19
ATOM     19  C   UNL     1       1.881   6.950  20.202  0.00  0.00    +0.000 A 
ATOM     20  C   UNL     1       2.583   6.891  18.977  0.00  0.00    +0.000 A 
ATOM     21  C   UNL     1       2.824   5.670  18.346  0.00  0.00    +0.000 A 
ATOM     22  C   UNL     1       2.383   4.526  18.973  0.00  0.00    +0.000 A 
ATOM     23  C   UNL     1       1.711   4.561  20.185  0.00  0.00    +0.000 A 
ATOM     24  C   UNL     1       1.430   5.764  20.807  0.00  0.00    +0.000 A 
ATOM     25  C   UNL     1       1.363   3.181  20.588  0.00  0.00    +0.000 C 
ATOM     26  C   UNL     1       2.273   2.420  19.623  0.00  0.00    +0.000 C 
ATOM     27  O   UNL     1       2.557   3.259  18.479  0.00  0.00    +0.000 OA
ENDBRANCH  18  19
ENDBRANCH   4  18
TORSDOF 5
ENDMDL
