MODEL 1
REMARK VINA RESULT:      -8.8      0.000      0.000
REMARK  Name = 
REMARK  3 active torsions:
REMARK  status: ('A' for Active; 'I' for Inactive)
REMARK    1  A    between atoms: C_1  and  C_2
REMARK    2  A    between atoms: C_6  and  C_7
REMARK    3  A    between atoms: C_16  and  C_17
REMARK                            x       y       z     vdW  Elec       q    Type
REMARK                         _______ _______ _______ _____ _____    ______ ____
ROOT
ATOM      1  C   UNL     1       7.266   5.547  19.175  0.00  0.00    +0.000 C 
ATOM      2  C   UNL     1       6.197   5.570  18.087  0.00  0.00    +0.000 C 
ATOM      3  C   UNL     1       5.737   7.004  17.817  0.00  0.00    +0.000 C 
ATOM      4  N   UNL     1       4.632   7.031  16.839  0.00  0.00    +0.000 NA
ATOM      5  C   UNL     1       5.127   6.528  15.536  0.00  0.00    +0.000 C 
ATOM      6  C   UNL     1       5.617   5.061  15.631  0.00  0.00    +0.000 C 
ATOM      7  C   UNL     1       4.414   4.261  16.194  0.00  0.00    +0.000 C 
ATOM      8  N   UNL     1       3.923   4.806  17.483  0.00  0.00    +0.000 NA
ATOM      9  C   UNL     1       5.001   4.706  18.485  0.00  0.00    +0.000 C 
ATOM     10  C   UNL     1       3.486   6.213  17.302  0.00  0.00    +0.000 C 
ATOM     11  C   UNL     1       6.681   5.021  16.750  0.00  0.00    +0.000 C 
ATOM     12  O   UNL     1       7.821   4.579  16.608  0.00  0.00    +0.000 OA
ENDROOT
BRANCH  10  13
ATOM     13  C   UNL     1       2.764   6.801  18.531  0.00  0.00    +0.000 A 
ATOM     14  C   UNL     1       2.531   6.020  19.681  0.00  0.00    +0.000 A 
ATOM     15  C   UNL     1       1.822   6.530  20.773  0.00  0.00    +0.000 A 
ATOM     16  C   UNL     1       1.372   7.846  20.749  0.00  0.00    +0.000 A 
ATOM     17 CL   UNL     1       0.473   8.467  22.078  0.00  0.00    +0.000 Cl
ATOM     18  C   UNL     1       1.646   8.662  19.655  0.00  0.00    +0.000 A 
ATOM     19  C   UNL     1       2.350   8.145  18.561  0.00  0.00    +0.000 A 
ENDBRANCH  10  13
BRANCH   6  20
ATOM     20  C   UNL     1       6.147   4.574  14.276  0.00  0.00    +0.000 A 
ATOM     21  C   UNL     1       7.296   5.170  13.715  0.00  0.00    +0.000 A 
ATOM     22  C   UNL     1       7.796   4.763  12.474  0.00  0.00    +0.000 A 
ATOM     23  C   UNL     1       7.159   3.752  11.763  0.00  0.00    +0.000 A 
ATOM     24  C   UNL     1       6.030   3.144  12.298  0.00  0.00    +0.000 A 
ATOM     25  C   UNL     1       5.530   3.550  13.541  0.00  0.00    +0.000 A 
ENDBRANCH   6  20
TORSDOF 2
ENDMDL
MODEL 2
REMARK VINA RESULT:      -6.7      2.389      3.423
REMARK  Name = 
REMARK  3 active torsions:
REMARK  status: ('A' for Active; 'I' for Inactive)
REMARK    1  A    between atoms: C_1  and  C_2
REMARK    2  A    between atoms: C_6  and  C_7
REMARK    3  A    between atoms: C_16  and  C_17
REMARK                            x       y       z     vdW  Elec       q    Type
REMARK                         _______ _______ _______ _____ _____    ______ ____
ROOT
ATOM      1  C   UNL     1       3.583   7.476  17.826  0.00  0.00    +0.000 C 
ATOM      2  C   UNL     1       4.028   6.066  17.449  0.00  0.00    +0.000 C 
ATOM      3  C   UNL     1       2.815   5.179  17.165  0.00  0.00    +0.000 C 
ATOM      4  N   UNL     1       3.227   3.787  16.897  0.00  0.00    +0.000 NA
ATOM      5  C   UNL     1       4.035   3.753  15.655  0.00  0.00    +0.000 C 
ATOM      6  C   UNL     1       5.329   4.596  15.783  0.00  0.00    +0.000 C 
ATOM      7  C   UNL     1       6.067   4.032  17.025  0.00  0.00    +0.000 C 
ATOM      8  N   UNL     1       5.224   4.052  18.244  0.00  0.00    +0.000 NA
ATOM      9  C   UNL     1       4.876   5.451  18.561  0.00  0.00    +0.000 C 
ATOM     10  C   UNL     1       4.005   3.231  18.030  0.00  0.00    +0.000 C 
ATOM     11  C   UNL     1       4.891   6.020  16.192  0.00  0.00    +0.000 C 
ATOM     12  O   UNL     1       5.205   7.044  15.587  0.00  0.00    +0.000 OA
ENDROOT
BRANCH  10  13
ATOM     13  C   UNL     1       3.170   3.016  19.307  0.00  0.00    +0.000 A 
ATOM     14  C   UNL     1       3.764   2.549  20.497  0.00  0.00    +0.000 A 
ATOM     15  C   UNL     1       2.998   2.294  21.639  0.00  0.00    +0.000 A 
ATOM     16  C   UNL     1       1.630   2.544  21.622  0.00  0.00    +0.000 A 
ATOM     17 CL   UNL     1       0.681   2.202  23.016  0.00  0.00    +0.000 Cl
ATOM     18  C   UNL     1       1.027   3.070  20.483  0.00  0.00    +0.000 A 
ATOM     19  C   UNL     1       1.795   3.317  19.339  0.00  0.00    +0.000 A 
ENDBRANCH  10  13
BRANCH   6  20
ATOM     20  C   UNL     1       6.132   4.564  14.477  0.00  0.00    +0.000 A 
ATOM     21  C   UNL     1       5.702   3.753  13.405  0.00  0.00    +0.000 A 
ATOM     22  C   UNL     1       6.420   3.687  12.207  0.00  0.00    +0.000 A 
ATOM     23  C   UNL     1       7.586   4.428  12.051  0.00  0.00    +0.000 A 
ATOM     24  C   UNL     1       8.026   5.240  13.088  0.00  0.00    +0.000 A 
ATOM     25  C   UNL     1       7.307   5.309  14.287  0.00  0.00    +0.000 A 
ENDBRANCH   6  20
TORSDOF 2
ENDMDL
MODEL 3
REMARK VINA RESULT:      -6.7      5.696      8.854
REMARK  Name = 
REMARK  3 active torsions:
REMARK  status: ('A' for Active; 'I' for Inactive)
REMARK    1  A    between atoms: C_1  and  C_2
REMARK    2  A    between atoms: C_6  and  C_7
REMARK    3  A    between atoms: C_16  and  C_17
REMARK                            x       y       z     vdW  Elec       q    Type
REMARK                         _______ _______ _______ _____ _____    ______ ____
ROOT
ATOM      1  C   UNL     1       0.944  14.202  18.954  0.00  0.00    +0.000 C 
ATOM      2  C   UNL     1       0.470  12.918  19.628  0.00  0.00    +0.000 C 
ATOM      3  C   UNL     1      -1.009  12.669  19.330  0.00  0.00    +0.000 C 
ATOM      4  N   UNL     1      -1.505  11.485  20.058  0.00  0.00    +0.000 NA
ATOM      5  C   UNL     1      -0.799  10.281  19.560  0.00  0.00    +0.000 C 
ATOM      6  C   UNL     1       0.729  10.362  19.807  0.00  0.00    +0.000 C 
ATOM      7  C   UNL     1       0.888  10.594  21.332  0.00  0.00    +0.000 C 
ATOM      8  N   UNL     1       0.146  11.788  21.805  0.00  0.00    +0.000 NA
ATOM      9  C   UNL     1       0.693  12.985  21.138  0.00  0.00    +0.000 C 
ATOM     10  C   UNL     1      -1.302  11.629  21.519  0.00  0.00    +0.000 C 
ATOM     11  C   UNL     1       1.214  11.675  19.152  0.00  0.00    +0.000 C 
ATOM     12  O   UNL     1       2.124  11.744  18.327  0.00  0.00    +0.000 OA
ENDROOT
BRANCH  10  13
ATOM     13  C   UNL     1      -2.184  12.720  22.160  0.00  0.00    +0.000 A 
ATOM     14  C   UNL     1      -1.760  13.417  23.309  0.00  0.00    +0.000 A 
ATOM     15  C   UNL     1      -2.583  14.362  23.929  0.00  0.00    +0.000 A 
ATOM     16  C   UNL     1      -3.828  14.656  23.384  0.00  0.00    +0.000 A 
ATOM     17 CL   UNL     1      -4.855  15.796  24.162  0.00  0.00    +0.000 Cl
ATOM     18  C   UNL     1      -4.245  14.032  22.211  0.00  0.00    +0.000 A 
ATOM     19  C   UNL     1      -3.422  13.081  21.598  0.00  0.00    +0.000 A 
ENDBRANCH  10  13
BRANCH   6  20
ATOM     20  C   UNL     1       1.438   9.117  19.259  0.00  0.00    +0.000 A 
ATOM     21  C   UNL     1       1.760   8.051  20.126  0.00  0.00    +0.000 A 
ATOM     22  C   UNL     1       2.421   6.910  19.664  0.00  0.00    +0.000 A 
ATOM     23  C   UNL     1       2.778   6.806  18.324  0.00  0.00    +0.000 A 
ATOM     24  C   UNL     1       2.466   7.838  17.448  0.00  0.00    +0.000 A 
ATOM     25  C   UNL     1       1.802   8.980  17.910  0.00  0.00    +0.000 A 
ENDBRANCH   6  20
TORSDOF 2
ENDMDL
MODEL 4
REMARK VINA RESULT:      -6.6      5.767      8.939
REMARK  Name = 
REMARK  3 active torsions:
REMARK  status: ('A' for Active; 'I' for Inactive)
REMARK    1  A    between atoms: C_1  and  C_2
REMARK    2  A    between atoms: C_6  and  C_7
REMARK    3  A    between atoms: C_16  and  C_17
REMARK                            x       y       z     vdW  Elec       q    Type
REMARK                         _______ _______ _______ _____ _____    ______ ____
ROOT
ATOM      1  C   UNL     1       0.854  14.246  19.033  0.00  0.00    +0.000 C 
ATOM      2  C   UNL     1       0.399  12.958  19.713  0.00  0.00    +0.000 C 
ATOM      3  C   UNL     1      -1.078  12.689  19.419  0.00  0.00    +0.000 C 
ATOM      4  N   UNL     1      -1.556  11.500  20.151  0.00  0.00    +0.000 NA
ATOM      5  C   UNL     1      -0.835  10.304  19.655  0.00  0.00    +0.000 C 
ATOM      6  C   UNL     1       0.692  10.406  19.899  0.00  0.00    +0.000 C 
ATOM      7  C   UNL     1       0.850  10.645  21.423  0.00  0.00    +0.000 C 
ATOM      8  N   UNL     1       0.094  11.831  21.894  0.00  0.00    +0.000 NA
ATOM      9  C   UNL     1       0.624  13.033  21.222  0.00  0.00    +0.000 C 
ATOM     10  C   UNL     1      -1.353  11.652  21.612  0.00  0.00    +0.000 C 
ATOM     11  C   UNL     1       1.157  11.723  19.239  0.00  0.00    +0.000 C 
ATOM     12  O   UNL     1       2.065  11.802  18.412  0.00  0.00    +0.000 OA
ENDROOT
BRANCH  10  13
ATOM     13  C   UNL     1      -2.247  12.733  22.251  0.00  0.00    +0.000 A 
ATOM     14  C   UNL     1      -3.555  12.968  21.781  0.00  0.00    +0.000 A 
ATOM     15  C   UNL     1      -4.346  13.989  22.317  0.00  0.00    +0.000 A 
ATOM     16  C   UNL     1      -3.856  14.764  23.363  0.00  0.00    +0.000 A 
ATOM     17 CL   UNL     1      -4.815  16.041  24.003  0.00  0.00    +0.000 Cl
ATOM     18  C   UNL     1      -2.594  14.511  23.892  0.00  0.00    +0.000 A 
ATOM     19  C   UNL     1      -1.802  13.493  23.349  0.00  0.00    +0.000 A 
ENDBRANCH  10  13
BRANCH   6  20
ATOM     20  C   UNL     1       1.415   9.169  19.354  0.00  0.00    +0.000 A 
ATOM     21  C   UNL     1       1.753   9.096  17.986  0.00  0.00    +0.000 A 
ATOM     22  C   UNL     1       2.396   7.975  17.453  0.00  0.00    +0.000 A 
ATOM     23  C   UNL     1       2.717   6.899  18.273  0.00  0.00    +0.000 A 
ATOM     24  C   UNL     1       2.403   6.950  19.625  0.00  0.00    +0.000 A 
ATOM     25  C   UNL     1       1.760   8.072  20.160  0.00  0.00    +0.000 A 
ENDBRANCH   6  20
TORSDOF 2
ENDMDL
MODEL 5
REMARK VINA RESULT:      -6.5      6.292     11.283
REMARK  Name = 
REMARK  3 active torsions:
REMARK  status: ('A' for Active; 'I' for Inactive)
REMARK    1  A    between atoms: C_1  and  C_2
REMARK    2  A    between atoms: C_6  and  C_7
REMARK    3  A    between atoms: C_16  and  C_17
REMARK                            x       y       z     vdW  Elec       q    Type
REMARK                         _______ _______ _______ _____ _____    ______ ____
ROOT
ATOM      1  C   UNL     1       1.382  14.041  19.039  0.00  0.00    +0.000 C 
ATOM      2  C   UNL     1       0.473  13.105  19.829  0.00  0.00    +0.000 C 
ATOM      3  C   UNL     1       1.289  12.269  20.816  0.00  0.00    +0.000 C 
ATOM      4  N   UNL     1       0.435  11.289  21.515  0.00  0.00    +0.000 NA
ATOM      5  C   UNL     1      -0.555  12.016  22.344  0.00  0.00    +0.000 C 
ATOM      6  C   UNL     1      -1.489  12.904  21.485  0.00  0.00    +0.000 C 
ATOM      7  C   UNL     1      -2.127  11.946  20.445  0.00  0.00    +0.000 C 
ATOM      8  N   UNL     1      -1.111  11.213  19.652  0.00  0.00    +0.000 NA
ATOM      9  C   UNL     1      -0.307  12.186  18.889  0.00  0.00    +0.000 C 
ATOM     10  C   UNL     1      -0.257  10.399  20.553  0.00  0.00    +0.000 C 
ATOM     11  C   UNL     1      -0.575  13.837  20.659  0.00  0.00    +0.000 C 
ATOM     12  O   UNL     1      -0.670  15.064  20.643  0.00  0.00    +0.000 OA
ENDROOT
BRANCH  10  13
ATOM     13  C   UNL     1       0.691   9.438  19.808  0.00  0.00    +0.000 A 
ATOM     14  C   UNL     1       1.290   8.347  20.469  0.00  0.00    +0.000 A 
ATOM     15  C   UNL     1       2.198   7.511  19.813  0.00  0.00    +0.000 A 
ATOM     16  C   UNL     1       2.489   7.727  18.470  0.00  0.00    +0.000 A 
ATOM     17 CL   UNL     1       3.630   6.718  17.669  0.00  0.00    +0.000 Cl
ATOM     18  C   UNL     1       1.861   8.755  17.773  0.00  0.00    +0.000 A 
ATOM     19  C   UNL     1       0.958   9.595  18.435  0.00  0.00    +0.000 A 
ENDBRANCH  10  13
BRANCH   6  20
ATOM     20  C   UNL     1      -2.486  13.663  22.370  0.00  0.00    +0.000 A 
ATOM     21  C   UNL     1      -2.118  14.045  23.677  0.00  0.00    +0.000 A 
ATOM     22  C   UNL     1      -3.008  14.722  24.516  0.00  0.00    +0.000 A 
ATOM     23  C   UNL     1      -4.288  15.033  24.070  0.00  0.00    +0.000 A 
ATOM     24  C   UNL     1      -4.672  14.675  22.784  0.00  0.00    +0.000 A 
ATOM     25  C   UNL     1      -3.781  13.999  21.943  0.00  0.00    +0.000 A 
ENDBRANCH   6  20
TORSDOF 2
ENDMDL
MODEL 6
REMARK VINA RESULT:      -6.5      6.382      9.782
REMARK  Name = 
REMARK  3 active torsions:
REMARK  status: ('A' for Active; 'I' for Inactive)
REMARK    1  A    between atoms: C_1  and  C_2
REMARK    2  A    between atoms: C_6  and  C_7
REMARK    3  A    between atoms: C_16  and  C_17
REMARK                            x       y       z     vdW  Elec       q    Type
REMARK                         _______ _______ _______ _____ _____    ______ ____
ROOT
ATOM      1  C   UNL     1      -3.355  12.313  19.658  0.00  0.00    +0.000 C 
ATOM      2  C   UNL     1      -1.913  12.239  20.153  0.00  0.00    +0.000 C 
ATOM      3  C   UNL     1      -1.875  12.046  21.669  0.00  0.00    +0.000 C 
ATOM      4  N   UNL     1      -0.488  12.073  22.172  0.00  0.00    +0.000 NA
ATOM      5  C   UNL     1       0.252  10.917  21.613  0.00  0.00    +0.000 C 
ATOM      6  C   UNL     1       0.327  10.971  20.066  0.00  0.00    +0.000 C 
ATOM      7  C   UNL     1       0.966  12.344  19.732  0.00  0.00    +0.000 C 
ATOM      8  N   UNL     1       0.220  13.478  20.330  0.00  0.00    +0.000 NA
ATOM      9  C   UNL     1      -1.144  13.502  19.768  0.00  0.00    +0.000 C 
ATOM     10  C   UNL     1       0.190  13.340  21.808  0.00  0.00    +0.000 C 
ATOM     11  C   UNL     1      -1.129  11.075  19.557  0.00  0.00    +0.000 C 
ATOM     12  O   UNL     1      -1.632  10.310  18.735  0.00  0.00    +0.000 OA
ENDROOT
BRANCH  10  13
ATOM     13  C   UNL     1      -0.377  14.576  22.534  0.00  0.00    +0.000 A 
ATOM     14  C   UNL     1      -1.102  14.445  23.736  0.00  0.00    +0.000 A 
ATOM     15  C   UNL     1      -1.671  15.558  24.364  0.00  0.00    +0.000 A 
ATOM     16  C   UNL     1      -1.488  16.825  23.822  0.00  0.00    +0.000 A 
ATOM     17 CL   UNL     1      -2.213  18.191  24.576  0.00  0.00    +0.000 Cl
ATOM     18  C   UNL     1      -0.720  16.992  22.673  0.00  0.00    +0.000 A 
ATOM     19  C   UNL     1      -0.158  15.876  22.043  0.00  0.00    +0.000 A 
ENDBRANCH  10  13
BRANCH   6  20
ATOM     20  C   UNL     1       1.074   9.752  19.513  0.00  0.00    +0.000 A 
ATOM     21  C   UNL     1       1.316   8.637  20.344  0.00  0.00    +0.000 A 
ATOM     22  C   UNL     1       2.009   7.517  19.877  0.00  0.00    +0.000 A 
ATOM     23  C   UNL     1       2.480   7.483  18.569  0.00  0.00    +0.000 A 
ATOM     24  C   UNL     1       2.248   8.564  17.729  0.00  0.00    +0.000 A 
ATOM     25  C   UNL     1       1.552   9.686  18.195  0.00  0.00    +0.000 A 
ENDBRANCH   6  20
TORSDOF 2
ENDMDL
MODEL 7
REMARK VINA RESULT:      -6.4      5.374     10.189
REMARK  Name = 
REMARK  3 active torsions:
REMARK  status: ('A' for Active; 'I' for Inactive)
REMARK    1  A    between atoms: C_1  and  C_2
REMARK    2  A    between atoms: C_6  and  C_7
REMARK    3  A    between atoms: C_16  and  C_17
REMARK                            x       y       z     vdW  Elec       q    Type
REMARK                         _______ _______ _______ _____ _____    ______ ____
ROOT
ATOM      1  C   UNL     1      -1.929  10.319  18.075  0.00  0.00    +0.000 C 
ATOM      2  C   UNL     1      -0.967  10.439  19.253  0.00  0.00    +0.000 C 
ATOM      3  C   UNL     1       0.474  10.565  18.759  0.00  0.00    +0.000 C 
ATOM      4  N   UNL     1       1.423  10.581  19.890  0.00  0.00    +0.000 NA
ATOM      5  C   UNL     1       1.183  11.796  20.704  0.00  0.00    +0.000 C 
ATOM      6  C   UNL     1      -0.245  11.816  21.307  0.00  0.00    +0.000 C 
ATOM      7  C   UNL     1      -0.374  10.492  22.104  0.00  0.00    +0.000 C 
ATOM      8  N   UNL     1      -0.099   9.297  21.269  0.00  0.00    +0.000 NA
ATOM      9  C   UNL     1      -1.096   9.234  20.183  0.00  0.00    +0.000 C 
ATOM     10  C   UNL     1       1.281   9.366  20.727  0.00  0.00    +0.000 C 
ATOM     11  C   UNL     1      -1.226  11.665  20.122  0.00  0.00    +0.000 C 
ATOM     12  O   UNL     1      -2.151  12.442  19.885  0.00  0.00    +0.000 OA
ENDROOT
BRANCH  10  13
ATOM     13  C   UNL     1       1.735   8.073  20.021  0.00  0.00    +0.000 A 
ATOM     14  C   UNL     1       2.264   8.103  18.715  0.00  0.00    +0.000 A 
ATOM     15  C   UNL     1       2.619   6.926  18.049  0.00  0.00    +0.000 A 
ATOM     16  C   UNL     1       2.490   5.702  18.696  0.00  0.00    +0.000 A 
ATOM     17 CL   UNL     1       2.897   4.250  17.867  0.00  0.00    +0.000 Cl
ATOM     18  C   UNL     1       2.035   5.647  20.010  0.00  0.00    +0.000 A 
ATOM     19  C   UNL     1       1.674   6.827  20.671  0.00  0.00    +0.000 A 
ENDBRANCH  10  13
BRANCH   6  20
ATOM     20  C   UNL     1      -0.475  13.094  22.123  0.00  0.00    +0.000 A 
ATOM     21  C   UNL     1       0.235  14.270  21.804  0.00  0.00    +0.000 A 
ATOM     22  C   UNL     1       0.062  15.447  22.538  0.00  0.00    +0.000 A 
ATOM     23  C   UNL     1      -0.823  15.477  23.610  0.00  0.00    +0.000 A 
ATOM     24  C   UNL     1      -1.540  14.334  23.940  0.00  0.00    +0.000 A 
ATOM     25  C   UNL     1      -1.369  13.156  23.204  0.00  0.00    +0.000 A 
ENDBRANCH   6  20
TORSDOF 2
ENDMDL
MODEL 8
REMARK VINA RESULT:      -6.4      6.288     11.264
REMARK  Name = 
REMARK  3 active torsions:
REMARK  status: ('A' for Active; 'I' for Inactive)
REMARK    1  A    between atoms: C_1  and  C_2
REMARK    2  A    between atoms: C_6  and  C_7
REMARK    3  A    between atoms: C_16  and  C_17
REMARK                            x       y       z     vdW  Elec       q    Type
REMARK                         _______ _______ _______ _____ _____    ______ ____
ROOT
ATOM      1  C   UNL     1       1.645  14.034  18.839  0.00  0.00    +0.000 C 
ATOM      2  C   UNL     1       0.665  13.167  19.624  0.00  0.00    +0.000 C 
ATOM      3  C   UNL     1       1.401  12.353  20.689  0.00  0.00    +0.000 C 
ATOM      4  N   UNL     1       0.478  11.437  21.387  0.00  0.00    +0.000 NA
ATOM      5  C   UNL     1      -0.525  12.235  22.131  0.00  0.00    +0.000 C 
ATOM      6  C   UNL     1      -1.383  13.113  21.185  0.00  0.00    +0.000 C 
ATOM      7  C   UNL     1      -2.003  12.129  20.159  0.00  0.00    +0.000 C 
ATOM      8  N   UNL     1      -0.977  11.324  19.453  0.00  0.00    +0.000 NA
ATOM      9  C   UNL     1      -0.100  12.232  18.689  0.00  0.00    +0.000 C 
ATOM     10  C   UNL     1      -0.198  10.526  20.433  0.00  0.00    +0.000 C 
ATOM     11  C   UNL     1      -0.396  13.974  20.365  0.00  0.00    +0.000 C 
ATOM     12  O   UNL     1      -0.445  15.202  20.288  0.00  0.00    +0.000 OA
ENDROOT
BRANCH  10  13
ATOM     13  C   UNL     1       0.749   9.498  19.782  0.00  0.00    +0.000 A 
ATOM     14  C   UNL     1       1.088   9.583  18.417  0.00  0.00    +0.000 A 
ATOM     15  C   UNL     1       1.898   8.618  17.809  0.00  0.00    +0.000 A 
ATOM     16  C   UNL     1       2.416   7.575  18.569  0.00  0.00    +0.000 A 
ATOM     17 CL   UNL     1       3.386   6.369  17.818  0.00  0.00    +0.000 Cl
ATOM     18  C   UNL     1       2.153   7.503  19.934  0.00  0.00    +0.000 A 
ATOM     19  C   UNL     1       1.337   8.467  20.538  0.00  0.00    +0.000 A 
ENDBRANCH  10  13
BRANCH   6  20
ATOM     20  C   UNL     1      -2.393  13.947  21.982  0.00  0.00    +0.000 A 
ATOM     21  C   UNL     1      -3.632  14.295  21.403  0.00  0.00    +0.000 A 
ATOM     22  C   UNL     1      -4.568  15.069  22.094  0.00  0.00    +0.000 A 
ATOM     23  C   UNL     1      -4.290  15.516  23.381  0.00  0.00    +0.000 A 
ATOM     24  C   UNL     1      -3.081  15.181  23.977  0.00  0.00    +0.000 A 
ATOM     25  C   UNL     1      -2.143  14.404  23.286  0.00  0.00    +0.000 A 
ENDBRANCH   6  20
TORSDOF 2
ENDMDL
MODEL 9
REMARK VINA RESULT:      -6.4      5.851     10.881
REMARK  Name = 
REMARK  3 active torsions:
REMARK  status: ('A' for Active; 'I' for Inactive)
REMARK    1  A    between atoms: C_1  and  C_2
REMARK    2  A    between atoms: C_6  and  C_7
REMARK    3  A    between atoms: C_16  and  C_17
REMARK                            x       y       z     vdW  Elec       q    Type
REMARK                         _______ _______ _______ _____ _____    ______ ____
ROOT
ATOM      1  C   UNL     1       2.096  13.461  20.443  0.00  0.00    +0.000 C 
ATOM      2  C   UNL     1       0.930  12.485  20.569  0.00  0.00    +0.000 C 
ATOM      3  C   UNL     1       1.319  11.295  21.448  0.00  0.00    +0.000 C 
ATOM      4  N   UNL     1       0.234  10.295  21.496  0.00  0.00    +0.000 NA
ATOM      5  C   UNL     1      -0.949  10.897  22.155  0.00  0.00    +0.000 C 
ATOM      6  C   UNL     1      -1.490  12.119  21.371  0.00  0.00    +0.000 C 
ATOM      7  C   UNL     1      -1.770  11.598  19.938  0.00  0.00    +0.000 C 
ATOM      8  N   UNL     1      -0.576  10.975  19.316  0.00  0.00    +0.000 NA
ATOM      9  C   UNL     1       0.484  11.994  19.193  0.00  0.00    +0.000 C 
ATOM     10  C   UNL     1      -0.122   9.824  20.136  0.00  0.00    +0.000 C 
ATOM     11  C   UNL     1      -0.307  13.102  21.213  0.00  0.00    +0.000 C 
ATOM     12  O   UNL     1      -0.337  14.283  21.555  0.00  0.00    +0.000 OA
ENDROOT
BRANCH  10  13
ATOM     13  C   UNL     1       0.982   8.982  19.465  0.00  0.00    +0.000 A 
ATOM     14  C   UNL     1       1.415   9.261  18.154  0.00  0.00    +0.000 A 
ATOM     15  C   UNL     1       2.371   8.462  17.520  0.00  0.00    +0.000 A 
ATOM     16  C   UNL     1       2.942   7.395  18.205  0.00  0.00    +0.000 A 
ATOM     17 CL   UNL     1       4.095   6.391  17.417  0.00  0.00    +0.000 Cl
ATOM     18  C   UNL     1       2.583   7.136  19.525  0.00  0.00    +0.000 A 
ATOM     19  C   UNL     1       1.620   7.934  20.154  0.00  0.00    +0.000 A 
ENDBRANCH  10  13
BRANCH   6  20
ATOM     20  C   UNL     1      -2.696  12.738  22.088  0.00  0.00    +0.000 A 
ATOM     21  C   UNL     1      -2.885  12.515  23.468  0.00  0.00    +0.000 A 
ATOM     22  C   UNL     1      -3.983  13.049  24.149  0.00  0.00    +0.000 A 
ATOM     23  C   UNL     1      -4.921  13.817  23.467  0.00  0.00    +0.000 A 
ATOM     24  C   UNL     1      -4.754  14.057  22.109  0.00  0.00    +0.000 A 
ATOM     25  C   UNL     1      -3.653  13.524  21.427  0.00  0.00    +0.000 A 
ENDBRANCH   6  20
TORSDOF 2
ENDMDL
