MODEL 1
REMARK VINA RESULT:      -7.8      0.000      0.000
REMARK  Name = 
REMARK  7 active torsions:
REMARK  status: ('A' for Active; 'I' for Inactive)
REMARK    1  A    between atoms: C_1  and  N_2
REMARK    2  A    between atoms: C_5  and  N_6
REMARK    3  A    between atoms: C_7  and  C_9
REMARK    4  A    between atoms: C_11  and  C_12
REMARK    5  A    between atoms: C_21  and  N_22
REMARK    6  A    between atoms: C_23  and  O_24
REMARK    7  A    between atoms: O_24  and  C_25
REMARK                            x       y       z     vdW  Elec       q    Type
REMARK                         _______ _______ _______ _____ _____    ______ ____
ROOT
ATOM      1  N   UNL     1       1.718   7.613  20.696  0.00  0.00    +0.000 N 
ATOM      2  C   UNL     1       1.184   6.345  20.540  0.00  0.00    +0.000 C 
ATOM      3  O   UNL     1       0.071   5.979  20.905  0.00  0.00    +0.000 OA
ATOM      4  H   UNL     1       2.632   7.755  20.283  0.00  0.00    +0.000 HD
ENDROOT
BRANCH   1   9
ATOM      5  C   UNL     1      -1.011  11.424  22.225  0.00  0.00    +0.000 C 
ATOM      6  N   UNL     1      -0.121  10.293  22.108  0.00  0.00    +0.000 N 
ATOM      7  N   UNL     1       0.648  10.018  23.175  0.00  0.00    +0.000 NA
ATOM      8  C   UNL     1       1.401   9.003  22.757  0.00  0.00    +0.000 A 
ATOM      9  C   UNL     1       1.123   8.626  21.423  0.00  0.00    +0.000 A 
ATOM     10  C   UNL     1       0.115   9.495  21.000  0.00  0.00    +0.000 A 
BRANCH  10  11
ATOM     11  O   UNL     1      -0.610   9.672  19.880  0.00  0.00    +0.000 OA
BRANCH  11  12
ATOM     12  C   UNL     1       0.061  10.022  18.659  0.00  0.00    +0.000 C 
ATOM     13  C   UNL     1       0.579  11.458  18.729  0.00  0.00    +0.000 C 
ATOM     14  C   UNL     1      -0.561  12.469  18.761  0.00  0.00    +0.000 C 
ATOM     15  N   UNL     1      -1.462  12.345  17.615  0.00  0.00    +0.000 NA
ATOM     16  C   UNL     1      -1.984  10.988  17.467  0.00  0.00    +0.000 C 
ATOM     17  C   UNL     1      -0.898   9.910  17.468  0.00  0.00    +0.000 C 
ATOM     18  H   UNL     1      -0.980  12.630  16.763  0.00  0.00    +0.000 HD
ENDBRANCH  11  12
ENDBRANCH  10  11
ENDBRANCH   1   9
BRANCH   2  19
ATOM     19  C   UNL     1       2.121   5.394  19.849  0.00  0.00    +0.000 A 
ATOM     20  N   UNL     1       3.321   5.956  19.492  0.00  0.00    +0.000 NA
ATOM     21  C   UNL     1       4.227   5.159  18.876  0.00  0.00    +0.000 A 
ATOM     22  C   UNL     1       3.940   3.825  18.595  0.00  0.00    +0.000 A 
ATOM     23  C   UNL     1       2.709   3.277  18.971  0.00  0.00    +0.000 A 
ATOM     24  C   UNL     1       1.744   4.072  19.586  0.00  0.00    +0.000 A 
BRANCH  21  25
ATOM     25  C   UNL     1       5.505   5.807  18.527  0.00  0.00    +0.000 A 
ATOM     26  C   UNL     1       6.674   5.537  19.263  0.00  0.00    +0.000 A 
ATOM     27  C   UNL     1       7.896   6.146  18.950  0.00  0.00    +0.000 A 
ATOM     28  C   UNL     1       7.977   7.043  17.891  0.00  0.00    +0.000 A 
ATOM     29  C   UNL     1       6.840   7.325  17.142  0.00  0.00    +0.000 A 
ATOM     30  C   UNL     1       5.628   6.708  17.456  0.00  0.00    +0.000 A 
ATOM     31  F   UNL     1       4.572   6.996  16.680  0.00  0.00    +0.000 F 
ENDBRANCH  21  25
BRANCH  24  32
ATOM     32  N   UNL     1       0.591   3.449  20.102  0.00  0.00    +0.000 N 
ATOM     33  H   UNL     1       0.753   2.688  20.742  0.00  0.00    +0.000 HD
ATOM     34  H   UNL     1      -0.094   3.226  19.371  0.00  0.00    +0.000 HD
ENDBRANCH  24  32
ENDBRANCH   2  19
TORSDOF 6
ENDMDL
MODEL 2
REMARK VINA RESULT:      -7.5      2.744      8.178
REMARK  Name = 
REMARK  7 active torsions:
REMARK  status: ('A' for Active; 'I' for Inactive)
REMARK    1  A    between atoms: C_1  and  N_2
REMARK    2  A    between atoms: C_5  and  N_6
REMARK    3  A    between atoms: C_7  and  C_9
REMARK    4  A    between atoms: C_11  and  C_12
REMARK    5  A    between atoms: C_21  and  N_22
REMARK    6  A    between atoms: C_23  and  O_24
REMARK    7  A    between atoms: O_24  and  C_25
REMARK                            x       y       z     vdW  Elec       q    Type
REMARK                         _______ _______ _______ _____ _____    ______ ____
ROOT
ATOM      1  N   UNL     1       2.188   5.765  18.426  0.00  0.00    +0.000 N 
ATOM      2  C   UNL     1       2.243   6.588  19.538  0.00  0.00    +0.000 C 
ATOM      3  O   UNL     1       2.533   6.243  20.680  0.00  0.00    +0.000 OA
ATOM      4  H   UNL     1       1.986   6.229  17.549  0.00  0.00    +0.000 HD
ENDROOT
BRANCH   1   9
ATOM      5  C   UNL     1       3.848   1.122  18.447  0.00  0.00    +0.000 C 
ATOM      6  N   UNL     1       3.063   2.331  18.516  0.00  0.00    +0.000 N 
ATOM      7  N   UNL     1       1.729   2.181  18.580  0.00  0.00    +0.000 NA
ATOM      8  C   UNL     1       1.277   3.433  18.553  0.00  0.00    +0.000 A 
ATOM      9  C   UNL     1       2.315   4.389  18.467  0.00  0.00    +0.000 A 
ATOM     10  C   UNL     1       3.496   3.645  18.436  0.00  0.00    +0.000 A 
BRANCH  10  11
ATOM     11  O   UNL     1       4.814   3.913  18.384  0.00  0.00    +0.000 OA
BRANCH  11  12
ATOM     12  C   UNL     1       5.253   5.166  17.836  0.00  0.00    +0.000 C 
ATOM     13  C   UNL     1       5.310   5.090  16.311  0.00  0.00    +0.000 C 
ATOM     14  C   UNL     1       6.401   4.139  15.833  0.00  0.00    +0.000 C 
ATOM     15  N   UNL     1       7.726   4.496  16.339  0.00  0.00    +0.000 NA
ATOM     16  C   UNL     1       7.749   4.610  17.797  0.00  0.00    +0.000 C 
ATOM     17  C   UNL     1       6.652   5.519  18.357  0.00  0.00    +0.000 C 
ATOM     18  H   UNL     1       8.036   5.369  15.915  0.00  0.00    +0.000 HD
ENDBRANCH  11  12
ENDBRANCH  10  11
ENDBRANCH   1   9
BRANCH   2  19
ATOM     19  C   UNL     1       1.902   8.019  19.227  0.00  0.00    +0.000 A 
ATOM     20  N   UNL     1       1.080   8.609  20.153  0.00  0.00    +0.000 NA
ATOM     21  C   UNL     1       0.737   9.904  19.951  0.00  0.00    +0.000 A 
ATOM     22  C   UNL     1       1.184  10.602  18.831  0.00  0.00    +0.000 A 
ATOM     23  C   UNL     1       2.022   9.976  17.903  0.00  0.00    +0.000 A 
ATOM     24  C   UNL     1       2.378   8.638  18.066  0.00  0.00    +0.000 A 
BRANCH  21  25
ATOM     25  C   UNL     1      -0.136  10.496  20.983  0.00  0.00    +0.000 A 
ATOM     26  C   UNL     1      -0.197   9.945  22.277  0.00  0.00    +0.000 A 
ATOM     27  C   UNL     1      -1.023  10.489  23.269  0.00  0.00    +0.000 A 
ATOM     28  C   UNL     1      -1.811  11.599  22.987  0.00  0.00    +0.000 A 
ATOM     29  C   UNL     1      -1.768  12.168  21.720  0.00  0.00    +0.000 A 
ATOM     30  C   UNL     1      -0.937  11.624  20.739  0.00  0.00    +0.000 A 
ATOM     31  F   UNL     1      -0.915  12.233  19.544  0.00  0.00    +0.000 F 
ENDBRANCH  21  25
BRANCH  24  32
ATOM     32  N   UNL     1       3.356   8.094  17.211  0.00  0.00    +0.000 N 
ATOM     33  H   UNL     1       3.785   8.741  16.568  0.00  0.00    +0.000 HD
ATOM     34  H   UNL     1       3.045   7.224  16.764  0.00  0.00    +0.000 HD
ENDBRANCH  24  32
ENDBRANCH   2  19
TORSDOF 6
ENDMDL
MODEL 3
REMARK VINA RESULT:      -7.5      2.672      8.218
REMARK  Name = 
REMARK  7 active torsions:
REMARK  status: ('A' for Active; 'I' for Inactive)
REMARK    1  A    between atoms: C_1  and  N_2
REMARK    2  A    between atoms: C_5  and  N_6
REMARK    3  A    between atoms: C_7  and  C_9
REMARK    4  A    between atoms: C_11  and  C_12
REMARK    5  A    between atoms: C_21  and  N_22
REMARK    6  A    between atoms: C_23  and  O_24
REMARK    7  A    between atoms: O_24  and  C_25
REMARK                            x       y       z     vdW  Elec       q    Type
REMARK                         _______ _______ _______ _____ _____    ______ ____
ROOT
ATOM      1  N   UNL     1       2.199   5.820  18.434  0.00  0.00    +0.000 N 
ATOM      2  C   UNL     1       2.158   6.622  19.563  0.00  0.00    +0.000 C 
ATOM      3  O   UNL     1       2.353   6.256  20.718  0.00  0.00    +0.000 OA
ATOM      4  H   UNL     1       2.070   6.301  17.552  0.00  0.00    +0.000 HD
ENDROOT
BRANCH   1   9
ATOM      5  C   UNL     1       3.862   1.178  18.461  0.00  0.00    +0.000 C 
ATOM      6  N   UNL     1       3.074   2.386  18.512  0.00  0.00    +0.000 N 
ATOM      7  N   UNL     1       1.738   2.234  18.513  0.00  0.00    +0.000 NA
ATOM      8  C   UNL     1       1.287   3.486  18.484  0.00  0.00    +0.000 A 
ATOM      9  C   UNL     1       2.326   4.444  18.460  0.00  0.00    +0.000 A 
ATOM     10  C   UNL     1       3.509   3.701  18.472  0.00  0.00    +0.000 A 
BRANCH  10  11
ATOM     11  O   UNL     1       4.827   3.970  18.484  0.00  0.00    +0.000 OA
BRANCH  11  12
ATOM     12  C   UNL     1       5.293   5.214  17.937  0.00  0.00    +0.000 C 
ATOM     13  C   UNL     1       5.316   5.149  16.410  0.00  0.00    +0.000 C 
ATOM     14  C   UNL     1       6.367   4.169  15.902  0.00  0.00    +0.000 C 
ATOM     15  N   UNL     1       7.712   4.480  16.383  0.00  0.00    +0.000 NA
ATOM     16  C   UNL     1       7.769   4.582  17.841  0.00  0.00    +0.000 C 
ATOM     17  C   UNL     1       6.713   5.519  18.430  0.00  0.00    +0.000 C 
ATOM     18  H   UNL     1       8.040   5.347  15.959  0.00  0.00    +0.000 HD
ENDBRANCH  11  12
ENDBRANCH  10  11
ENDBRANCH   1   9
BRANCH   2  19
ATOM     19  C   UNL     1       1.841   8.058  19.250  0.00  0.00    +0.000 A 
ATOM     20  N   UNL     1       1.017   8.658  20.169  0.00  0.00    +0.000 NA
ATOM     21  C   UNL     1       0.694   9.958  19.965  0.00  0.00    +0.000 A 
ATOM     22  C   UNL     1       1.164  10.652  18.852  0.00  0.00    +0.000 A 
ATOM     23  C   UNL     1       2.004  10.016  17.932  0.00  0.00    +0.000 A 
ATOM     24  C   UNL     1       2.339   8.673  18.096  0.00  0.00    +0.000 A 
BRANCH  21  25
ATOM     25  C   UNL     1      -0.182  10.560  20.988  0.00  0.00    +0.000 A 
ATOM     26  C   UNL     1      -0.966  11.691  20.690  0.00  0.00    +0.000 A 
ATOM     27  C   UNL     1      -1.800  12.279  21.649  0.00  0.00    +0.000 A 
ATOM     28  C   UNL     1      -1.870  11.749  22.932  0.00  0.00    +0.000 A 
ATOM     29  C   UNL     1      -1.112  10.629  23.254  0.00  0.00    +0.000 A 
ATOM     30  C   UNL     1      -0.288  10.045  22.291  0.00  0.00    +0.000 A 
ATOM     31  F   UNL     1       0.397   8.948  22.650  0.00  0.00    +0.000 F 
ENDBRANCH  21  25
BRANCH  24  32
ATOM     32  N   UNL     1       3.319   8.118  17.251  0.00  0.00    +0.000 N 
ATOM     33  H   UNL     1       4.076   8.731  16.994  0.00  0.00    +0.000 HD
ATOM     34  H   UNL     1       2.909   7.621  16.451  0.00  0.00    +0.000 HD
ENDBRANCH  24  32
ENDBRANCH   2  19
TORSDOF 6
ENDMDL
MODEL 4
REMARK VINA RESULT:      -7.5      2.835      4.521
REMARK  Name = 
REMARK  7 active torsions:
REMARK  status: ('A' for Active; 'I' for Inactive)
REMARK    1  A    between atoms: C_1  and  N_2
REMARK    2  A    between atoms: C_5  and  N_6
REMARK    3  A    between atoms: C_7  and  C_9
REMARK    4  A    between atoms: C_11  and  C_12
REMARK    5  A    between atoms: C_21  and  N_22
REMARK    6  A    between atoms: C_23  and  O_24
REMARK    7  A    between atoms: O_24  and  C_25
REMARK                            x       y       z     vdW  Elec       q    Type
REMARK                         _______ _______ _______ _____ _____    ______ ____
ROOT
ATOM      1  N   UNL     1       0.837  10.075  21.016  0.00  0.00    +0.000 N 
ATOM      2  C   UNL     1       0.479   9.683  19.737  0.00  0.00    +0.000 C 
ATOM      3  O   UNL     1      -0.503  10.069  19.111  0.00  0.00    +0.000 OA
ATOM      4  H   UNL     1       1.713   9.698  21.358  0.00  0.00    +0.000 HD
ENDROOT
BRANCH   1   9
ATOM      5  C   UNL     1      -1.442  13.800  23.305  0.00  0.00    +0.000 C 
ATOM      6  N   UNL     1      -0.986  12.518  22.824  0.00  0.00    +0.000 N 
ATOM      7  N   UNL     1      -1.420  11.435  23.492  0.00  0.00    +0.000 NA
ATOM      8  C   UNL     1      -0.789  10.429  22.889  0.00  0.00    +0.000 A 
ATOM      9  C   UNL     1       0.053  10.860  21.839  0.00  0.00    +0.000 A 
ATOM     10  C   UNL     1      -0.081  12.250  21.810  0.00  0.00    +0.000 A 
BRANCH  10  11
ATOM     11  O   UNL     1       0.407  13.259  21.065  0.00  0.00    +0.000 OA
BRANCH  11  12
ATOM     12  C   UNL     1      -0.208  13.559  19.802  0.00  0.00    +0.000 C 
ATOM     13  C   UNL     1       0.790  13.360  18.662  0.00  0.00    +0.000 C 
ATOM     14  C   UNL     1       1.918  14.384  18.713  0.00  0.00    +0.000 C 
ATOM     15  N   UNL     1       1.433  15.764  18.683  0.00  0.00    +0.000 NA
ATOM     16  C   UNL     1       0.452  16.029  19.734  0.00  0.00    +0.000 C 
ATOM     17  C   UNL     1      -0.693  15.014  19.773  0.00  0.00    +0.000 C 
ATOM     18  H   UNL     1       1.031  15.970  17.769  0.00  0.00    +0.000 HD
ENDBRANCH  11  12
ENDBRANCH  10  11
ENDBRANCH   1   9
BRANCH   2  19
ATOM     19  C   UNL     1       1.438   8.692  19.136  0.00  0.00    +0.000 A 
ATOM     20  N   UNL     1       1.323   7.425  19.650  0.00  0.00    +0.000 NA
ATOM     21  C   UNL     1       2.144   6.470  19.151  0.00  0.00    +0.000 A 
ATOM     22  C   UNL     1       3.085   6.771  18.168  0.00  0.00    +0.000 A 
ATOM     23  C   UNL     1       3.179   8.071  17.661  0.00  0.00    +0.000 A 
ATOM     24  C   UNL     1       2.367   9.084  18.166  0.00  0.00    +0.000 A 
BRANCH  21  25
ATOM     25  C   UNL     1       1.971   5.123  19.727  0.00  0.00    +0.000 A 
ATOM     26  C   UNL     1       2.309   4.865  21.069  0.00  0.00    +0.000 A 
ATOM     27  C   UNL     1       2.156   3.592  21.633  0.00  0.00    +0.000 A 
ATOM     28  C   UNL     1       1.662   2.544  20.864  0.00  0.00    +0.000 A 
ATOM     29  C   UNL     1       1.315   2.770  19.537  0.00  0.00    +0.000 A 
ATOM     30  C   UNL     1       1.464   4.043  18.985  0.00  0.00    +0.000 A 
ATOM     31  F   UNL     1       1.084   4.209  17.709  0.00  0.00    +0.000 F 
ENDBRANCH  21  25
BRANCH  24  32
ATOM     32  N   UNL     1       2.369  10.333  17.516  0.00  0.00    +0.000 N 
ATOM     33  H   UNL     1       2.238  10.308  16.517  0.00  0.00    +0.000 HD
ATOM     34  H   UNL     1       3.155  10.925  17.808  0.00  0.00    +0.000 HD
ENDBRANCH  24  32
ENDBRANCH   2  19
TORSDOF 6
ENDMDL
MODEL 5
REMARK VINA RESULT:      -7.4      2.871      4.524
REMARK  Name = 
REMARK  7 active torsions:
REMARK  status: ('A' for Active; 'I' for Inactive)
REMARK    1  A    between atoms: C_1  and  N_2
REMARK    2  A    between atoms: C_5  and  N_6
REMARK    3  A    between atoms: C_7  and  C_9
REMARK    4  A    between atoms: C_11  and  C_12
REMARK    5  A    between atoms: C_21  and  N_22
REMARK    6  A    between atoms: C_23  and  O_24
REMARK    7  A    between atoms: O_24  and  C_25
REMARK                            x       y       z     vdW  Elec       q    Type
REMARK                         _______ _______ _______ _____ _____    ______ ____
ROOT
ATOM      1  N   UNL     1       0.816   9.902  21.051  0.00  0.00    +0.000 N 
ATOM      2  C   UNL     1       0.571   9.677  19.706  0.00  0.00    +0.000 C 
ATOM      3  O   UNL     1      -0.298  10.218  19.030  0.00  0.00    +0.000 OA
ATOM      4  H   UNL     1       1.613   9.409  21.437  0.00  0.00    +0.000 HD
ENDROOT
BRANCH   1   9
ATOM      5  C   UNL     1      -1.619  13.576  23.261  0.00  0.00    +0.000 C 
ATOM      6  N   UNL     1      -1.095  12.304  22.823  0.00  0.00    +0.000 N 
ATOM      7  N   UNL     1      -1.419  11.230  23.563  0.00  0.00    +0.000 NA
ATOM      8  C   UNL     1      -0.746  10.241  22.981  0.00  0.00    +0.000 A 
ATOM      9  C   UNL     1       0.016  10.673  21.871  0.00  0.00    +0.000 A 
ATOM     10  C   UNL     1      -0.219  12.047  21.780  0.00  0.00    +0.000 A 
BRANCH  10  11
ATOM     11  O   UNL     1       0.162  13.047  20.964  0.00  0.00    +0.000 OA
BRANCH  11  12
ATOM     12  C   UNL     1       1.524  13.502  21.001  0.00  0.00    +0.000 C 
ATOM     13  C   UNL     1       1.574  15.021  21.164  0.00  0.00    +0.000 C 
ATOM     14  C   UNL     1       1.036  15.739  19.931  0.00  0.00    +0.000 C 
ATOM     15  N   UNL     1       1.744  15.370  18.706  0.00  0.00    +0.000 NA
ATOM     16  C   UNL     1       1.760  13.924  18.490  0.00  0.00    +0.000 C 
ATOM     17  C   UNL     1       2.250  13.129  19.702  0.00  0.00    +0.000 C 
ATOM     18  H   UNL     1       2.698  15.730  18.735  0.00  0.00    +0.000 HD
ENDBRANCH  11  12
ENDBRANCH  10  11
ENDBRANCH   1   9
BRANCH   2  19
ATOM     19  C   UNL     1       1.502   8.663  19.102  0.00  0.00    +0.000 A 
ATOM     20  N   UNL     1       1.370   7.403  19.628  0.00  0.00    +0.000 NA
ATOM     21  C   UNL     1       2.166   6.428  19.125  0.00  0.00    +0.000 A 
ATOM     22  C   UNL     1       3.098   6.702  18.128  0.00  0.00    +0.000 A 
ATOM     23  C   UNL     1       3.211   7.996  17.608  0.00  0.00    +0.000 A 
ATOM     24  C   UNL     1       2.425   9.029  18.116  0.00  0.00    +0.000 A 
BRANCH  21  25
ATOM     25  C   UNL     1       1.975   5.089  19.715  0.00  0.00    +0.000 A 
ATOM     26  C   UNL     1       2.305   4.842  21.061  0.00  0.00    +0.000 A 
ATOM     27  C   UNL     1       2.135   3.577  21.638  0.00  0.00    +0.000 A 
ATOM     28  C   UNL     1       1.631   2.526  20.879  0.00  0.00    +0.000 A 
ATOM     29  C   UNL     1       1.292   2.742  19.548  0.00  0.00    +0.000 A 
ATOM     30  C   UNL     1       1.457   4.008  18.983  0.00  0.00    +0.000 A 
ATOM     31  F   UNL     1       1.084   4.164  17.704  0.00  0.00    +0.000 F 
ENDBRANCH  21  25
BRANCH  24  32
ATOM     32  N   UNL     1       2.443  10.272  17.455  0.00  0.00    +0.000 N 
ATOM     33  H   UNL     1       1.739  10.402  16.745  0.00  0.00    +0.000 HD
ATOM     34  H   UNL     1       3.385  10.539  17.147  0.00  0.00    +0.000 HD
ENDBRANCH  24  32
ENDBRANCH   2  19
TORSDOF 6
ENDMDL
MODEL 6
REMARK VINA RESULT:      -7.2      0.956      1.297
REMARK  Name = 
REMARK  7 active torsions:
REMARK  status: ('A' for Active; 'I' for Inactive)
REMARK    1  A    between atoms: C_1  and  N_2
REMARK    2  A    between atoms: C_5  and  N_6
REMARK    3  A    between atoms: C_7  and  C_9
REMARK    4  A    between atoms: C_11  and  C_12
REMARK    5  A    between atoms: C_21  and  N_22
REMARK    6  A    between atoms: C_23  and  O_24
REMARK    7  A    between atoms: O_24  and  C_25
REMARK                            x       y       z     vdW  Elec       q    Type
REMARK                         _______ _______ _______ _____ _____    ______ ____
ROOT
ATOM      1  N   UNL     1       1.759   7.679  20.360  0.00  0.00    +0.000 N 
ATOM      2  C   UNL     1       1.518   6.316  20.402  0.00  0.00    +0.000 C 
ATOM      3  O   UNL     1       0.679   5.752  21.098  0.00  0.00    +0.000 OA
ATOM      4  H   UNL     1       2.451   7.979  19.685  0.00  0.00    +0.000 HD
ENDROOT
BRANCH   1   9
ATOM      5  C   UNL     1      -0.998  11.222  22.401  0.00  0.00    +0.000 C 
ATOM      6  N   UNL     1      -0.076  10.147  22.124  0.00  0.00    +0.000 N 
ATOM      7  N   UNL     1       0.781   9.819  23.106  0.00  0.00    +0.000 NA
ATOM      8  C   UNL     1       1.540   8.878  22.551  0.00  0.00    +0.000 A 
ATOM      9  C   UNL     1       1.179   8.600  21.212  0.00  0.00    +0.000 A 
ATOM     10  C   UNL     1       0.109   9.454  20.938  0.00  0.00    +0.000 A 
BRANCH  10  11
ATOM     11  O   UNL     1      -0.704   9.691  19.891  0.00  0.00    +0.000 OA
BRANCH  11  12
ATOM     12  C   UNL     1      -0.134  10.130  18.648  0.00  0.00    +0.000 C 
ATOM     13  C   UNL     1       0.298  11.593  18.747  0.00  0.00    +0.000 C 
ATOM     14  C   UNL     1      -0.898  12.527  18.892  0.00  0.00    +0.000 C 
ATOM     15  N   UNL     1      -1.860  12.390  17.800  0.00  0.00    +0.000 NA
ATOM     16  C   UNL     1      -2.307  11.009  17.626  0.00  0.00    +0.000 C 
ATOM     17  C   UNL     1      -1.159  10.003  17.514  0.00  0.00    +0.000 C 
ATOM     18  H   UNL     1      -1.452  12.738  16.933  0.00  0.00    +0.000 HD
ENDBRANCH  11  12
ENDBRANCH  10  11
ENDBRANCH   1   9
BRANCH   2  19
ATOM     19  C   UNL     1       2.410   5.533  19.479  0.00  0.00    +0.000 A 
ATOM     20  N   UNL     1       3.619   6.132  19.235  0.00  0.00    +0.000 NA
ATOM     21  C   UNL     1       4.487   5.482  18.422  0.00  0.00    +0.000 A 
ATOM     22  C   UNL     1       4.151   4.263  17.838  0.00  0.00    +0.000 A 
ATOM     23  C   UNL     1       2.912   3.674  18.106  0.00  0.00    +0.000 A 
ATOM     24  C   UNL     1       1.985   4.324  18.919  0.00  0.00    +0.000 A 
BRANCH  21  25
ATOM     25  C   UNL     1       5.778   6.161  18.202  0.00  0.00    +0.000 A 
ATOM     26  C   UNL     1       5.919   7.132  17.192  0.00  0.00    +0.000 A 
ATOM     27  C   UNL     1       7.137   7.784  16.966  0.00  0.00    +0.000 A 
ATOM     28  C   UNL     1       8.247   7.479  17.746  0.00  0.00    +0.000 A 
ATOM     29  C   UNL     1       8.137   6.528  18.754  0.00  0.00    +0.000 A 
ATOM     30  C   UNL     1       6.917   5.888  18.978  0.00  0.00    +0.000 A 
ATOM     31  F   UNL     1       6.863   5.003  19.985  0.00  0.00    +0.000 F 
ENDBRANCH  21  25
BRANCH  24  32
ATOM     32  N   UNL     1       0.823   3.626  19.303  0.00  0.00    +0.000 N 
ATOM     33  H   UNL     1      -0.047   4.118  19.174  0.00  0.00    +0.000 HD
ATOM     34  H   UNL     1       0.913   3.197  20.231  0.00  0.00    +0.000 HD
ENDBRANCH  24  32
ENDBRANCH   2  19
TORSDOF 6
ENDMDL
MODEL 7
REMARK VINA RESULT:      -7.1      2.863      7.897
REMARK  Name = 
REMARK  7 active torsions:
REMARK  status: ('A' for Active; 'I' for Inactive)
REMARK    1  A    between atoms: C_1  and  N_2
REMARK    2  A    between atoms: C_5  and  N_6
REMARK    3  A    between atoms: C_7  and  C_9
REMARK    4  A    between atoms: C_11  and  C_12
REMARK    5  A    between atoms: C_21  and  N_22
REMARK    6  A    between atoms: C_23  and  O_24
REMARK    7  A    between atoms: O_24  and  C_25
REMARK                            x       y       z     vdW  Elec       q    Type
REMARK                         _______ _______ _______ _____ _____    ______ ____
ROOT
ATOM      1  N   UNL     1       3.624   7.132  18.355  0.00  0.00    +0.000 N 
ATOM      2  C   UNL     1       2.280   7.448  18.244  0.00  0.00    +0.000 C 
ATOM      3  O   UNL     1       1.529   7.103  17.337  0.00  0.00    +0.000 OA
ATOM      4  H   UNL     1       4.080   7.454  19.200  0.00  0.00    +0.000 HD
ENDROOT
BRANCH   1   9
ATOM      5  C   UNL     1       5.998   3.843  15.551  0.00  0.00    +0.000 C 
ATOM      6  N   UNL     1       5.377   5.018  16.113  0.00  0.00    +0.000 N 
ATOM      7  N   UNL     1       5.624   6.186  15.495  0.00  0.00    +0.000 NA
ATOM      8  C   UNL     1       5.002   7.078  16.263  0.00  0.00    +0.000 A 
ATOM      9  C   UNL     1       4.358   6.490  17.376  0.00  0.00    +0.000 A 
ATOM     10  C   UNL     1       4.619   5.123  17.269  0.00  0.00    +0.000 A 
BRANCH  10  11
ATOM     11  O   UNL     1       4.297   4.014  17.961  0.00  0.00    +0.000 OA
BRANCH  11  12
ATOM     12  C   UNL     1       3.350   3.090  17.401  0.00  0.00    +0.000 C 
ATOM     13  C   UNL     1       1.945   3.690  17.422  0.00  0.00    +0.000 C 
ATOM     14  C   UNL     1       1.421   3.854  18.844  0.00  0.00    +0.000 C 
ATOM     15  N   UNL     1       1.411   2.598  19.593  0.00  0.00    +0.000 NA
ATOM     16  C   UNL     1       2.721   1.948  19.601  0.00  0.00    +0.000 C 
ATOM     17  C   UNL     1       3.332   1.785  18.208  0.00  0.00    +0.000 C 
ATOM     18  H   UNL     1       0.710   1.968  19.204  0.00  0.00    +0.000 HD
ENDBRANCH  11  12
ENDBRANCH  10  11
ENDBRANCH   1   9
BRANCH   2  19
ATOM     19  C   UNL     1       1.781   8.295  19.381  0.00  0.00    +0.000 A 
ATOM     20  N   UNL     1       1.471   9.582  19.022  0.00  0.00    +0.000 NA
ATOM     21  C   UNL     1       1.000  10.406  19.989  0.00  0.00    +0.000 A 
ATOM     22  C   UNL     1       0.859   9.968  21.303  0.00  0.00    +0.000 A 
ATOM     23  C   UNL     1       1.181   8.650  21.642  0.00  0.00    +0.000 A 
ATOM     24  C   UNL     1       1.689   7.780  20.679  0.00  0.00    +0.000 A 
BRANCH  21  25
ATOM     25  C   UNL     1       0.668  11.775  19.548  0.00  0.00    +0.000 A 
ATOM     26  C   UNL     1       1.677  12.654  19.109  0.00  0.00    +0.000 A 
ATOM     27  C   UNL     1       1.383  13.958  18.691  0.00  0.00    +0.000 A 
ATOM     28  C   UNL     1       0.069  14.415  18.703  0.00  0.00    +0.000 A 
ATOM     29  C   UNL     1      -0.948  13.567  19.126  0.00  0.00    +0.000 A 
ATOM     30  C   UNL     1      -0.647  12.267  19.534  0.00  0.00    +0.000 A 
ATOM     31  F   UNL     1      -1.674  11.484  19.902  0.00  0.00    +0.000 F 
ENDBRANCH  21  25
BRANCH  24  32
ATOM     32  N   UNL     1       1.839   6.420  21.014  0.00  0.00    +0.000 N 
ATOM     33  H   UNL     1       1.981   6.222  21.992  0.00  0.00    +0.000 HD
ATOM     34  H   UNL     1       2.506   5.937  20.401  0.00  0.00    +0.000 HD
ENDBRANCH  24  32
ENDBRANCH   2  19
TORSDOF 6
ENDMDL
MODEL 8
REMARK VINA RESULT:      -7.1      2.685      7.904
REMARK  Name = 
REMARK  7 active torsions:
REMARK  status: ('A' for Active; 'I' for Inactive)
REMARK    1  A    between atoms: C_1  and  N_2
REMARK    2  A    between atoms: C_5  and  N_6
REMARK    3  A    between atoms: C_7  and  C_9
REMARK    4  A    between atoms: C_11  and  C_12
REMARK    5  A    between atoms: C_21  and  N_22
REMARK    6  A    between atoms: C_23  and  O_24
REMARK    7  A    between atoms: O_24  and  C_25
REMARK                            x       y       z     vdW  Elec       q    Type
REMARK                         _______ _______ _______ _____ _____    ______ ____
ROOT
ATOM      1  N   UNL     1       3.741   7.225  18.463  0.00  0.00    +0.000 N 
ATOM      2  C   UNL     1       2.385   7.469  18.321  0.00  0.00    +0.000 C 
ATOM      3  O   UNL     1       1.667   7.056  17.416  0.00  0.00    +0.000 OA
ATOM      4  H   UNL     1       4.166   7.598  19.304  0.00  0.00    +0.000 HD
ENDROOT
BRANCH   1   9
ATOM      5  C   UNL     1       5.890   3.960  15.457  0.00  0.00    +0.000 C 
ATOM      6  N   UNL     1       5.445   5.142  16.156  0.00  0.00    +0.000 N 
ATOM      7  N   UNL     1       6.106   6.282  15.896  0.00  0.00    +0.000 NA
ATOM      8  C   UNL     1       5.543   7.160  16.722  0.00  0.00    +0.000 A 
ATOM      9  C   UNL     1       4.522   6.589  17.517  0.00  0.00    +0.000 A 
ATOM     10  C   UNL     1       4.471   5.247  17.137  0.00  0.00    +0.000 A 
BRANCH  10  11
ATOM     11  O   UNL     1       3.735   4.169  17.466  0.00  0.00    +0.000 OA
BRANCH  11  12
ATOM     12  C   UNL     1       3.456   3.909  18.851  0.00  0.00    +0.000 C 
ATOM     13  C   UNL     1       4.073   2.578  19.278  0.00  0.00    +0.000 C 
ATOM     14  C   UNL     1       3.398   1.396  18.594  0.00  0.00    +0.000 C 
ATOM     15  N   UNL     1       1.956   1.349  18.837  0.00  0.00    +0.000 NA
ATOM     16  C   UNL     1       1.292   2.599  18.472  0.00  0.00    +0.000 C 
ATOM     17  C   UNL     1       1.942   3.839  19.090  0.00  0.00    +0.000 C 
ATOM     18  H   UNL     1       1.776   1.129  19.816  0.00  0.00    +0.000 HD
ENDBRANCH  11  12
ENDBRANCH  10  11
ENDBRANCH   1   9
BRANCH   2  19
ATOM     19  C   UNL     1       1.825   8.327  19.422  0.00  0.00    +0.000 A 
ATOM     20  N   UNL     1       1.555   9.617  19.039  0.00  0.00    +0.000 NA
ATOM     21  C   UNL     1       1.035  10.450  19.972  0.00  0.00    +0.000 A 
ATOM     22  C   UNL     1       0.804  10.019  21.276  0.00  0.00    +0.000 A 
ATOM     23  C   UNL     1       1.088   8.698  21.639  0.00  0.00    +0.000 A 
ATOM     24  C   UNL     1       1.645   7.818  20.713  0.00  0.00    +0.000 A 
BRANCH  21  25
ATOM     25  C   UNL     1       0.749  11.821  19.506  0.00  0.00    +0.000 A 
ATOM     26  C   UNL     1       1.618  12.884  19.820  0.00  0.00    +0.000 A 
ATOM     27  C   UNL     1       1.362  14.192  19.391  0.00  0.00    +0.000 A 
ATOM     28  C   UNL     1       0.227  14.469  18.637  0.00  0.00    +0.000 A 
ATOM     29  C   UNL     1      -0.646  13.439  18.307  0.00  0.00    +0.000 A 
ATOM     30  C   UNL     1      -0.380  12.137  18.733  0.00  0.00    +0.000 A 
ATOM     31  F   UNL     1      -1.242  11.179  18.359  0.00  0.00    +0.000 F 
ENDBRANCH  21  25
BRANCH  24  32
ATOM     32  N   UNL     1       1.756   6.458  21.061  0.00  0.00    +0.000 N 
ATOM     33  H   UNL     1       1.188   5.820  20.527  0.00  0.00    +0.000 HD
ATOM     34  H   UNL     1       1.692   6.307  22.075  0.00  0.00    +0.000 HD
ENDBRANCH  24  32
ENDBRANCH   2  19
TORSDOF 6
ENDMDL
MODEL 9
REMARK VINA RESULT:      -7.1      2.690      7.952
REMARK  Name = 
REMARK  7 active torsions:
REMARK  status: ('A' for Active; 'I' for Inactive)
REMARK    1  A    between atoms: C_1  and  N_2
REMARK    2  A    between atoms: C_5  and  N_6
REMARK    3  A    between atoms: C_7  and  C_9
REMARK    4  A    between atoms: C_11  and  C_12
REMARK    5  A    between atoms: C_21  and  N_22
REMARK    6  A    between atoms: C_23  and  O_24
REMARK    7  A    between atoms: O_24  and  C_25
REMARK                            x       y       z     vdW  Elec       q    Type
REMARK                         _______ _______ _______ _____ _____    ______ ____
ROOT
ATOM      1  N   UNL     1       3.733   7.219  18.458  0.00  0.00    +0.000 N 
ATOM      2  C   UNL     1       2.379   7.478  18.318  0.00  0.00    +0.000 C 
ATOM      3  O   UNL     1       1.659   7.086  17.405  0.00  0.00    +0.000 OA
ATOM      4  H   UNL     1       4.159   7.574  19.305  0.00  0.00    +0.000 HD
ENDROOT
BRANCH   1   9
ATOM      5  C   UNL     1       5.883   3.983  15.423  0.00  0.00    +0.000 C 
ATOM      6  N   UNL     1       5.433   5.159  16.128  0.00  0.00    +0.000 N 
ATOM      7  N   UNL     1       6.080   6.306  15.864  0.00  0.00    +0.000 NA
ATOM      8  C   UNL     1       5.516   7.177  16.698  0.00  0.00    +0.000 A 
ATOM      9  C   UNL     1       4.510   6.594  17.502  0.00  0.00    +0.000 A 
ATOM     10  C   UNL     1       4.468   5.252  17.120  0.00  0.00    +0.000 A 
BRANCH  10  11
ATOM     11  O   UNL     1       3.747   4.166  17.455  0.00  0.00    +0.000 OA
BRANCH  11  12
ATOM     12  C   UNL     1       3.457   3.918  18.840  0.00  0.00    +0.000 C 
ATOM     13  C   UNL     1       4.084   2.598  19.287  0.00  0.00    +0.000 C 
ATOM     14  C   UNL     1       3.427   1.401  18.609  0.00  0.00    +0.000 C 
ATOM     15  N   UNL     1       1.984   1.342  18.839  0.00  0.00    +0.000 NA
ATOM     16  C   UNL     1       1.311   2.582  18.454  0.00  0.00    +0.000 C 
ATOM     17  C   UNL     1       1.942   3.835  19.065  0.00  0.00    +0.000 C 
ATOM     18  H   UNL     1       1.797   1.131  19.818  0.00  0.00    +0.000 HD
ENDBRANCH  11  12
ENDBRANCH  10  11
ENDBRANCH   1   9
BRANCH   2  19
ATOM     19  C   UNL     1       1.824   8.321  19.432  0.00  0.00    +0.000 A 
ATOM     20  N   UNL     1       1.514   9.604  19.058  0.00  0.00    +0.000 NA
ATOM     21  C   UNL     1       0.995  10.424  20.003  0.00  0.00    +0.000 A 
ATOM     22  C   UNL     1       0.806   9.986  21.312  0.00  0.00    +0.000 A 
ATOM     23  C   UNL     1       1.130   8.673  21.666  0.00  0.00    +0.000 A 
ATOM     24  C   UNL     1       1.686   7.807  20.727  0.00  0.00    +0.000 A 
BRANCH  21  25
ATOM     25  C   UNL     1       0.666  11.788  19.546  0.00  0.00    +0.000 A 
ATOM     26  C   UNL     1      -0.404  12.011  18.658  0.00  0.00    +0.000 A 
ATOM     27  C   UNL     1      -0.729  13.297  18.209  0.00  0.00    +0.000 A 
ATOM     28  C   UNL     1       0.012  14.393  18.637  0.00  0.00    +0.000 A 
ATOM     29  C   UNL     1       1.071  14.204  19.518  0.00  0.00    +0.000 A 
ATOM     30  C   UNL     1       1.384  12.920  19.966  0.00  0.00    +0.000 A 
ATOM     31  F   UNL     1       2.397  12.802  20.838  0.00  0.00    +0.000 F 
ENDBRANCH  21  25
BRANCH  24  32
ATOM     32  N   UNL     1       1.838   6.450  21.071  0.00  0.00    +0.000 N 
ATOM     33  H   UNL     1       1.000   5.892  21.038  0.00  0.00    +0.000 HD
ATOM     34  H   UNL     1       2.376   6.323  21.936  0.00  0.00    +0.000 HD
ENDBRANCH  24  32
ENDBRANCH   2  19
TORSDOF 6
ENDMDL
