MODEL 1
REMARK VINA RESULT:      -7.7      0.000      0.000
REMARK  Name = 
REMARK  9 active torsions:
REMARK  status: ('A' for Active; 'I' for Inactive)
REMARK    1  A    between atoms: C_2  and  C_8
REMARK    2  A    between atoms: N_3  and  C_4
REMARK    3  A    between atoms: C_4  and  C_5
REMARK    4  A    between atoms: C_5  and  C_6
REMARK    5  A    between atoms: C_6  and  O_7
REMARK    6  A    between atoms: C_11  and  C_12
REMARK    7  A    between atoms: C_12  and  S_13
REMARK    8  A    between atoms: S_13  and  C_14
REMARK    9  A    between atoms: C_16  and  O_17
REMARK                            x       y       z     vdW  Elec       q    Type
REMARK                         _______ _______ _______ _____ _____    ______ ____
ROOT
ATOM      1  C   UNL     1       4.839   5.483  19.549  0.00  0.00    +0.000 C 
ENDROOT
BRANCH   1   5
ATOM      2  C   UNL     1       6.245   4.851  15.480  0.00  0.00    +0.000 A 
ATOM      3  C   UNL     1       6.992   5.635  16.360  0.00  0.00    +0.000 A 
ATOM      4  C   UNL     1       6.536   5.841  17.674  0.00  0.00    +0.000 A 
ATOM      5  C   UNL     1       5.330   5.276  18.120  0.00  0.00    +0.000 A 
ATOM      6  C   UNL     1       4.603   4.471  17.225  0.00  0.00    +0.000 A 
ATOM      7  C   UNL     1       5.051   4.261  15.918  0.00  0.00    +0.000 A 
BRANCH   2   9
ATOM      8  O   UNL     1       7.552   5.352  13.581  0.00  0.00    +0.000 OA
ATOM      9  C   UNL     1       6.728   4.605  14.092  0.00  0.00    +0.000 C 
ATOM     10  N   UNL     1       6.159   3.527  13.435  0.00  0.00    +0.000 N 
ATOM     11  H   UNL     1       5.316   3.119  13.824  0.00  0.00    +0.000 HD
BRANCH  10  12
ATOM     12  C   UNL     1       6.465   3.231  12.050  0.00  0.00    +0.000 C 
BRANCH  12  13
ATOM     13  C   UNL     1       5.464   2.261  11.434  0.00  0.00    +0.000 C 
BRANCH  13  14
ATOM     14  C   UNL     1       6.137   1.053  10.795  0.00  0.00    +0.000 C 
BRANCH  14  15
ATOM     15  O   UNL     1       7.344   0.753  11.490  0.00  0.00    +0.000 OA
ATOM     16  H   UNL     1       7.743   1.595  11.755  0.00  0.00    +0.000 HD
ENDBRANCH  14  15
ENDBRANCH  13  14
ENDBRANCH  12  13
ENDBRANCH  10  12
ENDBRANCH   2   9
ENDBRANCH   1   5
BRANCH   1  17
ATOM     17  S   UNL     1       3.088   5.006  19.760  0.00  0.00    +0.000 S 
BRANCH  17  18
ATOM     18  C   UNL     1       2.255   6.590  19.716  0.00  0.00    +0.000 A 
ATOM     19  N   UNL     1       2.379   7.252  18.544  0.00  0.00    +0.000 NA
ATOM     20  C   UNL     1       1.937   8.511  18.492  0.00  0.00    +0.000 A 
ATOM     21  C   UNL     1       1.380   9.138  19.592  0.00  0.00    +0.000 A 
ATOM     22  C   UNL     1       0.908  10.442  19.865  0.00  0.00    +0.000 A 
ATOM     23  C   UNL     1       0.456  10.577  21.148  0.00  0.00    +0.000 A 
ATOM     24  S   UNL     1       0.570   9.176  22.059  0.00  0.00    +0.000 S 
ATOM     25  C   UNL     1       1.268   8.334  20.723  0.00  0.00    +0.000 A 
ATOM     26  N   UNL     1       1.674   7.053  20.834  0.00  0.00    +0.000 NA
ATOM     27  C   UNL     1      -0.044  11.937  21.464  0.00  0.00    +0.000 C 
ATOM     28  C   UNL     1       0.516  12.747  20.250  0.00  0.00    +0.000 C 
ATOM     29  C   UNL     1       0.795  11.717  19.113  0.00  0.00    +0.000 C 
BRANCH  20  30
ATOM     30  O   UNL     1       2.137   9.154  17.307  0.00  0.00    +0.000 OA
ATOM     31  H   UNL     1       2.966   8.752  17.003  0.00  0.00    +0.000 HD
ENDBRANCH  20  30
ENDBRANCH  17  18
ENDBRANCH   1  17
TORSDOF 9
ENDMDL
MODEL 2
REMARK VINA RESULT:      -7.6      1.009      1.035
REMARK  Name = 
REMARK  9 active torsions:
REMARK  status: ('A' for Active; 'I' for Inactive)
REMARK    1  A    between atoms: C_2  and  C_8
REMARK    2  A    between atoms: N_3  and  C_4
REMARK    3  A    between atoms: C_4  and  C_5
REMARK    4  A    between atoms: C_5  and  C_6
REMARK    5  A    between atoms: C_6  and  O_7
REMARK    6  A    between atoms: C_11  and  C_12
REMARK    7  A    between atoms: C_12  and  S_13
REMARK    8  A    between atoms: S_13  and  C_14
REMARK    9  A    between atoms: C_16  and  O_17
REMARK                            x       y       z     vdW  Elec       q    Type
REMARK                         _______ _______ _______ _____ _____    ______ ____
ROOT
ATOM      1  C   UNL     1       4.725   5.735  19.478  0.00  0.00    +0.000 C 
ENDROOT
BRANCH   1   5
ATOM      2  C   UNL     1       6.508   5.139  15.554  0.00  0.00    +0.000 A 
ATOM      3  C   UNL     1       7.088   4.551  16.679  0.00  0.00    +0.000 A 
ATOM      4  C   UNL     1       6.513   4.746  17.947  0.00  0.00    +0.000 A 
ATOM      5  C   UNL     1       5.361   5.534  18.107  0.00  0.00    +0.000 A 
ATOM      6  C   UNL     1       4.778   6.099  16.959  0.00  0.00    +0.000 A 
ATOM      7  C   UNL     1       5.344   5.907  15.695  0.00  0.00    +0.000 A 
BRANCH   2   9
ATOM      8  O   UNL     1       8.038   5.599  13.817  0.00  0.00    +0.000 OA
ATOM      9  C   UNL     1       7.093   4.921  14.201  0.00  0.00    +0.000 C 
ATOM     10  N   UNL     1       6.479   3.953  13.425  0.00  0.00    +0.000 N 
ATOM     11  H   UNL     1       5.564   3.619  13.709  0.00  0.00    +0.000 HD
BRANCH  10  12
ATOM     12  C   UNL     1       6.884   3.703  12.056  0.00  0.00    +0.000 C 
BRANCH  12  13
ATOM     13  C   UNL     1       6.562   2.283  11.609  0.00  0.00    +0.000 C 
BRANCH  13  14
ATOM     14  C   UNL     1       5.102   2.113  11.209  0.00  0.00    +0.000 C 
BRANCH  14  15
ATOM     15  O   UNL     1       4.378   3.301  11.516  0.00  0.00    +0.000 OA
ATOM     16  H   UNL     1       4.748   3.663  12.335  0.00  0.00    +0.000 HD
ENDBRANCH  14  15
ENDBRANCH  13  14
ENDBRANCH  12  13
ENDBRANCH  10  12
ENDBRANCH   2   9
ENDBRANCH   1   5
BRANCH   1  17
ATOM     17  S   UNL     1       2.963   5.250  19.505  0.00  0.00    +0.000 S 
BRANCH  17  18
ATOM     18  C   UNL     1       2.134   6.835  19.583  0.00  0.00    +0.000 A 
ATOM     19  N   UNL     1       2.233   7.571  18.452  0.00  0.00    +0.000 NA
ATOM     20  C   UNL     1       1.795   8.831  18.492  0.00  0.00    +0.000 A 
ATOM     21  C   UNL     1       1.265   9.387  19.643  0.00  0.00    +0.000 A 
ATOM     22  C   UNL     1       0.803  10.672  20.010  0.00  0.00    +0.000 A 
ATOM     23  C   UNL     1       0.381  10.725  21.309  0.00  0.00    +0.000 A 
ATOM     24  S   UNL     1       0.511   9.268  22.125  0.00  0.00    +0.000 S 
ATOM     25  C   UNL     1       1.176   8.513  20.722  0.00  0.00    +0.000 A 
ATOM     26  N   UNL     1       1.580   7.226  20.741  0.00  0.00    +0.000 NA
ATOM     27  C   UNL     1      -0.108  12.063  21.723  0.00  0.00    +0.000 C 
ATOM     28  C   UNL     1       0.427  12.948  20.551  0.00  0.00    +0.000 C 
ATOM     29  C   UNL     1       0.677  11.993  19.344  0.00  0.00    +0.000 C 
BRANCH  20  30
ATOM     30  O   UNL     1       1.968   9.549  17.346  0.00  0.00    +0.000 OA
ATOM     31  H   UNL     1       1.574  10.401  17.588  0.00  0.00    +0.000 HD
ENDBRANCH  20  30
ENDBRANCH  17  18
ENDBRANCH   1  17
TORSDOF 9
ENDMDL
MODEL 3
REMARK VINA RESULT:      -7.5      1.589      2.007
REMARK  Name = 
REMARK  9 active torsions:
REMARK  status: ('A' for Active; 'I' for Inactive)
REMARK    1  A    between atoms: C_2  and  C_8
REMARK    2  A    between atoms: N_3  and  C_4
REMARK    3  A    between atoms: C_4  and  C_5
REMARK    4  A    between atoms: C_5  and  C_6
REMARK    5  A    between atoms: C_6  and  O_7
REMARK    6  A    between atoms: C_11  and  C_12
REMARK    7  A    between atoms: C_12  and  S_13
REMARK    8  A    between atoms: S_13  and  C_14
REMARK    9  A    between atoms: C_16  and  O_17
REMARK                            x       y       z     vdW  Elec       q    Type
REMARK                         _______ _______ _______ _____ _____    ______ ____
ROOT
ATOM      1  C   UNL     1       4.264   5.592  19.543  0.00  0.00    +0.000 C 
ENDROOT
BRANCH   1   5
ATOM      2  C   UNL     1       5.968   4.896  15.600  0.00  0.00    +0.000 A 
ATOM      3  C   UNL     1       5.192   6.033  15.833  0.00  0.00    +0.000 A 
ATOM      4  C   UNL     1       4.640   6.256  17.106  0.00  0.00    +0.000 A 
ATOM      5  C   UNL     1       4.848   5.346  18.157  0.00  0.00    +0.000 A 
ATOM      6  C   UNL     1       5.650   4.219  17.909  0.00  0.00    +0.000 A 
ATOM      7  C   UNL     1       6.204   3.992  16.646  0.00  0.00    +0.000 A 
BRANCH   2   9
ATOM      8  O   UNL     1       7.461   5.398  13.844  0.00  0.00    +0.000 OA
ATOM      9  C   UNL     1       6.579   4.659  14.263  0.00  0.00    +0.000 C 
ATOM     10  N   UNL     1       6.059   3.599  13.539  0.00  0.00    +0.000 N 
ATOM     11  H   UNL     1       5.176   3.201  13.839  0.00  0.00    +0.000 HD
BRANCH  10  12
ATOM     12  C   UNL     1       6.492   3.314  12.186  0.00  0.00    +0.000 C 
BRANCH  12  13
ATOM     13  C   UNL     1       5.699   2.177  11.554  0.00  0.00    +0.000 C 
BRANCH  13  14
ATOM     14  C   UNL     1       6.596   1.088  10.979  0.00  0.00    +0.000 C 
BRANCH  14  15
ATOM     15  O   UNL     1       6.182  -0.184  11.469  0.00  0.00    +0.000 OA
ATOM     16  H   UNL     1       6.878  -0.820  11.249  0.00  0.00    +0.000 HD
ENDBRANCH  14  15
ENDBRANCH  13  14
ENDBRANCH  12  13
ENDBRANCH  10  12
ENDBRANCH   2   9
ENDBRANCH   1   5
BRANCH   1  17
ATOM     17  S   UNL     1       2.440   5.486  19.559  0.00  0.00    +0.000 S 
BRANCH  17  18
ATOM     18  C   UNL     1       1.963   7.187  19.852  0.00  0.00    +0.000 A 
ATOM     19  N   UNL     1       1.335   7.394  21.031  0.00  0.00    +0.000 NA
ATOM     20  C   UNL     1       0.794   8.596  21.244  0.00  0.00    +0.000 A 
ATOM     21  C   UNL     1       0.854   9.604  20.298  0.00  0.00    +0.000 A 
ATOM     22  C   UNL     1       0.329  10.912  20.199  0.00  0.00    +0.000 A 
ATOM     23  C   UNL     1       0.661  11.523  19.022  0.00  0.00    +0.000 A 
ATOM     24  S   UNL     1       1.600  10.576  18.009  0.00  0.00    +0.000 S 
ATOM     25  C   UNL     1       1.567   9.279  19.147  0.00  0.00    +0.000 A 
ATOM     26  N   UNL     1       2.153   8.094  18.881  0.00  0.00    +0.000 NA
ATOM     27  C   UNL     1       0.121  12.898  18.890  0.00  0.00    +0.000 C 
ATOM     28  C   UNL     1      -0.929  12.916  20.048  0.00  0.00    +0.000 C 
ATOM     29  C   UNL     1      -0.514  11.793  21.048  0.00  0.00    +0.000 C 
BRANCH  20  30
ATOM     30  O   UNL     1       0.123   8.737  22.422  0.00  0.00    +0.000 OA
ATOM     31  H   UNL     1       0.153   9.698  22.549  0.00  0.00    +0.000 HD
ENDBRANCH  20  30
ENDBRANCH  17  18
ENDBRANCH   1  17
TORSDOF 9
ENDMDL
MODEL 4
REMARK VINA RESULT:      -7.4      4.512     10.510
REMARK  Name = 
REMARK  9 active torsions:
REMARK  status: ('A' for Active; 'I' for Inactive)
REMARK    1  A    between atoms: C_2  and  C_8
REMARK    2  A    between atoms: N_3  and  C_4
REMARK    3  A    between atoms: C_4  and  C_5
REMARK    4  A    between atoms: C_5  and  C_6
REMARK    5  A    between atoms: C_6  and  O_7
REMARK    6  A    between atoms: C_11  and  C_12
REMARK    7  A    between atoms: C_12  and  S_13
REMARK    8  A    between atoms: S_13  and  C_14
REMARK    9  A    between atoms: C_16  and  O_17
REMARK                            x       y       z     vdW  Elec       q    Type
REMARK                         _______ _______ _______ _____ _____    ______ ____
ROOT
ATOM      1  C   UNL     1       1.074  10.172  19.361  0.00  0.00    +0.000 C 
ENDROOT
BRANCH   1   5
ATOM      2  C   UNL     1      -2.994  11.153  18.166  0.00  0.00    +0.000 A 
ATOM      3  C   UNL     1      -2.248  10.243  17.415  0.00  0.00    +0.000 A 
ATOM      4  C   UNL     1      -0.933   9.928  17.801  0.00  0.00    +0.000 A 
ATOM      5  C   UNL     1      -0.346  10.522  18.931  0.00  0.00    +0.000 A 
ATOM      6  C   UNL     1      -1.121  11.420  19.686  0.00  0.00    +0.000 A 
ATOM      7  C   UNL     1      -2.430  11.735  19.310  0.00  0.00    +0.000 A 
BRANCH   2   9
ATOM      8  O   UNL     1      -4.696  11.641  16.606  0.00  0.00    +0.000 OA
ATOM      9  C   UNL     1      -4.396  11.477  17.782  0.00  0.00    +0.000 C 
ATOM     10  N   UNL     1      -5.293  11.615  18.828  0.00  0.00    +0.000 N 
ATOM     11  H   UNL     1      -4.923  11.714  19.767  0.00  0.00    +0.000 HD
BRANCH  10  12
ATOM     12  C   UNL     1      -6.666  12.022  18.606  0.00  0.00    +0.000 C 
BRANCH  12  13
ATOM     13  C   UNL     1      -7.556  11.724  19.807  0.00  0.00    +0.000 C 
BRANCH  13  14
ATOM     14  C   UNL     1      -7.481  10.267  20.243  0.00  0.00    +0.000 C 
BRANCH  14  15
ATOM     15  O   UNL     1      -7.464   9.422  19.096  0.00  0.00    +0.000 OA
ATOM     16  H   UNL     1      -7.651   9.977  18.324  0.00  0.00    +0.000 HD
ENDBRANCH  14  15
ENDBRANCH  13  14
ENDBRANCH  12  13
ENDBRANCH  10  12
ENDBRANCH   2   9
ENDBRANCH   1   5
BRANCH   1  17
ATOM     17  S   UNL     1       2.165   9.820  17.939  0.00  0.00    +0.000 S 
BRANCH  17  18
ATOM     18  C   UNL     1       2.688   8.139  18.269  0.00  0.00    +0.000 A 
ATOM     19  N   UNL     1       3.532   7.628  17.344  0.00  0.00    +0.000 NA
ATOM     20  C   UNL     1       3.826   6.328  17.424  0.00  0.00    +0.000 A 
ATOM     21  C   UNL     1       3.287   5.514  18.405  0.00  0.00    +0.000 A 
ATOM     22  C   UNL     1       3.343   4.132  18.697  0.00  0.00    +0.000 A 
ATOM     23  C   UNL     1       2.602   3.799  19.797  0.00  0.00    +0.000 A 
ATOM     24  S   UNL     1       1.830   5.101  20.514  0.00  0.00    +0.000 S 
ATOM     25  C   UNL     1       2.471   6.171  19.322  0.00  0.00    +0.000 A 
ATOM     26  N   UNL     1       2.153   7.482  19.309  0.00  0.00    +0.000 NA
ATOM     27  C   UNL     1       2.640   2.353  20.125  0.00  0.00    +0.000 C 
ATOM     28  C   UNL     1       3.247   1.766  18.810  0.00  0.00    +0.000 C 
ATOM     29  C   UNL     1       3.990   2.938  18.097  0.00  0.00    +0.000 C 
BRANCH  20  30
ATOM     30  O   UNL     1       4.633   5.847  16.437  0.00  0.00    +0.000 OA
ATOM     31  H   UNL     1       4.903   6.665  15.990  0.00  0.00    +0.000 HD
ENDBRANCH  20  30
ENDBRANCH  17  18
ENDBRANCH   1  17
TORSDOF 9
ENDMDL
MODEL 5
REMARK VINA RESULT:      -7.3      1.690      1.917
REMARK  Name = 
REMARK  9 active torsions:
REMARK  status: ('A' for Active; 'I' for Inactive)
REMARK    1  A    between atoms: C_2  and  C_8
REMARK    2  A    between atoms: N_3  and  C_4
REMARK    3  A    between atoms: C_4  and  C_5
REMARK    4  A    between atoms: C_5  and  C_6
REMARK    5  A    between atoms: C_6  and  O_7
REMARK    6  A    between atoms: C_11  and  C_12
REMARK    7  A    between atoms: C_12  and  S_13
REMARK    8  A    between atoms: S_13  and  C_14
REMARK    9  A    between atoms: C_16  and  O_17
REMARK                            x       y       z     vdW  Elec       q    Type
REMARK                         _______ _______ _______ _____ _____    ______ ____
ROOT
ATOM      1  C   UNL     1       4.757   6.296  18.701  0.00  0.00    +0.000 C 
ENDROOT
BRANCH   1   5
ATOM      2  C   UNL     1       5.591   4.530  14.812  0.00  0.00    +0.000 A 
ATOM      3  C   UNL     1       5.512   3.717  15.944  0.00  0.00    +0.000 A 
ATOM      4  C   UNL     1       5.244   4.288  17.200  0.00  0.00    +0.000 A 
ATOM      5  C   UNL     1       5.063   5.674  17.343  0.00  0.00    +0.000 A 
ATOM      6  C   UNL     1       5.124   6.473  16.189  0.00  0.00    +0.000 A 
ATOM      7  C   UNL     1       5.388   5.912  14.936  0.00  0.00    +0.000 A 
BRANCH   2   9
ATOM      8  O   UNL     1       6.992   3.868  13.033  0.00  0.00    +0.000 OA
ATOM      9  C   UNL     1       5.851   3.935  13.472  0.00  0.00    +0.000 C 
ATOM     10  N   UNL     1       4.733   3.517  12.769  0.00  0.00    +0.000 N 
ATOM     11  H   UNL     1       3.823   3.833  13.085  0.00  0.00    +0.000 HD
BRANCH  10  12
ATOM     12  C   UNL     1       4.830   3.008  11.416  0.00  0.00    +0.000 C 
BRANCH  12  13
ATOM     13  C   UNL     1       3.476   2.964  10.718  0.00  0.00    +0.000 C 
BRANCH  13  14
ATOM     14  C   UNL     1       3.112   4.289  10.063  0.00  0.00    +0.000 C 
BRANCH  14  15
ATOM     15  O   UNL     1       2.882   4.090   8.671  0.00  0.00    +0.000 OA
ATOM     16  H   UNL     1       2.193   3.415   8.584  0.00  0.00    +0.000 HD
ENDBRANCH  14  15
ENDBRANCH  13  14
ENDBRANCH  12  13
ENDBRANCH  10  12
ENDBRANCH   2   9
ENDBRANCH   1   5
BRANCH   1  17
ATOM     17  S   UNL     1       3.225   5.629  19.443  0.00  0.00    +0.000 S 
BRANCH  17  18
ATOM     18  C   UNL     1       2.206   7.094  19.590  0.00  0.00    +0.000 A 
ATOM     19  N   UNL     1       2.211   7.887  18.495  0.00  0.00    +0.000 NA
ATOM     20  C   UNL     1       1.620   9.081  18.590  0.00  0.00    +0.000 A 
ATOM     21  C   UNL     1       1.028   9.513  19.764  0.00  0.00    +0.000 A 
ATOM     22  C   UNL     1       0.411  10.713  20.187  0.00  0.00    +0.000 A 
ATOM     23  C   UNL     1      -0.013  10.653  21.486  0.00  0.00    +0.000 A 
ATOM     24  S   UNL     1       0.300   9.187  22.234  0.00  0.00    +0.000 S 
ATOM     25  C   UNL     1       1.050   8.586  20.801  0.00  0.00    +0.000 A 
ATOM     26  N   UNL     1       1.611   7.360  20.763  0.00  0.00    +0.000 NA
ATOM     27  C   UNL     1      -0.662  11.900  21.959  0.00  0.00    +0.000 C 
ATOM     28  C   UNL     1      -0.243  12.898  20.831  0.00  0.00    +0.000 C 
ATOM     29  C   UNL     1       0.121  12.037  19.582  0.00  0.00    +0.000 C 
BRANCH  20  30
ATOM     30  O   UNL     1       1.701   9.866  17.480  0.00  0.00    +0.000 OA
ATOM     31  H   UNL     1       1.890  10.735  17.868  0.00  0.00    +0.000 HD
ENDBRANCH  20  30
ENDBRANCH  17  18
ENDBRANCH   1  17
TORSDOF 9
ENDMDL
MODEL 6
REMARK VINA RESULT:      -7.3      6.223      9.196
REMARK  Name = 
REMARK  9 active torsions:
REMARK  status: ('A' for Active; 'I' for Inactive)
REMARK    1  A    between atoms: C_2  and  C_8
REMARK    2  A    between atoms: N_3  and  C_4
REMARK    3  A    between atoms: C_4  and  C_5
REMARK    4  A    between atoms: C_5  and  C_6
REMARK    5  A    between atoms: C_6  and  O_7
REMARK    6  A    between atoms: C_11  and  C_12
REMARK    7  A    between atoms: C_12  and  S_13
REMARK    8  A    between atoms: S_13  and  C_14
REMARK    9  A    between atoms: C_16  and  O_17
REMARK                            x       y       z     vdW  Elec       q    Type
REMARK                         _______ _______ _______ _____ _____    ______ ____
ROOT
ATOM      1  C   UNL     1       7.706   8.264  17.582  0.00  0.00    +0.000 C 
ENDROOT
BRANCH   1   5
ATOM      2  C   UNL     1       9.656  11.820  19.158  0.00  0.00    +0.000 A 
ATOM      3  C   UNL     1       9.754  10.610  19.846  0.00  0.00    +0.000 A 
ATOM      4  C   UNL     1       9.122   9.462  19.337  0.00  0.00    +0.000 A 
ATOM      5  C   UNL     1       8.380   9.510  18.145  0.00  0.00    +0.000 A 
ATOM      6  C   UNL     1       8.312  10.733  17.455  0.00  0.00    +0.000 A 
ATOM      7  C   UNL     1       8.939  11.878  17.954  0.00  0.00    +0.000 A 
BRANCH   2   9
ATOM      8  O   UNL     1      10.646  13.126  20.855  0.00  0.00    +0.000 OA
ATOM      9  C   UNL     1      10.340  13.039  19.673  0.00  0.00    +0.000 C 
ATOM     10  N   UNL     1      10.557  14.047  18.749  0.00  0.00    +0.000 N 
ATOM     11  H   UNL     1      10.058  14.005  17.867  0.00  0.00    +0.000 HD
BRANCH  10  12
ATOM     12  C   UNL     1      11.126  15.323  19.133  0.00  0.00    +0.000 C 
BRANCH  12  13
ATOM     13  C   UNL     1      10.459  16.491  18.415  0.00  0.00    +0.000 C 
BRANCH  13  14
ATOM     14  C   UNL     1       9.855  16.086  17.077  0.00  0.00    +0.000 C 
BRANCH  14  15
ATOM     15  O   UNL     1      10.887  15.959  16.103  0.00  0.00    +0.000 OA
ATOM     16  H   UNL     1      11.696  16.328  16.487  0.00  0.00    +0.000 HD
ENDBRANCH  14  15
ENDBRANCH  13  14
ENDBRANCH  12  13
ENDBRANCH  10  12
ENDBRANCH   2   9
ENDBRANCH   1   5
BRANCH   1  17
ATOM     17  S   UNL     1       7.979   6.791  18.629  0.00  0.00    +0.000 S 
BRANCH  17  18
ATOM     18  C   UNL     1       6.457   5.876  18.402  0.00  0.00    +0.000 A 
ATOM     19  N   UNL     1       5.490   6.559  17.749  0.00  0.00    +0.000 NA
ATOM     20  C   UNL     1       4.273   6.013  17.696  0.00  0.00    +0.000 A 
ATOM     21  C   UNL     1       3.989   4.797  18.292  0.00  0.00    +0.000 A 
ATOM     22  C   UNL     1       2.821   4.021  18.470  0.00  0.00    +0.000 A 
ATOM     23  C   UNL     1       3.059   2.867  19.164  0.00  0.00    +0.000 A 
ATOM     24  S   UNL     1       4.659   2.667  19.617  0.00  0.00    +0.000 S 
ATOM     25  C   UNL     1       5.081   4.174  18.891  0.00  0.00    +0.000 A 
ATOM     26  N   UNL     1       6.336   4.662  18.960  0.00  0.00    +0.000 NA
ATOM     27  C   UNL     1       1.849   2.033  19.368  0.00  0.00    +0.000 C 
ATOM     28  C   UNL     1       0.723   3.050  18.993  0.00  0.00    +0.000 C 
ATOM     29  C   UNL     1       1.387   4.150  18.108  0.00  0.00    +0.000 C 
BRANCH  20  30
ATOM     30  O   UNL     1       3.319   6.765  17.078  0.00  0.00    +0.000 OA
ATOM     31  H   UNL     1       2.622   6.108  16.924  0.00  0.00    +0.000 HD
ENDBRANCH  20  30
ENDBRANCH  17  18
ENDBRANCH   1  17
TORSDOF 9
ENDMDL
MODEL 7
REMARK VINA RESULT:      -7.3      4.556     10.573
REMARK  Name = 
REMARK  9 active torsions:
REMARK  status: ('A' for Active; 'I' for Inactive)
REMARK    1  A    between atoms: C_2  and  C_8
REMARK    2  A    between atoms: N_3  and  C_4
REMARK    3  A    between atoms: C_4  and  C_5
REMARK    4  A    between atoms: C_5  and  C_6
REMARK    5  A    between atoms: C_6  and  O_7
REMARK    6  A    between atoms: C_11  and  C_12
REMARK    7  A    between atoms: C_12  and  S_13
REMARK    8  A    between atoms: S_13  and  C_14
REMARK    9  A    between atoms: C_16  and  O_17
REMARK                            x       y       z     vdW  Elec       q    Type
REMARK                         _______ _______ _______ _____ _____    ______ ____
ROOT
ATOM      1  C   UNL     1       1.049  10.288  19.266  0.00  0.00    +0.000 C 
ENDROOT
BRANCH   1   5
ATOM      2  C   UNL     1      -3.079  11.012  18.096  0.00  0.00    +0.000 A 
ATOM      3  C   UNL     1      -2.543  11.672  19.203  0.00  0.00    +0.000 A 
ATOM      4  C   UNL     1      -1.210  11.436  19.582  0.00  0.00    +0.000 A 
ATOM      5  C   UNL     1      -0.402  10.536  18.868  0.00  0.00    +0.000 A 
ATOM      6  C   UNL     1      -0.953   9.898  17.743  0.00  0.00    +0.000 A 
ATOM      7  C   UNL     1      -2.277  10.129  17.359  0.00  0.00    +0.000 A 
BRANCH   2   9
ATOM      8  O   UNL     1      -4.714  11.855  16.617  0.00  0.00    +0.000 OA
ATOM      9  C   UNL     1      -4.482  11.271  17.669  0.00  0.00    +0.000 C 
ATOM     10  N   UNL     1      -5.468  10.851  18.545  0.00  0.00    +0.000 N 
ATOM     11  H   UNL     1      -5.197  10.610  19.492  0.00  0.00    +0.000 HD
BRANCH  10  12
ATOM     12  C   UNL     1      -6.871  11.123  18.302  0.00  0.00    +0.000 C 
BRANCH  12  13
ATOM     13  C   UNL     1      -7.388  12.280  19.148  0.00  0.00    +0.000 C 
BRANCH  13  14
ATOM     14  C   UNL     1      -7.666  11.872  20.588  0.00  0.00    +0.000 C 
BRANCH  14  15
ATOM     15  O   UNL     1      -7.059  10.612  20.857  0.00  0.00    +0.000 OA
ATOM     16  H   UNL     1      -7.768   9.953  20.910  0.00  0.00    +0.000 HD
ENDBRANCH  14  15
ENDBRANCH  13  14
ENDBRANCH  12  13
ENDBRANCH  10  12
ENDBRANCH   2   9
ENDBRANCH   1   5
BRANCH   1  17
ATOM     17  S   UNL     1       2.102   9.872  17.832  0.00  0.00    +0.000 S 
BRANCH  17  18
ATOM     18  C   UNL     1       2.655   8.217  18.234  0.00  0.00    +0.000 A 
ATOM     19  N   UNL     1       3.533   7.694  17.350  0.00  0.00    +0.000 NA
ATOM     20  C   UNL     1       3.855   6.405  17.483  0.00  0.00    +0.000 A 
ATOM     21  C   UNL     1       3.309   5.613  18.478  0.00  0.00    +0.000 A 
ATOM     22  C   UNL     1       3.389   4.243  18.819  0.00  0.00    +0.000 A 
ATOM     23  C   UNL     1       2.628   3.931  19.912  0.00  0.00    +0.000 A 
ATOM     24  S   UNL     1       1.808   5.239  20.563  0.00  0.00    +0.000 S 
ATOM     25  C   UNL     1       2.455   6.282  19.350  0.00  0.00    +0.000 A 
ATOM     26  N   UNL     1       2.107   7.583  19.283  0.00  0.00    +0.000 NA
ATOM     27  C   UNL     1       2.690   2.499  20.292  0.00  0.00    +0.000 C 
ATOM     28  C   UNL     1       3.344   1.881  19.014  0.00  0.00    +0.000 C 
ATOM     29  C   UNL     1       4.078   3.045  18.279  0.00  0.00    +0.000 C 
BRANCH  20  30
ATOM     30  O   UNL     1       4.698   5.909  16.534  0.00  0.00    +0.000 OA
ATOM     31  H   UNL     1       5.426   6.550  16.566  0.00  0.00    +0.000 HD
ENDBRANCH  20  30
ENDBRANCH  17  18
ENDBRANCH   1  17
TORSDOF 9
ENDMDL
MODEL 8
REMARK VINA RESULT:      -7.2      3.253      5.319
REMARK  Name = 
REMARK  9 active torsions:
REMARK  status: ('A' for Active; 'I' for Inactive)
REMARK    1  A    between atoms: C_2  and  C_8
REMARK    2  A    between atoms: N_3  and  C_4
REMARK    3  A    between atoms: C_4  and  C_5
REMARK    4  A    between atoms: C_5  and  C_6
REMARK    5  A    between atoms: C_6  and  O_7
REMARK    6  A    between atoms: C_11  and  C_12
REMARK    7  A    between atoms: C_12  and  S_13
REMARK    8  A    between atoms: S_13  and  C_14
REMARK    9  A    between atoms: C_16  and  O_17
REMARK                            x       y       z     vdW  Elec       q    Type
REMARK                         _______ _______ _______ _____ _____    ______ ____
ROOT
ATOM      1  C   UNL     1       1.272   8.931  21.390  0.00  0.00    +0.000 C 
ENDROOT
BRANCH   1   5
ATOM      2  C   UNL     1       2.447   5.768  18.642  0.00  0.00    +0.000 A 
ATOM      3  C   UNL     1       2.516   7.102  18.238  0.00  0.00    +0.000 A 
ATOM      4  C   UNL     1       2.134   8.124  19.126  0.00  0.00    +0.000 A 
ATOM      5  C   UNL     1       1.672   7.826  20.419  0.00  0.00    +0.000 A 
ATOM      6  C   UNL     1       1.632   6.477  20.815  0.00  0.00    +0.000 A 
ATOM      7  C   UNL     1       2.012   5.457  19.938  0.00  0.00    +0.000 A 
BRANCH   2   9
ATOM      8  O   UNL     1       2.060   3.851  17.323  0.00  0.00    +0.000 OA
ATOM      9  C   UNL     1       2.871   4.678  17.720  0.00  0.00    +0.000 C 
ATOM     10  N   UNL     1       4.216   4.651  17.393  0.00  0.00    +0.000 N 
ATOM     11  H   UNL     1       4.857   5.204  17.952  0.00  0.00    +0.000 HD
BRANCH  10  12
ATOM     12  C   UNL     1       4.783   3.591  16.583  0.00  0.00    +0.000 C 
BRANCH  12  13
ATOM     13  C   UNL     1       6.008   4.053  15.803  0.00  0.00    +0.000 C 
BRANCH  13  14
ATOM     14  C   UNL     1       7.127   4.546  16.711  0.00  0.00    +0.000 C 
BRANCH  14  15
ATOM     15  O   UNL     1       6.890   4.109  18.046  0.00  0.00    +0.000 OA
ATOM     16  H   UNL     1       7.128   3.171  18.091  0.00  0.00    +0.000 HD
ENDBRANCH  14  15
ENDBRANCH  13  14
ENDBRANCH  12  13
ENDBRANCH  10  12
ENDBRANCH   2   9
ENDBRANCH   1   5
BRANCH   1  17
ATOM     17  S   UNL     1      -0.058   9.993  20.725  0.00  0.00    +0.000 S 
BRANCH  17  18
ATOM     18  C   UNL     1       0.848  11.436  20.175  0.00  0.00    +0.000 A 
ATOM     19  N   UNL     1       1.274  11.370  18.894  0.00  0.00    +0.000 NA
ATOM     20  C   UNL     1       2.103  12.325  18.465  0.00  0.00    +0.000 A 
ATOM     21  C   UNL     1       2.533  13.347  19.293  0.00  0.00    +0.000 A 
ATOM     22  C   UNL     1       3.440  14.424  19.161  0.00  0.00    +0.000 A 
ATOM     23  C   UNL     1       3.538  15.169  20.303  0.00  0.00    +0.000 A 
ATOM     24  S   UNL     1       2.566  14.624  21.553  0.00  0.00    +0.000 S 
ATOM     25  C   UNL     1       1.987  13.327  20.573  0.00  0.00    +0.000 A 
ATOM     26  N   UNL     1       1.130  12.406  21.059  0.00  0.00    +0.000 NA
ATOM     27  C   UNL     1       4.485  16.305  20.194  0.00  0.00    +0.000 C 
ATOM     28  C   UNL     1       5.251  15.927  18.885  0.00  0.00    +0.000 C 
ATOM     29  C   UNL     1       4.333  14.944  18.095  0.00  0.00    +0.000 C 
BRANCH  20  30
ATOM     30  O   UNL     1       2.550  12.183  17.185  0.00  0.00    +0.000 OA
ATOM     31  H   UNL     1       3.497  12.366  17.287  0.00  0.00    +0.000 HD
ENDBRANCH  20  30
ENDBRANCH  17  18
ENDBRANCH   1  17
TORSDOF 9
ENDMDL
MODEL 9
REMARK VINA RESULT:      -7.2      4.085      5.375
REMARK  Name = 
REMARK  9 active torsions:
REMARK  status: ('A' for Active; 'I' for Inactive)
REMARK    1  A    between atoms: C_2  and  C_8
REMARK    2  A    between atoms: N_3  and  C_4
REMARK    3  A    between atoms: C_4  and  C_5
REMARK    4  A    between atoms: C_5  and  C_6
REMARK    5  A    between atoms: C_6  and  O_7
REMARK    6  A    between atoms: C_11  and  C_12
REMARK    7  A    between atoms: C_12  and  S_13
REMARK    8  A    between atoms: S_13  and  C_14
REMARK    9  A    between atoms: C_16  and  O_17
REMARK                            x       y       z     vdW  Elec       q    Type
REMARK                         _______ _______ _______ _____ _____    ______ ____
ROOT
ATOM      1  C   UNL     1       1.205   9.296  19.861  0.00  0.00    +0.000 C 
ENDROOT
BRANCH   1   5
ATOM      2  C   UNL     1       3.463   5.916  18.308  0.00  0.00    +0.000 A 
ATOM      3  C   UNL     1       3.373   7.093  17.564  0.00  0.00    +0.000 A 
ATOM      4  C   UNL     1       2.641   8.184  18.066  0.00  0.00    +0.000 A 
ATOM      5  C   UNL     1       1.986   8.110  19.306  0.00  0.00    +0.000 A 
ATOM      6  C   UNL     1       2.108   6.923  20.051  0.00  0.00    +0.000 A 
ATOM      7  C   UNL     1       2.836   5.836  19.559  0.00  0.00    +0.000 A 
BRANCH   2   9
ATOM      8  O   UNL     1       4.322   3.723  18.446  0.00  0.00    +0.000 OA
ATOM      9  C   UNL     1       4.255   4.761  17.800  0.00  0.00    +0.000 C 
ATOM     10  N   UNL     1       4.918   4.963  16.602  0.00  0.00    +0.000 N 
ATOM     11  H   UNL     1       5.019   5.913  16.263  0.00  0.00    +0.000 HD
BRANCH  10  12
ATOM     12  C   UNL     1       5.800   3.959  16.040  0.00  0.00    +0.000 C 
BRANCH  12  13
ATOM     13  C   UNL     1       5.893   4.058  14.522  0.00  0.00    +0.000 C 
BRANCH  13  14
ATOM     14  C   UNL     1       7.064   4.916  14.062  0.00  0.00    +0.000 C 
BRANCH  14  15
ATOM     15  O   UNL     1       7.591   5.642  15.169  0.00  0.00    +0.000 OA
ATOM     16  H   UNL     1       6.893   6.233  15.488  0.00  0.00    +0.000 HD
ENDBRANCH  14  15
ENDBRANCH  13  14
ENDBRANCH  12  13
ENDBRANCH  10  12
ENDBRANCH   2   9
ENDBRANCH   1   5
BRANCH   1  17
ATOM     17  S   UNL     1       0.960  10.611  18.617  0.00  0.00    +0.000 S 
BRANCH  17  18
ATOM     18  C   UNL     1      -0.820  10.808  18.618  0.00  0.00    +0.000 A 
ATOM     19  N   UNL     1      -1.446  10.210  17.580  0.00  0.00    +0.000 NA
ATOM     20  C   UNL     1      -2.747  10.458  17.413  0.00  0.00    +0.000 A 
ATOM     21  C   UNL     1      -3.445  11.305  18.257  0.00  0.00    +0.000 A 
ATOM     22  C   UNL     1      -4.764  11.811  18.294  0.00  0.00    +0.000 A 
ATOM     23  C   UNL     1      -4.971  12.656  19.350  0.00  0.00    +0.000 A 
ATOM     24  S   UNL     1      -3.624  12.869  20.321  0.00  0.00    +0.000 S 
ATOM     25  C   UNL     1      -2.697  11.820  19.312  0.00  0.00    +0.000 A 
ATOM     26  N   UNL     1      -1.388  11.592  19.547  0.00  0.00    +0.000 NA
ATOM     27  C   UNL     1      -6.347  13.205  19.413  0.00  0.00    +0.000 C 
ATOM     28  C   UNL     1      -6.877  12.841  17.988  0.00  0.00    +0.000 C 
ATOM     29  C   UNL     1      -5.986  11.673  17.463  0.00  0.00    +0.000 C 
BRANCH  20  30
ATOM     30  O   UNL     1      -3.320   9.879  16.321  0.00  0.00    +0.000 OA
ATOM     31  H   UNL     1      -4.261   9.904  16.558  0.00  0.00    +0.000 HD
ENDBRANCH  20  30
ENDBRANCH  17  18
ENDBRANCH   1  17
TORSDOF 9
ENDMDL
