MODEL 1
REMARK VINA RESULT:      -6.5      0.000      0.000
REMARK  Name = 
REMARK  8 active torsions:
REMARK  status: ('A' for Active; 'I' for Inactive)
REMARK    1  A    between atoms: C_1  and  N_2
REMARK    2  A    between atoms: N_2  and  C_3
REMARK    3  A    between atoms: N_2  and  C_4
REMARK    4  A    between atoms: C_4  and  C_5
REMARK    5  A    between atoms: C_5  and  N_6
REMARK    6  A    between atoms: C_8  and  C_9
REMARK    7  A    between atoms: C_9  and  C_10
REMARK    8  A    between atoms: C_10  and  O_12
REMARK                            x       y       z     vdW  Elec       q    Type
REMARK                         _______ _______ _______ _____ _____    ______ ____
ROOT
ATOM      1  N   UNL     1       4.250   4.244  18.674  0.00  0.00    +0.000 N 
ATOM      2  C   UNL     1       4.983   4.163  17.517  0.00  0.00    +0.000 A 
ATOM      3  C   UNL     1       4.815   5.333  16.805  0.00  0.00    +0.000 A 
ATOM      4  C   UNL     1       3.938   6.162  17.576  0.00  0.00    +0.000 A 
ATOM      5  C   UNL     1       3.397   7.452  17.380  0.00  0.00    +0.000 A 
ATOM      6  C   UNL     1       2.561   8.008  18.353  0.00  0.00    +0.000 A 
ATOM      7  C   UNL     1       2.257   7.301  19.511  0.00  0.00    +0.000 A 
ATOM      8  C   UNL     1       2.776   6.021  19.728  0.00  0.00    +0.000 A 
ATOM      9  C   UNL     1       3.617   5.467  18.747  0.00  0.00    +0.000 A 
ENDROOT
BRANCH   1  10
ATOM     10  C   UNL     1       4.146   3.154  19.638  0.00  0.00    +0.000 C 
BRANCH  10  11
ATOM     11  C   UNL     1       3.061   2.136  19.253  0.00  0.00    +0.000 C 
BRANCH  11  13
ATOM     12  C   UNL     1       2.187   2.751  21.405  0.00  0.00    +0.000 C 
ATOM     13  N   UNL     1       1.848   2.182  20.095  0.00  0.00    +0.000 NA
ATOM     14  C   UNL     1       0.773   2.964  19.484  0.00  0.00    +0.000 C 
ENDBRANCH  11  13
ENDBRANCH  10  11
ENDBRANCH   1  10
BRANCH   3  15
ATOM     15  C   UNL     1       5.423   5.639  15.472  0.00  0.00    +0.000 C 
BRANCH  15  16
ATOM     16  C   UNL     1       6.506   4.679  15.023  0.00  0.00    +0.000 C 
ATOM     17  O   UNL     1       6.306   3.806  14.190  0.00  0.00    +0.000 OA
BRANCH  16  18
ATOM     18  O   UNL     1       7.742   4.892  15.527  0.00  0.00    +0.000 OA
ATOM     19  H   UNL     1       8.254   4.075  15.693  0.00  0.00    +0.000 HD
ENDBRANCH  16  18
ENDBRANCH  15  16
ENDBRANCH   3  15
TORSDOF 6
ENDMDL
MODEL 2
REMARK VINA RESULT:      -6.4      3.323      5.466
REMARK  Name = 
REMARK  8 active torsions:
REMARK  status: ('A' for Active; 'I' for Inactive)
REMARK    1  A    between atoms: C_1  and  N_2
REMARK    2  A    between atoms: N_2  and  C_3
REMARK    3  A    between atoms: N_2  and  C_4
REMARK    4  A    between atoms: C_4  and  C_5
REMARK    5  A    between atoms: C_5  and  N_6
REMARK    6  A    between atoms: C_8  and  C_9
REMARK    7  A    between atoms: C_9  and  C_10
REMARK    8  A    between atoms: C_10  and  O_12
REMARK                            x       y       z     vdW  Elec       q    Type
REMARK                         _______ _______ _______ _____ _____    ______ ____
ROOT
ATOM      1  N   UNL     1       4.273   4.721  18.405  0.00  0.00    +0.000 N 
ATOM      2  C   UNL     1       3.857   3.999  19.494  0.00  0.00    +0.000 A 
ATOM      3  C   UNL     1       2.953   4.757  20.208  0.00  0.00    +0.000 A 
ATOM      4  C   UNL     1       2.815   6.000  19.510  0.00  0.00    +0.000 A 
ATOM      5  C   UNL     1       2.053   7.167  19.741  0.00  0.00    +0.000 A 
ATOM      6  C   UNL     1       2.127   8.233  18.840  0.00  0.00    +0.000 A 
ATOM      7  C   UNL     1       2.946   8.154  17.719  0.00  0.00    +0.000 A 
ATOM      8  C   UNL     1       3.713   7.014  17.469  0.00  0.00    +0.000 A 
ATOM      9  C   UNL     1       3.635   5.943  18.377  0.00  0.00    +0.000 A 
ENDROOT
BRANCH   1  10
ATOM     10  C   UNL     1       5.282   4.249  17.463  0.00  0.00    +0.000 C 
BRANCH  10  11
ATOM     11  C   UNL     1       6.708   4.612  17.903  0.00  0.00    +0.000 C 
BRANCH  11  13
ATOM     12  C   UNL     1       6.871   5.330  15.616  0.00  0.00    +0.000 C 
ATOM     13  N   UNL     1       7.439   5.484  16.960  0.00  0.00    +0.000 NA
ATOM     14  C   UNL     1       7.394   6.893  17.353  0.00  0.00    +0.000 C 
ENDBRANCH  11  13
ENDBRANCH  10  11
ENDBRANCH   1  10
BRANCH   3  15
ATOM     15  C   UNL     1       2.280   4.345  21.481  0.00  0.00    +0.000 C 
BRANCH  15  16
ATOM     16  C   UNL     1       1.413   3.108  21.379  0.00  0.00    +0.000 C 
ATOM     17  O   UNL     1       1.475   2.193  22.189  0.00  0.00    +0.000 OA
BRANCH  16  18
ATOM     18  O   UNL     1       0.493   3.101  20.388  0.00  0.00    +0.000 OA
ATOM     19  H   UNL     1       0.829   2.772  19.530  0.00  0.00    +0.000 HD
ENDBRANCH  16  18
ENDBRANCH  15  16
ENDBRANCH   3  15
TORSDOF 6
ENDMDL
MODEL 3
REMARK VINA RESULT:      -6.4      2.132      4.379
REMARK  Name = 
REMARK  8 active torsions:
REMARK  status: ('A' for Active; 'I' for Inactive)
REMARK    1  A    between atoms: C_1  and  N_2
REMARK    2  A    between atoms: N_2  and  C_3
REMARK    3  A    between atoms: N_2  and  C_4
REMARK    4  A    between atoms: C_4  and  C_5
REMARK    5  A    between atoms: C_5  and  N_6
REMARK    6  A    between atoms: C_8  and  C_9
REMARK    7  A    between atoms: C_9  and  C_10
REMARK    8  A    between atoms: C_10  and  O_12
REMARK                            x       y       z     vdW  Elec       q    Type
REMARK                         _______ _______ _______ _____ _____    ______ ____
ROOT
ATOM      1  N   UNL     1       2.904   6.033  18.490  0.00  0.00    +0.000 N 
ATOM      2  C   UNL     1       3.955   6.043  17.609  0.00  0.00    +0.000 A 
ATOM      3  C   UNL     1       4.161   4.758  17.152  0.00  0.00    +0.000 A 
ATOM      4  C   UNL     1       3.179   3.932  17.787  0.00  0.00    +0.000 A 
ATOM      5  C   UNL     1       2.885   2.552  17.732  0.00  0.00    +0.000 A 
ATOM      6  C   UNL     1       1.822   2.038  18.481  0.00  0.00    +0.000 A 
ATOM      7  C   UNL     1       1.053   2.875  19.281  0.00  0.00    +0.000 A 
ATOM      8  C   UNL     1       1.325   4.244  19.358  0.00  0.00    +0.000 A 
ATOM      9  C   UNL     1       2.394   4.756  18.602  0.00  0.00    +0.000 A 
ENDROOT
BRANCH   1  10
ATOM     10  C   UNL     1       2.451   7.214  19.217  0.00  0.00    +0.000 C 
BRANCH  10  11
ATOM     11  C   UNL     1       2.101   8.379  18.278  0.00  0.00    +0.000 C 
BRANCH  11  13
ATOM     12  C   UNL     1       0.252   9.904  18.126  0.00  0.00    +0.000 C 
ATOM     13  N   UNL     1       1.414   9.511  18.932  0.00  0.00    +0.000 NA
ATOM     14  C   UNL     1       0.983   9.192  20.292  0.00  0.00    +0.000 C 
ENDBRANCH  11  13
ENDBRANCH  10  11
ENDBRANCH   1  10
BRANCH   3  15
ATOM     15  C   UNL     1       5.230   4.333  16.194  0.00  0.00    +0.000 C 
BRANCH  15  16
ATOM     16  C   UNL     1       6.645   4.424  16.727  0.00  0.00    +0.000 C 
ATOM     17  O   UNL     1       7.576   4.844  16.054  0.00  0.00    +0.000 OA
BRANCH  16  18
ATOM     18  O   UNL     1       6.818   4.097  18.028  0.00  0.00    +0.000 OA
ATOM     19  H   UNL     1       6.780   4.857  18.642  0.00  0.00    +0.000 HD
ENDBRANCH  16  18
ENDBRANCH  15  16
ENDBRANCH   3  15
TORSDOF 6
ENDMDL
MODEL 4
REMARK VINA RESULT:      -6.3      1.980      4.346
REMARK  Name = 
REMARK  8 active torsions:
REMARK  status: ('A' for Active; 'I' for Inactive)
REMARK    1  A    between atoms: C_1  and  N_2
REMARK    2  A    between atoms: N_2  and  C_3
REMARK    3  A    between atoms: N_2  and  C_4
REMARK    4  A    between atoms: C_4  and  C_5
REMARK    5  A    between atoms: C_5  and  N_6
REMARK    6  A    between atoms: C_8  and  C_9
REMARK    7  A    between atoms: C_9  and  C_10
REMARK    8  A    between atoms: C_10  and  O_12
REMARK                            x       y       z     vdW  Elec       q    Type
REMARK                         _______ _______ _______ _____ _____    ______ ____
ROOT
ATOM      1  N   UNL     1       3.270   5.923  18.114  0.00  0.00    +0.000 N 
ATOM      2  C   UNL     1       4.367   5.859  17.293  0.00  0.00    +0.000 A 
ATOM      3  C   UNL     1       4.553   4.549  16.906  0.00  0.00    +0.000 A 
ATOM      4  C   UNL     1       3.511   3.784  17.523  0.00  0.00    +0.000 A 
ATOM      5  C   UNL     1       3.175   2.413  17.513  0.00  0.00    +0.000 A 
ATOM      6  C   UNL     1       2.056   1.968  18.224  0.00  0.00    +0.000 A 
ATOM      7  C   UNL     1       1.274   2.865  18.942  0.00  0.00    +0.000 A 
ATOM      8  C   UNL     1       1.587   4.227  18.973  0.00  0.00    +0.000 A 
ATOM      9  C   UNL     1       2.712   4.669  18.255  0.00  0.00    +0.000 A 
ENDROOT
BRANCH   1  10
ATOM     10  C   UNL     1       2.819   7.150  18.762  0.00  0.00    +0.000 C 
BRANCH  10  11
ATOM     11  C   UNL     1       2.553   8.278  17.753  0.00  0.00    +0.000 C 
BRANCH  11  13
ATOM     12  C   UNL     1       1.248   9.063  19.611  0.00  0.00    +0.000 C 
ATOM     13  N   UNL     1       1.547   9.269  18.189  0.00  0.00    +0.000 NA
ATOM     14  C   UNL     1       1.992  10.646  17.976  0.00  0.00    +0.000 C 
ENDBRANCH  11  13
ENDBRANCH  10  11
ENDBRANCH   1  10
BRANCH   3  15
ATOM     15  C   UNL     1       5.658   4.046  16.030  0.00  0.00    +0.000 C 
BRANCH  15  16
ATOM     16  C   UNL     1       7.000   4.717  16.237  0.00  0.00    +0.000 C 
ATOM     17  O   UNL     1       7.740   4.432  17.168  0.00  0.00    +0.000 OA
BRANCH  16  18
ATOM     18  O   UNL     1       7.386   5.593  15.282  0.00  0.00    +0.000 OA
ATOM     19  H   UNL     1       6.656   5.922  14.720  0.00  0.00    +0.000 HD
ENDBRANCH  16  18
ENDBRANCH  15  16
ENDBRANCH   3  15
TORSDOF 6
ENDMDL
MODEL 5
REMARK VINA RESULT:      -6.3      1.086      1.392
REMARK  Name = 
REMARK  8 active torsions:
REMARK  status: ('A' for Active; 'I' for Inactive)
REMARK    1  A    between atoms: C_1  and  N_2
REMARK    2  A    between atoms: N_2  and  C_3
REMARK    3  A    between atoms: N_2  and  C_4
REMARK    4  A    between atoms: C_4  and  C_5
REMARK    5  A    between atoms: C_5  and  N_6
REMARK    6  A    between atoms: C_8  and  C_9
REMARK    7  A    between atoms: C_9  and  C_10
REMARK    8  A    between atoms: C_10  and  O_12
REMARK                            x       y       z     vdW  Elec       q    Type
REMARK                         _______ _______ _______ _____ _____    ______ ____
ROOT
ATOM      1  N   UNL     1       3.750   3.540  17.583  0.00  0.00    +0.000 N 
ATOM      2  C   UNL     1       5.005   3.326  17.073  0.00  0.00    +0.000 A 
ATOM      3  C   UNL     1       5.588   4.548  16.808  0.00  0.00    +0.000 A 
ATOM      4  C   UNL     1       4.636   5.549  17.182  0.00  0.00    +0.000 A 
ATOM      5  C   UNL     1       4.644   6.961  17.147  0.00  0.00    +0.000 A 
ATOM      6  C   UNL     1       3.534   7.673  17.612  0.00  0.00    +0.000 A 
ATOM      7  C   UNL     1       2.422   7.002  18.107  0.00  0.00    +0.000 A 
ATOM      8  C   UNL     1       2.386   5.605  18.150  0.00  0.00    +0.000 A 
ATOM      9  C   UNL     1       3.505   4.894  17.682  0.00  0.00    +0.000 A 
ENDROOT
BRANCH   1  10
ATOM     10  C   UNL     1       2.822   2.465  17.917  0.00  0.00    +0.000 C 
BRANCH  10  11
ATOM     11  C   UNL     1       2.855   2.108  19.411  0.00  0.00    +0.000 C 
BRANCH  11  13
ATOM     12  C   UNL     1       1.714   3.169  21.240  0.00  0.00    +0.000 C 
ATOM     13  N   UNL     1       1.560   2.249  20.107  0.00  0.00    +0.000 NA
ATOM     14  C   UNL     1       0.501   2.734  19.222  0.00  0.00    +0.000 C 
ENDBRANCH  11  13
ENDBRANCH  10  11
ENDBRANCH   1  10
BRANCH   3  15
ATOM     15  C   UNL     1       6.948   4.756  16.217  0.00  0.00    +0.000 C 
BRANCH  15  16
ATOM     16  C   UNL     1       7.011   4.680  14.706  0.00  0.00    +0.000 C 
ATOM     17  O   UNL     1       7.645   5.481  14.033  0.00  0.00    +0.000 OA
BRANCH  16  18
ATOM     18  O   UNL     1       6.399   3.619  14.132  0.00  0.00    +0.000 OA
ATOM     19  H   UNL     1       5.445   3.749  13.964  0.00  0.00    +0.000 HD
ENDBRANCH  16  18
ENDBRANCH  15  16
ENDBRANCH   3  15
TORSDOF 6
ENDMDL
MODEL 6
REMARK VINA RESULT:      -6.3      1.376      1.668
REMARK  Name = 
REMARK  8 active torsions:
REMARK  status: ('A' for Active; 'I' for Inactive)
REMARK    1  A    between atoms: C_1  and  N_2
REMARK    2  A    between atoms: N_2  and  C_3
REMARK    3  A    between atoms: N_2  and  C_4
REMARK    4  A    between atoms: C_4  and  C_5
REMARK    5  A    between atoms: C_5  and  N_6
REMARK    6  A    between atoms: C_8  and  C_9
REMARK    7  A    between atoms: C_9  and  C_10
REMARK    8  A    between atoms: C_10  and  O_12
REMARK                            x       y       z     vdW  Elec       q    Type
REMARK                         _______ _______ _______ _____ _____    ______ ____
ROOT
ATOM      1  N   UNL     1       2.811   3.787  17.652  0.00  0.00    +0.000 N 
ATOM      2  C   UNL     1       3.851   3.191  16.985  0.00  0.00    +0.000 A 
ATOM      3  C   UNL     1       4.736   4.169  16.583  0.00  0.00    +0.000 A 
ATOM      4  C   UNL     1       4.203   5.419  17.036  0.00  0.00    +0.000 A 
ATOM      5  C   UNL     1       4.639   6.758  16.931  0.00  0.00    +0.000 A 
ATOM      6  C   UNL     1       3.882   7.782  17.509  0.00  0.00    +0.000 A 
ATOM      7  C   UNL     1       2.703   7.491  18.185  0.00  0.00    +0.000 A 
ATOM      8  C   UNL     1       2.245   6.176  18.299  0.00  0.00    +0.000 A 
ATOM      9  C   UNL     1       3.011   5.150  17.718  0.00  0.00    +0.000 A 
ENDROOT
BRANCH   1  10
ATOM     10  C   UNL     1       1.656   3.055  18.163  0.00  0.00    +0.000 C 
BRANCH  10  11
ATOM     11  C   UNL     1       2.057   1.944  19.145  0.00  0.00    +0.000 C 
BRANCH  11  13
ATOM     12  C   UNL     1       3.432   2.710  20.961  0.00  0.00    +0.000 C 
ATOM     13  N   UNL     1       2.064   2.352  20.565  0.00  0.00    +0.000 NA
ATOM     14  C   UNL     1       1.167   3.477  20.827  0.00  0.00    +0.000 C 
ENDBRANCH  11  13
ENDBRANCH  10  11
ENDBRANCH   1  10
BRANCH   3  15
ATOM     15  C   UNL     1       5.992   3.942  15.802  0.00  0.00    +0.000 C 
BRANCH  15  16
ATOM     16  C   UNL     1       7.209   4.690  16.306  0.00  0.00    +0.000 C 
ATOM     17  O   UNL     1       7.508   5.806  15.903  0.00  0.00    +0.000 OA
BRANCH  16  18
ATOM     18  O   UNL     1       7.909   4.097  17.299  0.00  0.00    +0.000 OA
ATOM     19  H   UNL     1       8.069   4.670  18.075  0.00  0.00    +0.000 HD
ENDBRANCH  16  18
ENDBRANCH  15  16
ENDBRANCH   3  15
TORSDOF 6
ENDMDL
MODEL 7
REMARK VINA RESULT:      -6.3      1.189      1.613
REMARK  Name = 
REMARK  8 active torsions:
REMARK  status: ('A' for Active; 'I' for Inactive)
REMARK    1  A    between atoms: C_1  and  N_2
REMARK    2  A    between atoms: N_2  and  C_3
REMARK    3  A    between atoms: N_2  and  C_4
REMARK    4  A    between atoms: C_4  and  C_5
REMARK    5  A    between atoms: C_5  and  N_6
REMARK    6  A    between atoms: C_8  and  C_9
REMARK    7  A    between atoms: C_9  and  C_10
REMARK    8  A    between atoms: C_10  and  O_12
REMARK                            x       y       z     vdW  Elec       q    Type
REMARK                         _______ _______ _______ _____ _____    ______ ____
ROOT
ATOM      1  N   UNL     1       3.285   3.578  17.549  0.00  0.00    +0.000 N 
ATOM      2  C   UNL     1       4.512   3.205  17.063  0.00  0.00    +0.000 A 
ATOM      3  C   UNL     1       5.262   4.340  16.838  0.00  0.00    +0.000 A 
ATOM      4  C   UNL     1       4.445   5.455  17.211  0.00  0.00    +0.000 A 
ATOM      5  C   UNL     1       4.644   6.853  17.206  0.00  0.00    +0.000 A 
ATOM      6  C   UNL     1       3.629   7.701  17.660  0.00  0.00    +0.000 A 
ATOM      7  C   UNL     1       2.425   7.178  18.115  0.00  0.00    +0.000 A 
ATOM      8  C   UNL     1       2.199   5.799  18.127  0.00  0.00    +0.000 A 
ATOM      9  C   UNL     1       3.223   4.950  17.671  0.00  0.00    +0.000 A 
ENDROOT
BRANCH   1  10
ATOM     10  C   UNL     1       2.212   2.633  17.838  0.00  0.00    +0.000 C 
BRANCH  10  11
ATOM     11  C   UNL     1       2.382   1.959  19.209  0.00  0.00    +0.000 C 
BRANCH  11  13
ATOM     12  C   UNL     1       2.302   2.946  21.398  0.00  0.00    +0.000 C 
ATOM     13  N   UNL     1       3.130   2.760  20.200  0.00  0.00    +0.000 NA
ATOM     14  C   UNL     1       4.401   2.141  20.572  0.00  0.00    +0.000 C 
ENDBRANCH  11  13
ENDBRANCH  10  11
ENDBRANCH   1  10
BRANCH   3  15
ATOM     15  C   UNL     1       6.652   4.373  16.283  0.00  0.00    +0.000 C 
BRANCH  15  16
ATOM     16  C   UNL     1       6.743   4.571  14.784  0.00  0.00    +0.000 C 
ATOM     17  O   UNL     1       6.000   3.998  13.999  0.00  0.00    +0.000 OA
BRANCH  16  18
ATOM     18  O   UNL     1       7.638   5.489  14.354  0.00  0.00    +0.000 OA
ATOM     19  H   UNL     1       7.636   6.322  14.867  0.00  0.00    +0.000 HD
ENDBRANCH  16  18
ENDBRANCH  15  16
ENDBRANCH   3  15
TORSDOF 6
ENDMDL
MODEL 8
REMARK VINA RESULT:      -6.2      0.743      1.081
REMARK  Name = 
REMARK  8 active torsions:
REMARK  status: ('A' for Active; 'I' for Inactive)
REMARK    1  A    between atoms: C_1  and  N_2
REMARK    2  A    between atoms: N_2  and  C_3
REMARK    3  A    between atoms: N_2  and  C_4
REMARK    4  A    between atoms: C_4  and  C_5
REMARK    5  A    between atoms: C_5  and  N_6
REMARK    6  A    between atoms: C_8  and  C_9
REMARK    7  A    between atoms: C_9  and  C_10
REMARK    8  A    between atoms: C_10  and  O_12
REMARK                            x       y       z     vdW  Elec       q    Type
REMARK                         _______ _______ _______ _____ _____    ______ ____
ROOT
ATOM      1  N   UNL     1       4.353   4.184  18.641  0.00  0.00    +0.000 N 
ATOM      2  C   UNL     1       5.058   4.002  17.478  0.00  0.00    +0.000 A 
ATOM      3  C   UNL     1       4.901   5.120  16.686  0.00  0.00    +0.000 A 
ATOM      4  C   UNL     1       4.061   6.025  17.412  0.00  0.00    +0.000 A 
ATOM      5  C   UNL     1       3.545   7.310  17.133  0.00  0.00    +0.000 A 
ATOM      6  C   UNL     1       2.744   7.956  18.080  0.00  0.00    +0.000 A 
ATOM      7  C   UNL     1       2.450   7.343  19.292  0.00  0.00    +0.000 A 
ATOM      8  C   UNL     1       2.943   6.070  19.592  0.00  0.00    +0.000 A 
ATOM      9  C   UNL     1       3.750   5.425  18.637  0.00  0.00    +0.000 A 
ENDROOT
BRANCH   1  10
ATOM     10  C   UNL     1       4.245   3.171  19.685  0.00  0.00    +0.000 C 
BRANCH  10  11
ATOM     11  C   UNL     1       3.038   2.245  19.476  0.00  0.00    +0.000 C 
BRANCH  11  13
ATOM     12  C   UNL     1       0.706   2.271  18.898  0.00  0.00    +0.000 C 
ATOM     13  N   UNL     1       1.729   2.865  19.767  0.00  0.00    +0.000 NA
ATOM     14  C   UNL     1       1.335   2.706  21.167  0.00  0.00    +0.000 C 
ENDBRANCH  11  13
ENDBRANCH  10  11
ENDBRANCH   1  10
BRANCH   3  15
ATOM     15  C   UNL     1       5.487   5.313  15.322  0.00  0.00    +0.000 C 
BRANCH  15  16
ATOM     16  C   UNL     1       6.978   5.578  15.293  0.00  0.00    +0.000 C 
ATOM     17  O   UNL     1       7.670   5.330  14.315  0.00  0.00    +0.000 OA
BRANCH  16  18
ATOM     18  O   UNL     1       7.499   6.189  16.381  0.00  0.00    +0.000 OA
ATOM     19  H   UNL     1       8.305   5.762  16.734  0.00  0.00    +0.000 HD
ENDBRANCH  16  18
ENDBRANCH  15  16
ENDBRANCH   3  15
TORSDOF 6
ENDMDL
MODEL 9
REMARK VINA RESULT:      -6.2      2.808      4.889
REMARK  Name = 
REMARK  8 active torsions:
REMARK  status: ('A' for Active; 'I' for Inactive)
REMARK    1  A    between atoms: C_1  and  N_2
REMARK    2  A    between atoms: N_2  and  C_3
REMARK    3  A    between atoms: N_2  and  C_4
REMARK    4  A    between atoms: C_4  and  C_5
REMARK    5  A    between atoms: C_5  and  N_6
REMARK    6  A    between atoms: C_8  and  C_9
REMARK    7  A    between atoms: C_9  and  C_10
REMARK    8  A    between atoms: C_10  and  O_12
REMARK                            x       y       z     vdW  Elec       q    Type
REMARK                         _______ _______ _______ _____ _____    ______ ____
ROOT
ATOM      1  N   UNL     1       4.337   5.234  16.955  0.00  0.00    +0.000 N 
ATOM      2  C   UNL     1       4.309   3.897  17.263  0.00  0.00    +0.000 A 
ATOM      3  C   UNL     1       3.508   3.715  18.371  0.00  0.00    +0.000 A 
ATOM      4  C   UNL     1       3.025   5.010  18.748  0.00  0.00    +0.000 A 
ATOM      5  C   UNL     1       2.184   5.471  19.784  0.00  0.00    +0.000 A 
ATOM      6  C   UNL     1       1.880   6.832  19.877  0.00  0.00    +0.000 A 
ATOM      7  C   UNL     1       2.401   7.736  18.958  0.00  0.00    +0.000 A 
ATOM      8  C   UNL     1       3.239   7.307  17.925  0.00  0.00    +0.000 A 
ATOM      9  C   UNL     1       3.541   5.937  17.835  0.00  0.00    +0.000 A 
ENDROOT
BRANCH   1  10
ATOM     10  C   UNL     1       5.140   5.795  15.874  0.00  0.00    +0.000 C 
BRANCH  10  11
ATOM     11  C   UNL     1       6.509   5.109  15.748  0.00  0.00    +0.000 C 
BRANCH  11  13
ATOM     12  C   UNL     1       7.164   6.924  17.179  0.00  0.00    +0.000 C 
ATOM     13  N   UNL     1       7.523   5.579  16.714  0.00  0.00    +0.000 NA
ATOM     14  C   UNL     1       7.659   4.683  17.862  0.00  0.00    +0.000 C 
ENDBRANCH  11  13
ENDBRANCH  10  11
ENDBRANCH   1  10
BRANCH   3  15
ATOM     15  C   UNL     1       3.235   2.407  19.046  0.00  0.00    +0.000 C 
BRANCH  15  16
ATOM     16  C   UNL     1       3.987   2.181  20.341  0.00  0.00    +0.000 C 
ATOM     17  O   UNL     1       3.467   2.331  21.438  0.00  0.00    +0.000 OA
BRANCH  16  18
ATOM     18  O   UNL     1       5.252   1.715  20.227  0.00  0.00    +0.000 OA
ATOM     19  H   UNL     1       5.558   1.608  19.305  0.00  0.00    +0.000 HD
ENDBRANCH  16  18
ENDBRANCH  15  16
ENDBRANCH   3  15
TORSDOF 6
ENDMDL
