MODEL 1
REMARK VINA RESULT:      -6.4      0.000      0.000
REMARK  Name = 
REMARK  6 active torsions:
REMARK  status: ('A' for Active; 'I' for Inactive)
REMARK    1  A    between atoms: C_1  and  C_2
REMARK    2  A    between atoms: C_2  and  N_3
REMARK    3  A    between atoms: N_8  and  C_9
REMARK    4  A    between atoms: C_9  and  C_10
REMARK    5  A    between atoms: C_10  and  C_11
REMARK    6  A    between atoms: C_11  and  O_12
REMARK                            x       y       z     vdW  Elec       q    Type
REMARK                         _______ _______ _______ _____ _____    ______ ____
ROOT
ATOM      1  N   UNL     1       2.019   3.001  19.134  0.00  0.00    +0.000 N 
ATOM      2  C   UNL     1       2.656   1.837  18.804  0.00  0.00    +0.000 A 
ATOM      3  N   UNL     1       3.657   2.038  17.979  0.00  0.00    +0.000 NA
ATOM      4  C   UNL     1       3.688   3.408  17.780  0.00  0.00    +0.000 A 
ATOM      5  C   UNL     1       4.550   4.238  17.045  0.00  0.00    +0.000 A 
ATOM      6  N   UNL     1       5.610   3.712  16.316  0.00  0.00    +0.000 N 
ATOM      7  N   UNL     1       4.334   5.581  17.084  0.00  0.00    +0.000 NA
ATOM      8  C   UNL     1       3.299   6.029  17.831  0.00  0.00    +0.000 A 
ATOM      9 CL   UNL     1       3.101   7.731  17.844  0.00  0.00    +0.000 Cl
ATOM     10  N   UNL     1       2.418   5.338  18.576  0.00  0.00    +0.000 NA
ATOM     11  C   UNL     1       2.673   4.024  18.508  0.00  0.00    +0.000 A 
ATOM     12  H   UNL     1       5.345   2.987  15.657  0.00  0.00    +0.000 HD
ENDROOT
BRANCH   1  14
ATOM     13  C   UNL     1       1.181   2.930  21.449  0.00  0.00    +0.000 C 
ATOM     14  C   UNL     1       0.849   3.117  19.979  0.00  0.00    +0.000 C 
ENDBRANCH   1  14
BRANCH   6  15
ATOM     15  C   UNL     1       6.788   4.516  16.066  0.00  0.00    +0.000 C 
BRANCH  15  16
ATOM     16  C   UNL     1       7.607   4.716  17.337  0.00  0.00    +0.000 C 
BRANCH  16  17
ATOM     17  C   UNL     1       7.585   6.175  17.774  0.00  0.00    +0.000 C 
BRANCH  17  18
ATOM     18  O   UNL     1       6.916   6.976  16.813  0.00  0.00    +0.000 OA
ATOM     19  H   UNL     1       6.186   7.448  17.291  0.00  0.00    +0.000 HD
ENDBRANCH  17  18
ENDBRANCH  16  17
ENDBRANCH  15  16
ENDBRANCH   6  15
TORSDOF 5
ENDMDL
MODEL 2
REMARK VINA RESULT:      -6.4      1.578      1.970
REMARK  Name = 
REMARK  6 active torsions:
REMARK  status: ('A' for Active; 'I' for Inactive)
REMARK    1  A    between atoms: C_1  and  C_2
REMARK    2  A    between atoms: C_2  and  N_3
REMARK    3  A    between atoms: N_8  and  C_9
REMARK    4  A    between atoms: C_9  and  C_10
REMARK    5  A    between atoms: C_10  and  C_11
REMARK    6  A    between atoms: C_11  and  O_12
REMARK                            x       y       z     vdW  Elec       q    Type
REMARK                         _______ _______ _______ _____ _____    ______ ____
ROOT
ATOM      1  N   UNL     1       2.177   3.128  19.339  0.00  0.00    +0.000 N 
ATOM      2  C   UNL     1       2.818   1.960  19.032  0.00  0.00    +0.000 A 
ATOM      3  N   UNL     1       3.777   2.139  18.153  0.00  0.00    +0.000 NA
ATOM      4  C   UNL     1       3.776   3.498  17.893  0.00  0.00    +0.000 A 
ATOM      5  C   UNL     1       4.589   4.308  17.083  0.00  0.00    +0.000 A 
ATOM      6  N   UNL     1       5.625   3.766  16.331  0.00  0.00    +0.000 N 
ATOM      7  N   UNL     1       4.354   5.647  17.073  0.00  0.00    +0.000 NA
ATOM      8  C   UNL     1       3.346   6.113  17.846  0.00  0.00    +0.000 A 
ATOM      9 CL   UNL     1       3.120   7.811  17.793  0.00  0.00    +0.000 Cl
ATOM     10  N   UNL     1       2.511   5.443  18.661  0.00  0.00    +0.000 NA
ATOM     11  C   UNL     1       2.785   4.132  18.639  0.00  0.00    +0.000 A 
ATOM     12  H   UNL     1       5.342   3.007  15.716  0.00  0.00    +0.000 HD
ENDROOT
BRANCH   1  14
ATOM     13  C   UNL     1       1.335   2.718  21.617  0.00  0.00    +0.000 C 
ATOM     14  C   UNL     1       1.045   3.265  20.230  0.00  0.00    +0.000 C 
ENDBRANCH   1  14
BRANCH   6  15
ATOM     15  C   UNL     1       6.776   4.574  15.991  0.00  0.00    +0.000 C 
BRANCH  15  16
ATOM     16  C   UNL     1       7.082   4.510  14.499  0.00  0.00    +0.000 C 
BRANCH  16  17
ATOM     17  C   UNL     1       5.935   3.862  13.735  0.00  0.00    +0.000 C 
BRANCH  17  18
ATOM     18  O   UNL     1       6.428   3.098  12.646  0.00  0.00    +0.000 OA
ATOM     19  H   UNL     1       7.123   3.649  12.201  0.00  0.00    +0.000 HD
ENDBRANCH  17  18
ENDBRANCH  16  17
ENDBRANCH  15  16
ENDBRANCH   6  15
TORSDOF 5
ENDMDL
MODEL 3
REMARK VINA RESULT:      -6.2      2.441      5.441
REMARK  Name = 
REMARK  6 active torsions:
REMARK  status: ('A' for Active; 'I' for Inactive)
REMARK    1  A    between atoms: C_1  and  C_2
REMARK    2  A    between atoms: C_2  and  N_3
REMARK    3  A    between atoms: N_8  and  C_9
REMARK    4  A    between atoms: C_9  and  C_10
REMARK    5  A    between atoms: C_10  and  C_11
REMARK    6  A    between atoms: C_11  and  O_12
REMARK                            x       y       z     vdW  Elec       q    Type
REMARK                         _______ _______ _______ _____ _____    ______ ____
ROOT
ATOM      1  N   UNL     1       6.624   6.220  17.674  0.00  0.00    +0.000 N 
ATOM      2  C   UNL     1       7.060   4.990  18.082  0.00  0.00    +0.000 A 
ATOM      3  N   UNL     1       6.092   4.266  18.594  0.00  0.00    +0.000 NA
ATOM      4  C   UNL     1       4.961   5.058  18.492  0.00  0.00    +0.000 A 
ATOM      5  C   UNL     1       3.614   4.831  18.820  0.00  0.00    +0.000 A 
ATOM      6  N   UNL     1       3.201   3.627  19.377  0.00  0.00    +0.000 N 
ATOM      7  N   UNL     1       2.715   5.816  18.554  0.00  0.00    +0.000 NA
ATOM      8  C   UNL     1       3.180   6.955  17.990  0.00  0.00    +0.000 A 
ATOM      9 CL   UNL     1       1.986   8.143  17.670  0.00  0.00    +0.000 Cl
ATOM     10  N   UNL     1       4.434   7.282  17.628  0.00  0.00    +0.000 NA
ATOM     11  C   UNL     1       5.279   6.281  17.906  0.00  0.00    +0.000 A 
ATOM     12  H   UNL     1       3.707   3.358  20.216  0.00  0.00    +0.000 HD
ENDROOT
BRANCH   1  14
ATOM     13  C   UNL     1       8.123   8.104  18.192  0.00  0.00    +0.000 C 
ATOM     14  C   UNL     1       7.449   7.270  17.117  0.00  0.00    +0.000 C 
ENDBRANCH   1  14
BRANCH   6  15
ATOM     15  C   UNL     1       1.845   3.162  19.176  0.00  0.00    +0.000 C 
BRANCH  15  16
ATOM     16  C   UNL     1       0.966   3.466  20.385  0.00  0.00    +0.000 C 
BRANCH  16  17
ATOM     17  C   UNL     1       1.359   2.601  21.575  0.00  0.00    +0.000 C 
BRANCH  17  18
ATOM     18  O   UNL     1       2.427   3.195  22.295  0.00  0.00    +0.000 OA
ATOM     19  H   UNL     1       2.147   4.121  22.512  0.00  0.00    +0.000 HD
ENDBRANCH  17  18
ENDBRANCH  16  17
ENDBRANCH  15  16
ENDBRANCH   6  15
TORSDOF 5
ENDMDL
MODEL 4
REMARK VINA RESULT:      -6.2      1.650      1.730
REMARK  Name = 
REMARK  6 active torsions:
REMARK  status: ('A' for Active; 'I' for Inactive)
REMARK    1  A    between atoms: C_1  and  C_2
REMARK    2  A    between atoms: C_2  and  N_3
REMARK    3  A    between atoms: N_8  and  C_9
REMARK    4  A    between atoms: C_9  and  C_10
REMARK    5  A    between atoms: C_10  and  C_11
REMARK    6  A    between atoms: C_11  and  O_12
REMARK                            x       y       z     vdW  Elec       q    Type
REMARK                         _______ _______ _______ _____ _____    ______ ____
ROOT
ATOM      1  N   UNL     1       2.486   3.562  19.181  0.00  0.00    +0.000 N 
ATOM      2  C   UNL     1       3.587   2.758  19.076  0.00  0.00    +0.000 A 
ATOM      3  N   UNL     1       4.595   3.371  18.501  0.00  0.00    +0.000 NA
ATOM      4  C   UNL     1       4.134   4.650  18.240  0.00  0.00    +0.000 A 
ATOM      5  C   UNL     1       4.750   5.784  17.686  0.00  0.00    +0.000 A 
ATOM      6  N   UNL     1       6.073   5.749  17.259  0.00  0.00    +0.000 N 
ATOM      7  N   UNL     1       4.025   6.931  17.599  0.00  0.00    +0.000 NA
ATOM      8  C   UNL     1       2.751   6.904  18.054  0.00  0.00    +0.000 A 
ATOM      9 CL   UNL     1       1.906   8.389  17.927  0.00  0.00    +0.000 Cl
ATOM     10  N   UNL     1       2.060   5.890  18.606  0.00  0.00    +0.000 NA
ATOM     11  C   UNL     1       2.817   4.786  18.673  0.00  0.00    +0.000 A 
ATOM     12  H   UNL     1       6.279   5.007  16.596  0.00  0.00    +0.000 HD
ENDROOT
BRANCH   1  14
ATOM     13  C   UNL     1       1.247   2.942  21.217  0.00  0.00    +0.000 C 
ATOM     14  C   UNL     1       1.199   3.173  19.717  0.00  0.00    +0.000 C 
ENDBRANCH   1  14
BRANCH   6  15
ATOM     15  C   UNL     1       6.865   6.960  17.251  0.00  0.00    +0.000 C 
BRANCH  15  16
ATOM     16  C   UNL     1       7.900   6.957  18.371  0.00  0.00    +0.000 C 
BRANCH  16  17
ATOM     17  C   UNL     1       8.038   5.568  18.981  0.00  0.00    +0.000 C 
BRANCH  17  18
ATOM     18  O   UNL     1       7.230   5.448  20.140  0.00  0.00    +0.000 OA
ATOM     19  H   UNL     1       7.774   4.975  20.822  0.00  0.00    +0.000 HD
ENDBRANCH  17  18
ENDBRANCH  16  17
ENDBRANCH  15  16
ENDBRANCH   6  15
TORSDOF 5
ENDMDL
MODEL 5
REMARK VINA RESULT:      -6.1      1.402      1.630
REMARK  Name = 
REMARK  6 active torsions:
REMARK  status: ('A' for Active; 'I' for Inactive)
REMARK    1  A    between atoms: C_1  and  C_2
REMARK    2  A    between atoms: C_2  and  N_3
REMARK    3  A    between atoms: N_8  and  C_9
REMARK    4  A    between atoms: C_9  and  C_10
REMARK    5  A    between atoms: C_10  and  C_11
REMARK    6  A    between atoms: C_11  and  O_12
REMARK                            x       y       z     vdW  Elec       q    Type
REMARK                         _______ _______ _______ _____ _____    ______ ____
ROOT
ATOM      1  N   UNL     1       2.250   2.903  19.366  0.00  0.00    +0.000 N 
ATOM      2  C   UNL     1       3.046   2.170  18.530  0.00  0.00    +0.000 A 
ATOM      3  N   UNL     1       3.782   2.930  17.754  0.00  0.00    +0.000 NA
ATOM      4  C   UNL     1       3.467   4.228  18.120  0.00  0.00    +0.000 A 
ATOM      5  C   UNL     1       3.951   5.475  17.695  0.00  0.00    +0.000 A 
ATOM      6  N   UNL     1       4.925   5.573  16.708  0.00  0.00    +0.000 N 
ATOM      7  N   UNL     1       3.457   6.593  18.293  0.00  0.00    +0.000 NA
ATOM      8  C   UNL     1       2.528   6.427  19.263  0.00  0.00    +0.000 A 
ATOM      9 CL   UNL     1       1.966   7.878  19.980  0.00  0.00    +0.000 Cl
ATOM     10  N   UNL     1       1.997   5.293  19.756  0.00  0.00    +0.000 NA
ATOM     11  C   UNL     1       2.517   4.224  19.138  0.00  0.00    +0.000 A 
ATOM     12  H   UNL     1       4.694   5.090  15.844  0.00  0.00    +0.000 HD
ENDROOT
BRANCH   1  14
ATOM     13  C   UNL     1       1.726   2.556  21.747  0.00  0.00    +0.000 C 
ATOM     14  C   UNL     1       1.287   2.369  20.305  0.00  0.00    +0.000 C 
ENDBRANCH   1  14
BRANCH   6  15
ATOM     15  C   UNL     1       5.816   6.712  16.678  0.00  0.00    +0.000 C 
BRANCH  15  16
ATOM     16  C   UNL     1       7.233   6.323  17.085  0.00  0.00    +0.000 C 
BRANCH  16  17
ATOM     17  C   UNL     1       7.432   4.815  16.989  0.00  0.00    +0.000 C 
BRANCH  17  18
ATOM     18  O   UNL     1       7.184   4.197  18.241  0.00  0.00    +0.000 OA
ATOM     19  H   UNL     1       8.018   3.725  18.499  0.00  0.00    +0.000 HD
ENDBRANCH  17  18
ENDBRANCH  16  17
ENDBRANCH  15  16
ENDBRANCH   6  15
TORSDOF 5
ENDMDL
MODEL 6
REMARK VINA RESULT:      -6.0      2.436      5.320
REMARK  Name = 
REMARK  6 active torsions:
REMARK  status: ('A' for Active; 'I' for Inactive)
REMARK    1  A    between atoms: C_1  and  C_2
REMARK    2  A    between atoms: C_2  and  N_3
REMARK    3  A    between atoms: N_8  and  C_9
REMARK    4  A    between atoms: C_9  and  C_10
REMARK    5  A    between atoms: C_10  and  C_11
REMARK    6  A    between atoms: C_11  and  O_12
REMARK                            x       y       z     vdW  Elec       q    Type
REMARK                         _______ _______ _______ _____ _____    ______ ____
ROOT
ATOM      1  N   UNL     1       6.115   5.424  17.418  0.00  0.00    +0.000 N 
ATOM      2  C   UNL     1       6.379   4.292  18.138  0.00  0.00    +0.000 A 
ATOM      3  N   UNL     1       5.454   4.050  19.037  0.00  0.00    +0.000 NA
ATOM      4  C   UNL     1       4.526   5.065  18.878  0.00  0.00    +0.000 A 
ATOM      5  C   UNL     1       3.298   5.331  19.505  0.00  0.00    +0.000 A 
ATOM      6  N   UNL     1       2.807   4.505  20.510  0.00  0.00    +0.000 N 
ATOM      7  N   UNL     1       2.584   6.410  19.086  0.00  0.00    +0.000 NA
ATOM      8  C   UNL     1       3.108   7.160  18.088  0.00  0.00    +0.000 A 
ATOM      9 CL   UNL     1       2.145   8.492  17.604  0.00  0.00    +0.000 Cl
ATOM     10  N   UNL     1       4.260   7.001  17.412  0.00  0.00    +0.000 NA
ATOM     11  C   UNL     1       4.923   5.926  17.858  0.00  0.00    +0.000 A 
ATOM     12  H   UNL     1       3.452   4.357  21.281  0.00  0.00    +0.000 HD
ENDROOT
BRANCH   1  14
ATOM     13  C   UNL     1       7.037   5.113  15.156  0.00  0.00    +0.000 C 
ATOM     14  C   UNL     1       6.961   5.993  16.391  0.00  0.00    +0.000 C 
ENDBRANCH   1  14
BRANCH   6  15
ATOM     15  C   UNL     1       1.381   4.405  20.735  0.00  0.00    +0.000 C 
BRANCH  15  16
ATOM     16  C   UNL     1       0.882   2.979  20.526  0.00  0.00    +0.000 C 
BRANCH  16  17
ATOM     17  C   UNL     1       0.927   2.597  19.052  0.00  0.00    +0.000 C 
BRANCH  17  18
ATOM     18  O   UNL     1       2.051   1.774  18.783  0.00  0.00    +0.000 OA
ATOM     19  H   UNL     1       2.442   1.527  19.660  0.00  0.00    +0.000 HD
ENDBRANCH  17  18
ENDBRANCH  16  17
ENDBRANCH  15  16
ENDBRANCH   6  15
TORSDOF 5
ENDMDL
MODEL 7
REMARK VINA RESULT:      -6.0      1.338      1.460
REMARK  Name = 
REMARK  6 active torsions:
REMARK  status: ('A' for Active; 'I' for Inactive)
REMARK    1  A    between atoms: C_1  and  C_2
REMARK    2  A    between atoms: C_2  and  N_3
REMARK    3  A    between atoms: N_8  and  C_9
REMARK    4  A    between atoms: C_9  and  C_10
REMARK    5  A    between atoms: C_10  and  C_11
REMARK    6  A    between atoms: C_11  and  O_12
REMARK                            x       y       z     vdW  Elec       q    Type
REMARK                         _______ _______ _______ _____ _____    ______ ____
ROOT
ATOM      1  N   UNL     1       2.980   3.591  20.389  0.00  0.00    +0.000 N 
ATOM      2  C   UNL     1       3.642   2.493  19.916  0.00  0.00    +0.000 A 
ATOM      3  N   UNL     1       4.144   2.695  18.720  0.00  0.00    +0.000 NA
ATOM      4  C   UNL     1       3.812   4.002  18.408  0.00  0.00    +0.000 A 
ATOM      5  C   UNL     1       4.103   4.813  17.299  0.00  0.00    +0.000 A 
ATOM      6  N   UNL     1       4.845   4.331  16.227  0.00  0.00    +0.000 N 
ATOM      7  N   UNL     1       3.657   6.098  17.310  0.00  0.00    +0.000 NA
ATOM      8  C   UNL     1       2.960   6.512  18.394  0.00  0.00    +0.000 A 
ATOM      9 CL   UNL     1       2.447   8.146  18.343  0.00  0.00    +0.000 Cl
ATOM     10  N   UNL     1       2.629   5.835  19.509  0.00  0.00    +0.000 NA
ATOM     11  C   UNL     1       3.093   4.579  19.451  0.00  0.00    +0.000 A 
ATOM     12  H   UNL     1       4.481   3.475  15.819  0.00  0.00    +0.000 HD
ENDROOT
BRANCH   1  14
ATOM     13  C   UNL     1       1.263   2.557  21.819  0.00  0.00    +0.000 C 
ATOM     14  C   UNL     1       2.272   3.678  21.648  0.00  0.00    +0.000 C 
ENDBRANCH   1  14
BRANCH   6  15
ATOM     15  C   UNL     1       5.622   5.242  15.415  0.00  0.00    +0.000 C 
BRANCH  15  16
ATOM     16  C   UNL     1       7.116   5.085  15.675  0.00  0.00    +0.000 C 
BRANCH  16  17
ATOM     17  C   UNL     1       7.433   5.263  17.155  0.00  0.00    +0.000 C 
BRANCH  17  18
ATOM     18  O   UNL     1       7.656   4.007  17.773  0.00  0.00    +0.000 OA
ATOM     19  H   UNL     1       6.771   3.675  18.076  0.00  0.00    +0.000 HD
ENDBRANCH  17  18
ENDBRANCH  16  17
ENDBRANCH  15  16
ENDBRANCH   6  15
TORSDOF 5
ENDMDL
MODEL 8
REMARK VINA RESULT:      -5.9      2.387      2.845
REMARK  Name = 
REMARK  6 active torsions:
REMARK  status: ('A' for Active; 'I' for Inactive)
REMARK    1  A    between atoms: C_1  and  C_2
REMARK    2  A    between atoms: C_2  and  N_3
REMARK    3  A    between atoms: N_8  and  C_9
REMARK    4  A    between atoms: C_9  and  C_10
REMARK    5  A    between atoms: C_10  and  C_11
REMARK    6  A    between atoms: C_11  and  O_12
REMARK                            x       y       z     vdW  Elec       q    Type
REMARK                         _______ _______ _______ _____ _____    ______ ____
ROOT
ATOM      1  N   UNL     1       3.020   3.722  19.196  0.00  0.00    +0.000 N 
ATOM      2  C   UNL     1       2.326   3.258  18.114  0.00  0.00    +0.000 A 
ATOM      3  N   UNL     1       2.980   3.441  16.991  0.00  0.00    +0.000 NA
ATOM      4  C   UNL     1       4.174   4.033  17.364  0.00  0.00    +0.000 A 
ATOM      5  C   UNL     1       5.306   4.426  16.631  0.00  0.00    +0.000 A 
ATOM      6  N   UNL     1       5.364   4.261  15.252  0.00  0.00    +0.000 N 
ATOM      7  N   UNL     1       6.359   4.953  17.311  0.00  0.00    +0.000 NA
ATOM      8  C   UNL     1       6.247   5.064  18.654  0.00  0.00    +0.000 A 
ATOM      9 CL   UNL     1       7.619   5.721  19.442  0.00  0.00    +0.000 Cl
ATOM     10  N   UNL     1       5.226   4.719  19.460  0.00  0.00    +0.000 NA
ATOM     11  C   UNL     1       4.217   4.203  18.746  0.00  0.00    +0.000 A 
ATOM     12  H   UNL     1       4.587   4.677  14.748  0.00  0.00    +0.000 HD
ENDROOT
BRANCH   1  14
ATOM     13  C   UNL     1       1.047   3.586  20.663  0.00  0.00    +0.000 C 
ATOM     14  C   UNL     1       2.556   3.718  20.567  0.00  0.00    +0.000 C 
ENDBRANCH   1  14
BRANCH   6  15
ATOM     15  C   UNL     1       6.643   4.099  14.594  0.00  0.00    +0.000 C 
BRANCH  15  16
ATOM     16  C   UNL     1       6.482   3.983  13.082  0.00  0.00    +0.000 C 
BRANCH  16  17
ATOM     17  C   UNL     1       7.475   4.884  12.358  0.00  0.00    +0.000 C 
BRANCH  17  18
ATOM     18  O   UNL     1       8.169   5.707  13.282  0.00  0.00    +0.000 OA
ATOM     19  H   UNL     1       9.014   5.239  13.505  0.00  0.00    +0.000 HD
ENDBRANCH  17  18
ENDBRANCH  16  17
ENDBRANCH  15  16
ENDBRANCH   6  15
TORSDOF 5
ENDMDL
MODEL 9
REMARK VINA RESULT:      -5.9      2.866      3.389
REMARK  Name = 
REMARK  6 active torsions:
REMARK  status: ('A' for Active; 'I' for Inactive)
REMARK    1  A    between atoms: C_1  and  C_2
REMARK    2  A    between atoms: C_2  and  N_3
REMARK    3  A    between atoms: N_8  and  C_9
REMARK    4  A    between atoms: C_9  and  C_10
REMARK    5  A    between atoms: C_10  and  C_11
REMARK    6  A    between atoms: C_11  and  O_12
REMARK                            x       y       z     vdW  Elec       q    Type
REMARK                         _______ _______ _______ _____ _____    ______ ____
ROOT
ATOM      1  N   UNL     1       3.466   3.442  18.991  0.00  0.00    +0.000 N 
ATOM      2  C   UNL     1       2.767   3.044  17.885  0.00  0.00    +0.000 A 
ATOM      3  N   UNL     1       3.369   3.384  16.770  0.00  0.00    +0.000 NA
ATOM      4  C   UNL     1       4.535   4.015  17.170  0.00  0.00    +0.000 A 
ATOM      5  C   UNL     1       5.613   4.557  16.451  0.00  0.00    +0.000 A 
ATOM      6  N   UNL     1       5.635   4.537  15.061  0.00  0.00    +0.000 N 
ATOM      7  N   UNL     1       6.653   5.083  17.153  0.00  0.00    +0.000 NA
ATOM      8  C   UNL     1       6.578   5.050  18.503  0.00  0.00    +0.000 A 
ATOM      9 CL   UNL     1       7.931   5.715  19.318  0.00  0.00    +0.000 Cl
ATOM     10  N   UNL     1       5.610   4.556  19.297  0.00  0.00    +0.000 NA
ATOM     11  C   UNL     1       4.613   4.047  18.560  0.00  0.00    +0.000 A 
ATOM     12  H   UNL     1       4.815   4.948  14.624  0.00  0.00    +0.000 HD
ENDROOT
BRANCH   1  14
ATOM     13  C   UNL     1       2.100   4.361  20.821  0.00  0.00    +0.000 C 
ATOM     14  C   UNL     1       3.050   3.268  20.366  0.00  0.00    +0.000 C 
ENDBRANCH   1  14
BRANCH   6  15
ATOM     15  C   UNL     1       6.899   4.530  14.356  0.00  0.00    +0.000 C 
BRANCH  15  16
ATOM     16  C   UNL     1       6.708   4.235  12.872  0.00  0.00    +0.000 C 
BRANCH  16  17
ATOM     17  C   UNL     1       5.525   3.300  12.651  0.00  0.00    +0.000 C 
BRANCH  17  18
ATOM     18  O   UNL     1       5.906   2.192  11.852  0.00  0.00    +0.000 OA
ATOM     19  H   UNL     1       5.626   1.376  12.341  0.00  0.00    +0.000 HD
ENDBRANCH  17  18
ENDBRANCH  16  17
ENDBRANCH  15  16
ENDBRANCH   6  15
TORSDOF 5
ENDMDL
