MODEL 1
REMARK VINA RESULT:      -7.6      0.000      0.000
REMARK  Name = 
REMARK  6 active torsions:
REMARK  status: ('A' for Active; 'I' for Inactive)
REMARK    1  A    between atoms: C_1  and  O_2
REMARK    2  A    between atoms: O_2  and  C_3
REMARK    3  A    between atoms: C_5  and  N_6
REMARK    4  A    between atoms: N_8  and  C_9
REMARK    5  A    between atoms: N_15  and  C_16
REMARK    6  A    between atoms: C_20  and  C_21
REMARK                            x       y       z     vdW  Elec       q    Type
REMARK                         _______ _______ _______ _____ _____    ______ ____
ROOT
ATOM      1  N   UNL     1       2.232   6.241  20.365  0.00  0.00    +0.000 N 
ATOM      2  C   UNL     1       3.190   5.503  19.704  0.00  0.00    +0.000 C 
ATOM      3  N   UNL     1       3.972   6.053  18.822  0.00  0.00    +0.000 NA
ATOM      4  N   UNL     1       3.275   4.204  20.154  0.00  0.00    +0.000 N 
ATOM      5  H   UNL     1       1.804   5.822  21.179  0.00  0.00    +0.000 HD
ATOM      6  H   UNL     1       4.028   3.677  19.736  0.00  0.00    +0.000 HD
ENDROOT
BRANCH   1   9
ATOM      7  C   UNL     1       1.007   9.764  20.896  0.00  0.00    +0.000 A 
ATOM      8  C   UNL     1       1.377   8.430  21.150  0.00  0.00    +0.000 A 
ATOM      9  C   UNL     1       1.838   7.575  20.141  0.00  0.00    +0.000 A 
ATOM     10  C   UNL     1       1.857   8.070  18.837  0.00  0.00    +0.000 A 
ATOM     11  C   UNL     1       1.475   9.386  18.562  0.00  0.00    +0.000 A 
ATOM     12  C   UNL     1       1.068  10.265  19.582  0.00  0.00    +0.000 A 
BRANCH  12  13
ATOM     13  C   UNL     1       0.788  11.660  19.243  0.00  0.00    +0.000 A 
ATOM     14  C   UNL     1       1.474  12.858  19.244  0.00  0.00    +0.000 A 
ATOM     15  N   UNL     1       0.689  13.868  18.736  0.00  0.00    +0.000 NA
ATOM     16  C   UNL     1      -0.436  13.258  18.450  0.00  0.00    +0.000 A 
ATOM     17  O   UNL     1      -0.461  11.930  18.731  0.00  0.00    +0.000 OA
ENDBRANCH  12  13
BRANCH   7  19
ATOM     18  C   UNL     1      -0.402  10.041  22.797  0.00  0.00    +0.000 C 
ATOM     19  O   UNL     1       0.548  10.598  21.889  0.00  0.00    +0.000 OA
ENDBRANCH   7  19
ENDBRANCH   1   9
BRANCH   3  20
ATOM     20  C   UNL     1       4.988   5.442  18.087  0.00  0.00    +0.000 A 
ATOM     21  C   UNL     1       4.811   4.913  16.806  0.00  0.00    +0.000 A 
ATOM     22  C   UNL     1       5.898   4.403  16.090  0.00  0.00    +0.000 A 
ATOM     23  C   UNL     1       7.183   4.468  16.626  0.00  0.00    +0.000 A 
ATOM     24  C   UNL     1       7.383   5.039  17.880  0.00  0.00    +0.000 A 
ATOM     25  C   UNL     1       6.288   5.517  18.604  0.00  0.00    +0.000 A 
ENDBRANCH   3  20
BRANCH   4  26
ATOM     26  C   UNL     1       2.036   3.451  20.265  0.00  0.00    +0.000 C 
ATOM     27  N   UNL     1       1.048   2.849  20.320  0.00  0.00    +0.000 NA
ENDBRANCH   4  26
TORSDOF 5
ENDMDL
MODEL 2
REMARK VINA RESULT:      -7.5      0.468      1.064
REMARK  Name = 
REMARK  6 active torsions:
REMARK  status: ('A' for Active; 'I' for Inactive)
REMARK    1  A    between atoms: C_1  and  O_2
REMARK    2  A    between atoms: O_2  and  C_3
REMARK    3  A    between atoms: C_5  and  N_6
REMARK    4  A    between atoms: N_8  and  C_9
REMARK    5  A    between atoms: N_15  and  C_16
REMARK    6  A    between atoms: C_20  and  C_21
REMARK                            x       y       z     vdW  Elec       q    Type
REMARK                         _______ _______ _______ _____ _____    ______ ____
ROOT
ATOM      1  N   UNL     1       2.536   6.149  20.109  0.00  0.00    +0.000 N 
ATOM      2  C   UNL     1       3.516   5.484  19.405  0.00  0.00    +0.000 C 
ATOM      3  N   UNL     1       4.200   6.085  18.476  0.00  0.00    +0.000 NA
ATOM      4  N   UNL     1       3.734   4.204  19.863  0.00  0.00    +0.000 N 
ATOM      5  H   UNL     1       2.188   5.708  20.949  0.00  0.00    +0.000 HD
ATOM      6  H   UNL     1       4.506   3.736  19.410  0.00  0.00    +0.000 HD
ENDROOT
BRANCH   1   9
ATOM      7  C   UNL     1       0.908   9.505  20.643  0.00  0.00    +0.000 A 
ATOM      8  C   UNL     1       1.399   8.209  20.888  0.00  0.00    +0.000 A 
ATOM      9  C   UNL     1       2.018   7.442  19.893  0.00  0.00    +0.000 A 
ATOM     10  C   UNL     1       2.077   7.981  18.608  0.00  0.00    +0.000 A 
ATOM     11  C   UNL     1       1.577   9.259  18.341  0.00  0.00    +0.000 A 
ATOM     12  C   UNL     1       1.008  10.055  19.352  0.00  0.00    +0.000 A 
BRANCH  12  13
ATOM     13  C   UNL     1       0.606  11.425  19.032  0.00  0.00    +0.000 A 
ATOM     14  C   UNL     1       1.202  12.669  18.986  0.00  0.00    +0.000 A 
ATOM     15  N   UNL     1       0.314  13.617  18.531  0.00  0.00    +0.000 NA
ATOM     16  C   UNL     1      -0.780  12.926  18.319  0.00  0.00    +0.000 A 
ATOM     17  O   UNL     1      -0.690  11.601  18.602  0.00  0.00    +0.000 OA
ENDBRANCH  12  13
BRANCH   7  19
ATOM     18  C   UNL     1      -0.373   9.523  22.652  0.00  0.00    +0.000 C 
ATOM     19  O   UNL     1       0.294  10.252  21.622  0.00  0.00    +0.000 OA
ENDBRANCH   7  19
ENDBRANCH   1   9
BRANCH   3  20
ATOM     20  C   UNL     1       5.224   5.550  17.693  0.00  0.00    +0.000 A 
ATOM     21  C   UNL     1       6.516   5.303  18.166  0.00  0.00    +0.000 A 
ATOM     22  C   UNL     1       7.463   4.675  17.351  0.00  0.00    +0.000 A 
ATOM     23  C   UNL     1       7.111   4.238  16.076  0.00  0.00    +0.000 A 
ATOM     24  C   UNL     1       5.814   4.431  15.610  0.00  0.00    +0.000 A 
ATOM     25  C   UNL     1       4.881   5.088  16.417  0.00  0.00    +0.000 A 
ENDBRANCH   3  20
BRANCH   4  26
ATOM     26  C   UNL     1       2.571   3.352  20.049  0.00  0.00    +0.000 C 
ATOM     27  N   UNL     1       1.637   2.675  20.165  0.00  0.00    +0.000 NA
ENDBRANCH   4  26
TORSDOF 5
ENDMDL
MODEL 3
REMARK VINA RESULT:      -7.3      3.113      8.436
REMARK  Name = 
REMARK  6 active torsions:
REMARK  status: ('A' for Active; 'I' for Inactive)
REMARK    1  A    between atoms: C_1  and  O_2
REMARK    2  A    between atoms: O_2  and  C_3
REMARK    3  A    between atoms: C_5  and  N_6
REMARK    4  A    between atoms: N_8  and  C_9
REMARK    5  A    between atoms: N_15  and  C_16
REMARK    6  A    between atoms: C_20  and  C_21
REMARK                            x       y       z     vdW  Elec       q    Type
REMARK                         _______ _______ _______ _____ _____    ______ ____
ROOT
ATOM      1  N   UNL     1       1.223  10.317  19.431  0.00  0.00    +0.000 N 
ATOM      2  C   UNL     1       0.146  10.893  18.796  0.00  0.00    +0.000 C 
ATOM      3  N   UNL     1      -0.825  10.166  18.327  0.00  0.00    +0.000 NA
ATOM      4  N   UNL     1       0.180  12.270  18.819  0.00  0.00    +0.000 N 
ATOM      5  H   UNL     1       1.834  10.928  19.957  0.00  0.00    +0.000 HD
ATOM      6  H   UNL     1      -0.645  12.703  18.430  0.00  0.00    +0.000 HD
ENDROOT
BRANCH   1   9
ATOM      7  C   UNL     1       2.469   6.832  18.720  0.00  0.00    +0.000 A 
ATOM      8  C   UNL     1       2.147   8.192  18.551  0.00  0.00    +0.000 A 
ATOM      9  C   UNL     1       1.543   8.950  19.562  0.00  0.00    +0.000 A 
ATOM     10  C   UNL     1       1.198   8.291  20.742  0.00  0.00    +0.000 A 
ATOM     11  C   UNL     1       1.492   6.937  20.921  0.00  0.00    +0.000 A 
ATOM     12  C   UNL     1       2.153   6.187  19.931  0.00  0.00    +0.000 A 
BRANCH  12  13
ATOM     13  C   UNL     1       2.530   4.805  20.224  0.00  0.00    +0.000 A 
ATOM     14  C   UNL     1       3.560   3.946  19.895  0.00  0.00    +0.000 A 
ATOM     15  N   UNL     1       3.416   2.743  20.546  0.00  0.00    +0.000 NA
ATOM     16  C   UNL     1       2.315   2.906  21.239  0.00  0.00    +0.000 A 
ATOM     17  O   UNL     1       1.717   4.117  21.096  0.00  0.00    +0.000 OA
ENDBRANCH  12  13
BRANCH   7  19
ATOM     18  C   UNL     1       4.351   6.510  17.296  0.00  0.00    +0.000 C 
ATOM     19  O   UNL     1       3.056   6.089  17.722  0.00  0.00    +0.000 OA
ENDBRANCH   7  19
ENDBRANCH   1   9
BRANCH   3  20
ATOM     20  C   UNL     1      -1.979  10.604  17.676  0.00  0.00    +0.000 A 
ATOM     21  C   UNL     1      -2.282  10.305  16.345  0.00  0.00    +0.000 A 
ATOM     22  C   UNL     1      -3.503  10.697  15.788  0.00  0.00    +0.000 A 
ATOM     23  C   UNL     1      -4.457  11.342  16.573  0.00  0.00    +0.000 A 
ATOM     24  C   UNL     1      -4.190  11.601  17.914  0.00  0.00    +0.000 A 
ATOM     25  C   UNL     1      -2.955  11.236  18.457  0.00  0.00    +0.000 A 
ENDBRANCH   3  20
BRANCH   4  26
ATOM     26  C   UNL     1       1.417  12.916  18.413  0.00  0.00    +0.000 C 
ATOM     27  N   UNL     1       2.395  13.427  18.058  0.00  0.00    +0.000 NA
ENDBRANCH   4  26
TORSDOF 5
ENDMDL
MODEL 4
REMARK VINA RESULT:      -7.2      3.319      8.249
REMARK  Name = 
REMARK  6 active torsions:
REMARK  status: ('A' for Active; 'I' for Inactive)
REMARK    1  A    between atoms: C_1  and  O_2
REMARK    2  A    between atoms: O_2  and  C_3
REMARK    3  A    between atoms: C_5  and  N_6
REMARK    4  A    between atoms: N_8  and  C_9
REMARK    5  A    between atoms: N_15  and  C_16
REMARK    6  A    between atoms: C_20  and  C_21
REMARK                            x       y       z     vdW  Elec       q    Type
REMARK                         _______ _______ _______ _____ _____    ______ ____
ROOT
ATOM      1  N   UNL     1       0.912  10.130  19.666  0.00  0.00    +0.000 N 
ATOM      2  C   UNL     1      -0.257  10.643  19.151  0.00  0.00    +0.000 C 
ATOM      3  N   UNL     1      -0.959   9.976  18.282  0.00  0.00    +0.000 NA
ATOM      4  N   UNL     1      -0.620  11.840  19.726  0.00  0.00    +0.000 N 
ATOM      5  H   UNL     1       1.299  10.585  20.481  0.00  0.00    +0.000 HD
ATOM      6  H   UNL     1      -1.517  12.186  19.417  0.00  0.00    +0.000 HD
ENDROOT
BRANCH   1   9
ATOM      7  C   UNL     1       2.397   6.666  19.687  0.00  0.00    +0.000 A 
ATOM      8  C   UNL     1       1.714   7.825  20.101  0.00  0.00    +0.000 A 
ATOM      9  C   UNL     1       1.604   8.961  19.289  0.00  0.00    +0.000 A 
ATOM     10  C   UNL     1       2.261   8.938  18.059  0.00  0.00    +0.000 A 
ATOM     11  C   UNL     1       2.961   7.803  17.638  0.00  0.00    +0.000 A 
ATOM     12  C   UNL     1       3.023   6.640  18.427  0.00  0.00    +0.000 A 
BRANCH  12  13
ATOM     13  C   UNL     1       3.676   5.450  17.882  0.00  0.00    +0.000 A 
ATOM     14  C   UNL     1       3.289   4.223  17.383  0.00  0.00    +0.000 A 
ATOM     15  N   UNL     1       4.380   3.514  16.936  0.00  0.00    +0.000 NA
ATOM     16  C   UNL     1       5.383   4.323  17.178  0.00  0.00    +0.000 A 
ATOM     17  O   UNL     1       5.046   5.506  17.752  0.00  0.00    +0.000 OA
ENDBRANCH  12  13
BRANCH   7  19
ATOM     18  C   UNL     1       1.352   4.727  20.594  0.00  0.00    +0.000 C 
ATOM     19  O   UNL     1       2.509   5.556  20.492  0.00  0.00    +0.000 OA
ENDBRANCH   7  19
ENDBRANCH   1   9
BRANCH   3  20
ATOM     20  C   UNL     1      -2.161  10.357  17.685  0.00  0.00    +0.000 A 
ATOM     21  C   UNL     1      -3.153  11.094  18.337  0.00  0.00    +0.000 A 
ATOM     22  C   UNL     1      -4.290  11.524  17.646  0.00  0.00    +0.000 A 
ATOM     23  C   UNL     1      -4.419  11.270  16.282  0.00  0.00    +0.000 A 
ATOM     24  C   UNL     1      -3.414  10.582  15.607  0.00  0.00    +0.000 A 
ATOM     25  C   UNL     1      -2.297  10.126  16.311  0.00  0.00    +0.000 A 
ENDBRANCH   3  20
BRANCH   4  26
ATOM     26  C   UNL     1       0.397  12.876  19.815  0.00  0.00    +0.000 C 
ATOM     27  N   UNL     1       1.224  13.687  19.860  0.00  0.00    +0.000 NA
ENDBRANCH   4  26
TORSDOF 5
ENDMDL
MODEL 5
REMARK VINA RESULT:      -7.2      3.312      8.446
REMARK  Name = 
REMARK  6 active torsions:
REMARK  status: ('A' for Active; 'I' for Inactive)
REMARK    1  A    between atoms: C_1  and  O_2
REMARK    2  A    between atoms: O_2  and  C_3
REMARK    3  A    between atoms: C_5  and  N_6
REMARK    4  A    between atoms: N_8  and  C_9
REMARK    5  A    between atoms: N_15  and  C_16
REMARK    6  A    between atoms: C_20  and  C_21
REMARK                            x       y       z     vdW  Elec       q    Type
REMARK                         _______ _______ _______ _____ _____    ______ ____
ROOT
ATOM      1  N   UNL     1       1.401  10.059  19.262  0.00  0.00    +0.000 N 
ATOM      2  C   UNL     1       0.249  10.601  18.736  0.00  0.00    +0.000 C 
ATOM      3  N   UNL     1      -0.686   9.843  18.243  0.00  0.00    +0.000 NA
ATOM      4  N   UNL     1       0.176  11.967  18.892  0.00  0.00    +0.000 N 
ATOM      5  H   UNL     1       1.988  10.667  19.816  0.00  0.00    +0.000 HD
ATOM      6  H   UNL     1      -0.699  12.366  18.585  0.00  0.00    +0.000 HD
ENDROOT
BRANCH   1   9
ATOM      7  C   UNL     1       2.953   6.796  18.194  0.00  0.00    +0.000 A 
ATOM      8  C   UNL     1       2.520   8.135  18.173  0.00  0.00    +0.000 A 
ATOM      9  C   UNL     1       1.832   8.717  19.244  0.00  0.00    +0.000 A 
ATOM     10  C   UNL     1       1.520   7.899  20.329  0.00  0.00    +0.000 A 
ATOM     11  C   UNL     1       1.924   6.561  20.361  0.00  0.00    +0.000 A 
ATOM     12  C   UNL     1       2.667   5.990  19.311  0.00  0.00    +0.000 A 
BRANCH  12  13
ATOM     13  C   UNL     1       3.155   4.618  19.455  0.00  0.00    +0.000 A 
ATOM     14  C   UNL     1       4.371   3.991  19.637  0.00  0.00    +0.000 A 
ATOM     15  N   UNL     1       4.201   2.632  19.777  0.00  0.00    +0.000 NA
ATOM     16  C   UNL     1       2.903   2.480  19.674  0.00  0.00    +0.000 A 
ATOM     17  O   UNL     1       2.202   3.625  19.473  0.00  0.00    +0.000 OA
ENDBRANCH  12  13
BRANCH   7  19
ATOM     18  C   UNL     1       4.934   6.725  16.871  0.00  0.00    +0.000 C 
ATOM     19  O   UNL     1       3.623   6.226  17.136  0.00  0.00    +0.000 OA
ENDBRANCH   7  19
ENDBRANCH   1   9
BRANCH   3  20
ATOM     20  C   UNL     1      -1.904  10.242  17.691  0.00  0.00    +0.000 A 
ATOM     21  C   UNL     1      -2.810  11.087  18.337  0.00  0.00    +0.000 A 
ATOM     22  C   UNL     1      -3.966  11.524  17.683  0.00  0.00    +0.000 A 
ATOM     23  C   UNL     1      -4.199  11.165  16.357  0.00  0.00    +0.000 A 
ATOM     24  C   UNL     1      -3.279  10.366  15.684  0.00  0.00    +0.000 A 
ATOM     25  C   UNL     1      -2.142   9.906  16.353  0.00  0.00    +0.000 A 
ENDBRANCH   3  20
BRANCH   4  26
ATOM     26  C   UNL     1       1.336  12.749  18.494  0.00  0.00    +0.000 C 
ATOM     27  N   UNL     1       2.255  13.364  18.146  0.00  0.00    +0.000 NA
ENDBRANCH   4  26
TORSDOF 5
ENDMDL
MODEL 6
REMARK VINA RESULT:      -7.2      3.324      8.285
REMARK  Name = 
REMARK  6 active torsions:
REMARK  status: ('A' for Active; 'I' for Inactive)
REMARK    1  A    between atoms: C_1  and  O_2
REMARK    2  A    between atoms: O_2  and  C_3
REMARK    3  A    between atoms: C_5  and  N_6
REMARK    4  A    between atoms: N_8  and  C_9
REMARK    5  A    between atoms: N_15  and  C_16
REMARK    6  A    between atoms: C_20  and  C_21
REMARK                            x       y       z     vdW  Elec       q    Type
REMARK                         _______ _______ _______ _____ _____    ______ ____
ROOT
ATOM      1  N   UNL     1       1.382  10.042  19.149  0.00  0.00    +0.000 N 
ATOM      2  C   UNL     1       0.204  10.594  18.696  0.00  0.00    +0.000 C 
ATOM      3  N   UNL     1      -0.723   9.855  18.161  0.00  0.00    +0.000 NA
ATOM      4  N   UNL     1       0.100  11.940  18.968  0.00  0.00    +0.000 N 
ATOM      5  H   UNL     1       1.967  10.617  19.739  0.00  0.00    +0.000 HD
ATOM      6  H   UNL     1      -0.793  12.339  18.715  0.00  0.00    +0.000 HD
ENDROOT
BRANCH   1   9
ATOM      7  C   UNL     1       2.201   6.428  19.829  0.00  0.00    +0.000 A 
ATOM      8  C   UNL     1       1.742   7.746  20.009  0.00  0.00    +0.000 A 
ATOM      9  C   UNL     1       1.847   8.719  19.008  0.00  0.00    +0.000 A 
ATOM     10  C   UNL     1       2.496   8.360  17.826  0.00  0.00    +0.000 A 
ATOM     11  C   UNL     1       2.976   7.061  17.636  0.00  0.00    +0.000 A 
ATOM     12  C   UNL     1       2.818   6.065  18.617  0.00  0.00    +0.000 A 
BRANCH  12  13
ATOM     13  C   UNL     1       3.244   4.699  18.313  0.00  0.00    +0.000 A 
ATOM     14  C   UNL     1       4.290   3.866  18.655  0.00  0.00    +0.000 A 
ATOM     15  N   UNL     1       4.121   2.619  18.098  0.00  0.00    +0.000 NA
ATOM     16  C   UNL     1       2.991   2.734  17.442  0.00  0.00    +0.000 A 
ATOM     17  O   UNL     1       2.403   3.956  17.515  0.00  0.00    +0.000 OA
ENDBRANCH  12  13
BRANCH   7  19
ATOM     18  C   UNL     1       1.083   4.492  20.652  0.00  0.00    +0.000 C 
ATOM     19  O   UNL     1       2.102   5.477  20.818  0.00  0.00    +0.000 OA
ENDBRANCH   7  19
ENDBRANCH   1   9
BRANCH   3  20
ATOM     20  C   UNL     1      -1.963  10.266  17.672  0.00  0.00    +0.000 A 
ATOM     21  C   UNL     1      -2.861  11.054  18.395  0.00  0.00    +0.000 A 
ATOM     22  C   UNL     1      -4.044  11.509  17.805  0.00  0.00    +0.000 A 
ATOM     23  C   UNL     1      -4.314  11.226  16.467  0.00  0.00    +0.000 A 
ATOM     24  C   UNL     1      -3.404  10.485  15.719  0.00  0.00    +0.000 A 
ATOM     25  C   UNL     1      -2.239  10.006  16.324  0.00  0.00    +0.000 A 
ENDBRANCH   3  20
BRANCH   4  26
ATOM     26  C   UNL     1       1.229  12.784  18.613  0.00  0.00    +0.000 C 
ATOM     27  N   UNL     1       2.118  13.459  18.299  0.00  0.00    +0.000 NA
ENDBRANCH   4  26
TORSDOF 5
ENDMDL
MODEL 7
REMARK VINA RESULT:      -7.1      1.193      1.300
REMARK  Name = 
REMARK  6 active torsions:
REMARK  status: ('A' for Active; 'I' for Inactive)
REMARK    1  A    between atoms: C_1  and  O_2
REMARK    2  A    between atoms: O_2  and  C_3
REMARK    3  A    between atoms: C_5  and  N_6
REMARK    4  A    between atoms: N_8  and  C_9
REMARK    5  A    between atoms: N_15  and  C_16
REMARK    6  A    between atoms: C_20  and  C_21
REMARK                            x       y       z     vdW  Elec       q    Type
REMARK                         _______ _______ _______ _____ _____    ______ ____
ROOT
ATOM      1  N   UNL     1       2.178   6.680  20.520  0.00  0.00    +0.000 N 
ATOM      2  C   UNL     1       2.913   5.902  19.653  0.00  0.00    +0.000 C 
ATOM      3  N   UNL     1       3.370   6.389  18.537  0.00  0.00    +0.000 NA
ATOM      4  N   UNL     1       3.175   4.644  20.147  0.00  0.00    +0.000 N 
ATOM      5  H   UNL     1       2.032   6.322  21.454  0.00  0.00    +0.000 HD
ATOM      6  H   UNL     1       3.782   4.093  19.557  0.00  0.00    +0.000 HD
ENDROOT
BRANCH   1   9
ATOM      7  C   UNL     1       0.688  10.084  21.144  0.00  0.00    +0.000 A 
ATOM      8  C   UNL     1       1.151   8.773  21.361  0.00  0.00    +0.000 A 
ATOM      9  C   UNL     1       1.690   7.988  20.334  0.00  0.00    +0.000 A 
ATOM     10  C   UNL     1       1.692   8.527  19.047  0.00  0.00    +0.000 A 
ATOM     11  C   UNL     1       1.218   9.820  18.808  0.00  0.00    +0.000 A 
ATOM     12  C   UNL     1       0.732  10.632  19.849  0.00  0.00    +0.000 A 
BRANCH  12  13
ATOM     13  C   UNL     1       0.355  12.014  19.551  0.00  0.00    +0.000 A 
ATOM     14  C   UNL     1      -0.763  12.680  19.092  0.00  0.00    +0.000 A 
ATOM     15  N   UNL     1      -0.547  14.039  19.076  0.00  0.00    +0.000 NA
ATOM     16  C   UNL     1       0.682  14.152  19.518  0.00  0.00    +0.000 A 
ATOM     17  O   UNL     1       1.297  12.981  19.821  0.00  0.00    +0.000 OA
ENDBRANCH  12  13
BRANCH   7  19
ATOM     18  C   UNL     1      -0.615  10.154  23.137  0.00  0.00    +0.000 C 
ATOM     19  O   UNL     1       0.153  10.848  22.156  0.00  0.00    +0.000 OA
ENDBRANCH   7  19
ENDBRANCH   1   9
BRANCH   3  20
ATOM     20  C   UNL     1       4.134   5.732  17.572  0.00  0.00    +0.000 A 
ATOM     21  C   UNL     1       3.955   4.393  17.217  0.00  0.00    +0.000 A 
ATOM     22  C   UNL     1       4.692   3.829  16.172  0.00  0.00    +0.000 A 
ATOM     23  C   UNL     1       5.577   4.614  15.434  0.00  0.00    +0.000 A 
ATOM     24  C   UNL     1       5.728   5.963  15.743  0.00  0.00    +0.000 A 
ATOM     25  C   UNL     1       5.013   6.513  16.809  0.00  0.00    +0.000 A 
ENDBRANCH   3  20
BRANCH   4  26
ATOM     26  C   UNL     1       2.054   3.889  20.686  0.00  0.00    +0.000 C 
ATOM     27  N   UNL     1       1.144   3.295  21.088  0.00  0.00    +0.000 NA
ENDBRANCH   4  26
TORSDOF 5
ENDMDL
MODEL 8
REMARK VINA RESULT:      -7.1      3.269      8.264
REMARK  Name = 
REMARK  6 active torsions:
REMARK  status: ('A' for Active; 'I' for Inactive)
REMARK    1  A    between atoms: C_1  and  O_2
REMARK    2  A    between atoms: O_2  and  C_3
REMARK    3  A    between atoms: C_5  and  N_6
REMARK    4  A    between atoms: N_8  and  C_9
REMARK    5  A    between atoms: N_15  and  C_16
REMARK    6  A    between atoms: C_20  and  C_21
REMARK                            x       y       z     vdW  Elec       q    Type
REMARK                         _______ _______ _______ _____ _____    ______ ____
ROOT
ATOM      1  N   UNL     1       1.212  10.166  19.345  0.00  0.00    +0.000 N 
ATOM      2  C   UNL     1       0.078  10.756  18.829  0.00  0.00    +0.000 C 
ATOM      3  N   UNL     1      -0.773  10.072  18.123  0.00  0.00    +0.000 NA
ATOM      4  N   UNL     1      -0.079  12.064  19.231  0.00  0.00    +0.000 N 
ATOM      5  H   UNL     1       1.720  10.678  20.053  0.00  0.00    +0.000 HD
ATOM      6  H   UNL     1      -0.946  12.481  18.928  0.00  0.00    +0.000 HD
ENDROOT
BRANCH   1   9
ATOM      7  C   UNL     1       2.201   6.560  19.805  0.00  0.00    +0.000 A 
ATOM      8  C   UNL     1       1.707   7.850  20.074  0.00  0.00    +0.000 A 
ATOM      9  C   UNL     1       1.713   8.870  19.114  0.00  0.00    +0.000 A 
ATOM     10  C   UNL     1       2.297   8.587  17.879  0.00  0.00    +0.000 A 
ATOM     11  C   UNL     1       2.809   7.317  17.600  0.00  0.00    +0.000 A 
ATOM     12  C   UNL     1       2.751   6.274  18.542  0.00  0.00    +0.000 A 
BRANCH  12  13
ATOM     13  C   UNL     1       3.204   4.940  18.149  0.00  0.00    +0.000 A 
ATOM     14  C   UNL     1       4.328   4.160  18.330  0.00  0.00    +0.000 A 
ATOM     15  N   UNL     1       4.153   2.916  17.767  0.00  0.00    +0.000 NA
ATOM     16  C   UNL     1       2.943   2.981  17.267  0.00  0.00    +0.000 A 
ATOM     17  O   UNL     1       2.306   4.167  17.448  0.00  0.00    +0.000 OA
ENDBRANCH  12  13
BRANCH   7  19
ATOM     18  C   UNL     1       1.171   4.581  20.640  0.00  0.00    +0.000 C 
ATOM     19  O   UNL     1       2.199   5.563  20.754  0.00  0.00    +0.000 OA
ENDBRANCH   7  19
ENDBRANCH   1   9
BRANCH   3  20
ATOM     20  C   UNL     1      -1.962  10.525  17.550  0.00  0.00    +0.000 A 
ATOM     21  C   UNL     1      -2.337  10.265  16.230  0.00  0.00    +0.000 A 
ATOM     22  C   UNL     1      -3.588  10.668  15.753  0.00  0.00    +0.000 A 
ATOM     23  C   UNL     1      -4.498  11.287  16.608  0.00  0.00    +0.000 A 
ATOM     24  C   UNL     1      -4.158  11.507  17.940  0.00  0.00    +0.000 A 
ATOM     25  C   UNL     1      -2.894  11.131  18.402  0.00  0.00    +0.000 A 
ENDBRANCH   3  20
BRANCH   4  26
ATOM     26  C   UNL     1       1.067  12.949  19.092  0.00  0.00    +0.000 C 
ATOM     27  N   UNL     1       1.993  13.640  19.007  0.00  0.00    +0.000 NA
ENDBRANCH   4  26
TORSDOF 5
ENDMDL
MODEL 9
REMARK VINA RESULT:      -7.1      1.410      1.699
REMARK  Name = 
REMARK  6 active torsions:
REMARK  status: ('A' for Active; 'I' for Inactive)
REMARK    1  A    between atoms: C_1  and  O_2
REMARK    2  A    between atoms: O_2  and  C_3
REMARK    3  A    between atoms: C_5  and  N_6
REMARK    4  A    between atoms: N_8  and  C_9
REMARK    5  A    between atoms: N_15  and  C_16
REMARK    6  A    between atoms: C_20  and  C_21
REMARK                            x       y       z     vdW  Elec       q    Type
REMARK                         _______ _______ _______ _____ _____    ______ ____
ROOT
ATOM      1  N   UNL     1       3.424   5.944  19.562  0.00  0.00    +0.000 N 
ATOM      2  C   UNL     1       4.225   5.296  18.648  0.00  0.00    +0.000 C 
ATOM      3  N   UNL     1       4.463   5.813  17.478  0.00  0.00    +0.000 NA
ATOM      4  N   UNL     1       4.796   4.148  19.149  0.00  0.00    +0.000 N 
ATOM      5  H   UNL     1       3.445   5.610  20.516  0.00  0.00    +0.000 HD
ATOM      6  H   UNL     1       5.450   3.709  18.517  0.00  0.00    +0.000 HD
ENDROOT
BRANCH   1   9
ATOM      7  C   UNL     1       1.109   8.849  20.191  0.00  0.00    +0.000 A 
ATOM      8  C   UNL     1       1.856   7.673  20.393  0.00  0.00    +0.000 A 
ATOM      9  C   UNL     1       2.651   7.109  19.388  0.00  0.00    +0.000 A 
ATOM     10  C   UNL     1       2.629   7.717  18.133  0.00  0.00    +0.000 A 
ATOM     11  C   UNL     1       1.878   8.874  17.907  0.00  0.00    +0.000 A 
ATOM     12  C   UNL     1       1.125   9.477  18.932  0.00  0.00    +0.000 A 
BRANCH  12  13
ATOM     13  C   UNL     1       0.451  10.746  18.661  0.00  0.00    +0.000 A 
ATOM     14  C   UNL     1      -0.835  11.171  18.393  0.00  0.00    +0.000 A 
ATOM     15  N   UNL     1      -0.881  12.543  18.290  0.00  0.00    +0.000 NA
ATOM     16  C   UNL     1       0.363  12.902  18.495  0.00  0.00    +0.000 A 
ATOM     17  O   UNL     1       1.229  11.881  18.719  0.00  0.00    +0.000 OA
ENDBRANCH  12  13
BRANCH   7  19
ATOM     18  C   UNL     1       0.815   9.285  22.515  0.00  0.00    +0.000 C 
ATOM     19  O   UNL     1       0.323   9.396  21.180  0.00  0.00    +0.000 OA
ENDBRANCH   7  19
ENDBRANCH   1   9
BRANCH   3  20
ATOM     20  C   UNL     1       5.257   5.285  16.460  0.00  0.00    +0.000 A 
ATOM     21  C   UNL     1       4.749   4.610  15.347  0.00  0.00    +0.000 A 
ATOM     22  C   UNL     1       5.598   4.194  14.318  0.00  0.00    +0.000 A 
ATOM     23  C   UNL     1       6.957   4.498  14.364  0.00  0.00    +0.000 A 
ATOM     24  C   UNL     1       7.470   5.215  15.442  0.00  0.00    +0.000 A 
ATOM     25  C   UNL     1       6.622   5.599  16.483  0.00  0.00    +0.000 A 
ENDBRANCH   3  20
BRANCH   4  26
ATOM     26  C   UNL     1       3.919   3.202  19.820  0.00  0.00    +0.000 C 
ATOM     27  N   UNL     1       3.215   2.432  20.325  0.00  0.00    +0.000 NA
ENDBRANCH   4  26
TORSDOF 5
ENDMDL
