MODEL 1
REMARK VINA RESULT:      -8.8      0.000      0.000
REMARK  Name = 
REMARK  5 active torsions:
REMARK  status: ('A' for Active; 'I' for Inactive)
REMARK    1  A    between atoms: C_2  and  C_5
REMARK    2  A    between atoms: C_9  and  S_10
REMARK    3  A    between atoms: S_10  and  C_11
REMARK    4  A    between atoms: C_13  and  C_14
REMARK    5  A    between atoms: C_22  and  C_23
REMARK                            x       y       z     vdW  Elec       q    Type
REMARK                         _______ _______ _______ _____ _____    ______ ____
ROOT
ATOM      1  C   UNL     1       5.770   5.763  16.735  0.00  0.00    +0.000 A 
ATOM      2  N   UNL     1       5.462   5.292  15.501  0.00  0.00    +0.000 NA
ATOM      3  C   UNL     1       6.357   4.481  14.911  0.00  0.00    +0.000 A 
ATOM      4  N   UNL     1       7.521   4.132  15.492  0.00  0.00    +0.000 NA
ATOM      5  N   UNL     1       7.820   4.601  16.735  0.00  0.00    +0.000 NA
ATOM      6  C   UNL     1       6.950   5.425  17.372  0.00  0.00    +0.000 A 
ENDROOT
BRANCH   3   7
ATOM      7  C   UNL     1       6.035   3.918  13.588  0.00  0.00    +0.000 A 
ATOM      8  C   UNL     1       4.707   3.848  13.125  0.00  0.00    +0.000 A 
ATOM      9  C   UNL     1       4.392   3.268  11.892  0.00  0.00    +0.000 A 
ATOM     10  C   UNL     1       5.400   2.745  11.089  0.00  0.00    +0.000 A 
ATOM     11  C   UNL     1       6.724   2.817  11.510  0.00  0.00    +0.000 A 
ATOM     12  C   UNL     1       7.037   3.401  12.742  0.00  0.00    +0.000 A 
ENDBRANCH   3   7
BRANCH   6  13
ATOM     13  C   UNL     1       7.372   5.891  18.732  0.00  0.00    +0.000 C 
ATOM     14  F   UNL     1       8.437   5.251  19.291  0.00  0.00    +0.000 F 
ATOM     15  F   UNL     1       7.718   7.212  18.739  0.00  0.00    +0.000 F 
ATOM     16  F   UNL     1       6.372   5.775  19.657  0.00  0.00    +0.000 F 
ENDBRANCH   6  13
BRANCH   1  17
ATOM     17  S   UNL     1       4.567   6.923  17.348  0.00  0.00    +0.000 S 
BRANCH  17  22
ATOM     18  C   UNL     1       2.301   3.829  18.794  0.00  0.00    +0.000 A 
ATOM     19  C   UNL     1       1.690   4.431  19.904  0.00  0.00    +0.000 A 
ATOM     20  C   UNL     1       1.986   5.749  20.245  0.00  0.00    +0.000 A 
ATOM     21  C   UNL     1       2.893   6.481  19.479  0.00  0.00    +0.000 A 
ATOM     22  C   UNL     1       3.521   5.902  18.371  0.00  0.00    +0.000 A 
ATOM     23  C   UNL     1       3.224   4.576  18.035  0.00  0.00    +0.000 A 
BRANCH  18  25
ATOM     24  F   UNL     1       2.321   2.095  17.126  0.00  0.00    +0.000 F 
ATOM     25  C   UNL     1       1.955   2.413  18.398  0.00  0.00    +0.000 C 
ATOM     26  F   UNL     1       0.619   2.166  18.474  0.00  0.00    +0.000 F 
ATOM     27  F   UNL     1       2.553   1.488  19.199  0.00  0.00    +0.000 F 
ENDBRANCH  18  25
ENDBRANCH  17  22
ENDBRANCH   1  17
TORSDOF 5
ENDMDL
MODEL 2
REMARK VINA RESULT:      -8.8      2.886      7.172
REMARK  Name = 
REMARK  5 active torsions:
REMARK  status: ('A' for Active; 'I' for Inactive)
REMARK    1  A    between atoms: C_2  and  C_5
REMARK    2  A    between atoms: C_9  and  S_10
REMARK    3  A    between atoms: S_10  and  C_11
REMARK    4  A    between atoms: C_13  and  C_14
REMARK    5  A    between atoms: C_22  and  C_23
REMARK                            x       y       z     vdW  Elec       q    Type
REMARK                         _______ _______ _______ _____ _____    ______ ____
ROOT
ATOM      1  C   UNL     1       2.662   4.585  18.776  0.00  0.00    +0.000 A 
ATOM      2  N   UNL     1       2.415   5.893  18.517  0.00  0.00    +0.000 NA
ATOM      3  C   UNL     1       2.014   6.660  19.546  0.00  0.00    +0.000 A 
ATOM      4  N   UNL     1       1.853   6.181  20.794  0.00  0.00    +0.000 NA
ATOM      5  N   UNL     1       2.112   4.868  21.050  0.00  0.00    +0.000 NA
ATOM      6  C   UNL     1       2.518   4.053  20.044  0.00  0.00    +0.000 A 
ENDROOT
BRANCH   3   7
ATOM      7  C   UNL     1       1.776   8.095  19.308  0.00  0.00    +0.000 A 
ATOM      8  C   UNL     1       1.124   8.898  20.264  0.00  0.00    +0.000 A 
ATOM      9  C   UNL     1       0.851  10.248  20.021  0.00  0.00    +0.000 A 
ATOM     10  C   UNL     1       1.228  10.829  18.815  0.00  0.00    +0.000 A 
ATOM     11  C   UNL     1       1.893  10.068  17.860  0.00  0.00    +0.000 A 
ATOM     12  C   UNL     1       2.167   8.718  18.106  0.00  0.00    +0.000 A 
ENDBRANCH   3   7
BRANCH   6  13
ATOM     13  C   UNL     1       2.772   2.626  20.425  0.00  0.00    +0.000 C 
ATOM     14  F   UNL     1       3.996   2.121  20.105  0.00  0.00    +0.000 F 
ATOM     15  F   UNL     1       2.655   2.424  21.771  0.00  0.00    +0.000 F 
ATOM     16  F   UNL     1       1.879   1.766  19.851  0.00  0.00    +0.000 F 
ENDBRANCH   6  13
BRANCH   1  17
ATOM     17  S   UNL     1       3.060   3.657  17.310  0.00  0.00    +0.000 S 
BRANCH  17  22
ATOM     18  C   UNL     1       6.902   4.995  17.802  0.00  0.00    +0.000 A 
ATOM     19  C   UNL     1       7.410   4.857  16.502  0.00  0.00    +0.000 A 
ATOM     20  C   UNL     1       6.617   4.325  15.487  0.00  0.00    +0.000 A 
ATOM     21  C   UNL     1       5.308   3.929  15.759  0.00  0.00    +0.000 A 
ATOM     22  C   UNL     1       4.779   4.051  17.048  0.00  0.00    +0.000 A 
ATOM     23  C   UNL     1       5.582   4.581  18.066  0.00  0.00    +0.000 A 
BRANCH  18  25
ATOM     24  F   UNL     1       8.837   4.863  19.227  0.00  0.00    +0.000 F 
ATOM     25  C   UNL     1       7.744   5.606  18.897  0.00  0.00    +0.000 C 
ATOM     26  F   UNL     1       7.047   5.777  20.053  0.00  0.00    +0.000 F 
ATOM     27  F   UNL     1       8.220   6.837  18.561  0.00  0.00    +0.000 F 
ENDBRANCH  18  25
ENDBRANCH  17  22
ENDBRANCH   1  17
TORSDOF 5
ENDMDL
MODEL 3
REMARK VINA RESULT:      -8.7      2.893      7.188
REMARK  Name = 
REMARK  5 active torsions:
REMARK  status: ('A' for Active; 'I' for Inactive)
REMARK    1  A    between atoms: C_2  and  C_5
REMARK    2  A    between atoms: C_9  and  S_10
REMARK    3  A    between atoms: S_10  and  C_11
REMARK    4  A    between atoms: C_13  and  C_14
REMARK    5  A    between atoms: C_22  and  C_23
REMARK                            x       y       z     vdW  Elec       q    Type
REMARK                         _______ _______ _______ _____ _____    ______ ____
ROOT
ATOM      1  C   UNL     1       2.651   4.555  18.821  0.00  0.00    +0.000 A 
ATOM      2  N   UNL     1       2.411   5.861  18.543  0.00  0.00    +0.000 NA
ATOM      3  C   UNL     1       2.014   6.645  19.561  0.00  0.00    +0.000 A 
ATOM      4  N   UNL     1       1.851   6.185  20.816  0.00  0.00    +0.000 NA
ATOM      5  N   UNL     1       2.102   4.875  21.090  0.00  0.00    +0.000 NA
ATOM      6  C   UNL     1       2.503   4.042  20.097  0.00  0.00    +0.000 A 
ENDROOT
BRANCH   3   7
ATOM      7  C   UNL     1       1.785   8.077  19.302  0.00  0.00    +0.000 A 
ATOM      8  C   UNL     1       1.129   8.896  20.242  0.00  0.00    +0.000 A 
ATOM      9  C   UNL     1       0.864  10.244  19.979  0.00  0.00    +0.000 A 
ATOM     10  C   UNL     1       1.253  10.808  18.768  0.00  0.00    +0.000 A 
ATOM     11  C   UNL     1       1.922  10.030  17.828  0.00  0.00    +0.000 A 
ATOM     12  C   UNL     1       2.188   8.683  18.095  0.00  0.00    +0.000 A 
ENDBRANCH   3   7
BRANCH   6  13
ATOM     13  C   UNL     1       2.749   2.620  20.498  0.00  0.00    +0.000 C 
ATOM     14  F   UNL     1       2.626   2.333  21.824  0.00  0.00    +0.000 F 
ATOM     15  F   UNL     1       1.896   1.754  19.874  0.00  0.00    +0.000 F 
ATOM     16  F   UNL     1       4.004   2.194  20.165  0.00  0.00    +0.000 F 
ENDBRANCH   6  13
BRANCH   1  17
ATOM     17  S   UNL     1       3.043   3.604  17.369  0.00  0.00    +0.000 S 
BRANCH  17  22
ATOM     18  C   UNL     1       6.878   4.991  17.773  0.00  0.00    +0.000 A 
ATOM     19  C   UNL     1       7.341   4.909  16.452  0.00  0.00    +0.000 A 
ATOM     20  C   UNL     1       6.521   4.401  15.447  0.00  0.00    +0.000 A 
ATOM     21  C   UNL     1       5.228   3.973  15.750  0.00  0.00    +0.000 A 
ATOM     22  C   UNL     1       4.745   4.038  17.060  0.00  0.00    +0.000 A 
ATOM     23  C   UNL     1       5.575   4.544  18.068  0.00  0.00    +0.000 A 
BRANCH  18  25
ATOM     24  F   UNL     1       7.116   5.708  20.058  0.00  0.00    +0.000 F 
ATOM     25  C   UNL     1       7.749   5.575  18.860  0.00  0.00    +0.000 C 
ATOM     26  F   UNL     1       8.211   6.816  18.543  0.00  0.00    +0.000 F 
ATOM     27  F   UNL     1       8.854   4.816  19.105  0.00  0.00    +0.000 F 
ENDBRANCH  18  25
ENDBRANCH  17  22
ENDBRANCH   1  17
TORSDOF 5
ENDMDL
MODEL 4
REMARK VINA RESULT:      -8.7      2.896      7.219
REMARK  Name = 
REMARK  5 active torsions:
REMARK  status: ('A' for Active; 'I' for Inactive)
REMARK    1  A    between atoms: C_2  and  C_5
REMARK    2  A    between atoms: C_9  and  S_10
REMARK    3  A    between atoms: S_10  and  C_11
REMARK    4  A    between atoms: C_13  and  C_14
REMARK    5  A    between atoms: C_22  and  C_23
REMARK                            x       y       z     vdW  Elec       q    Type
REMARK                         _______ _______ _______ _____ _____    ______ ____
ROOT
ATOM      1  C   UNL     1       2.675   4.605  18.796  0.00  0.00    +0.000 A 
ATOM      2  N   UNL     1       2.404   5.904  18.516  0.00  0.00    +0.000 NA
ATOM      3  C   UNL     1       2.000   6.682  19.536  0.00  0.00    +0.000 A 
ATOM      4  N   UNL     1       1.859   6.222  20.794  0.00  0.00    +0.000 NA
ATOM      5  N   UNL     1       2.142   4.919  21.070  0.00  0.00    +0.000 NA
ATOM      6  C   UNL     1       2.552   4.093  20.074  0.00  0.00    +0.000 A 
ENDROOT
BRANCH   3   7
ATOM      7  C   UNL     1       1.737   8.109  19.275  0.00  0.00    +0.000 A 
ATOM      8  C   UNL     1       2.152   8.723  18.078  0.00  0.00    +0.000 A 
ATOM      9  C   UNL     1       1.951  10.088  17.848  0.00  0.00    +0.000 A 
ATOM     10  C   UNL     1       1.324  10.872  18.811  0.00  0.00    +0.000 A 
ATOM     11  C   UNL     1       0.883  10.290  19.995  0.00  0.00    +0.000 A 
ATOM     12  C   UNL     1       1.084   8.924  20.221  0.00  0.00    +0.000 A 
ENDBRANCH   3   7
BRANCH   6  13
ATOM     13  C   UNL     1       2.833   2.677  20.478  0.00  0.00    +0.000 C 
ATOM     14  F   UNL     1       2.706   2.386  21.802  0.00  0.00    +0.000 F 
ATOM     15  F   UNL     1       2.009   1.789  19.846  0.00  0.00    +0.000 F 
ATOM     16  F   UNL     1       4.102   2.285  20.155  0.00  0.00    +0.000 F 
ENDBRANCH   6  13
BRANCH   1  17
ATOM     17  S   UNL     1       3.075   3.658  17.343  0.00  0.00    +0.000 S 
BRANCH  17  22
ATOM     18  C   UNL     1       6.914   5.017  17.801  0.00  0.00    +0.000 A 
ATOM     19  C   UNL     1       7.405   4.900  16.493  0.00  0.00    +0.000 A 
ATOM     20  C   UNL     1       6.603   4.377  15.481  0.00  0.00    +0.000 A 
ATOM     21  C   UNL     1       5.300   3.969  15.765  0.00  0.00    +0.000 A 
ATOM     22  C   UNL     1       4.788   4.068  17.063  0.00  0.00    +0.000 A 
ATOM     23  C   UNL     1       5.600   4.589  18.077  0.00  0.00    +0.000 A 
BRANCH  18  25
ATOM     24  F   UNL     1       8.263   6.848  18.587  0.00  0.00    +0.000 F 
ATOM     25  C   UNL     1       7.767   5.618  18.894  0.00  0.00    +0.000 C 
ATOM     26  F   UNL     1       8.846   4.844  19.193  0.00  0.00    +0.000 F 
ATOM     27  F   UNL     1       7.083   5.773  20.061  0.00  0.00    +0.000 F 
ENDBRANCH  18  25
ENDBRANCH  17  22
ENDBRANCH   1  17
TORSDOF 5
ENDMDL
MODEL 5
REMARK VINA RESULT:      -8.7      2.894      7.206
REMARK  Name = 
REMARK  5 active torsions:
REMARK  status: ('A' for Active; 'I' for Inactive)
REMARK    1  A    between atoms: C_2  and  C_5
REMARK    2  A    between atoms: C_9  and  S_10
REMARK    3  A    between atoms: S_10  and  C_11
REMARK    4  A    between atoms: C_13  and  C_14
REMARK    5  A    between atoms: C_22  and  C_23
REMARK                            x       y       z     vdW  Elec       q    Type
REMARK                         _______ _______ _______ _____ _____    ______ ____
ROOT
ATOM      1  C   UNL     1       2.664   4.577  18.807  0.00  0.00    +0.000 A 
ATOM      2  N   UNL     1       2.403   5.878  18.522  0.00  0.00    +0.000 NA
ATOM      3  C   UNL     1       1.991   6.659  19.537  0.00  0.00    +0.000 A 
ATOM      4  N   UNL     1       1.833   6.200  20.793  0.00  0.00    +0.000 NA
ATOM      5  N   UNL     1       2.105   4.896  21.073  0.00  0.00    +0.000 NA
ATOM      6  C   UNL     1       2.522   4.067  20.083  0.00  0.00    +0.000 A 
ENDROOT
BRANCH   3   7
ATOM      7  C   UNL     1       1.739   8.086  19.272  0.00  0.00    +0.000 A 
ATOM      8  C   UNL     1       2.160   8.694  18.073  0.00  0.00    +0.000 A 
ATOM      9  C   UNL     1       1.969  10.060  17.839  0.00  0.00    +0.000 A 
ATOM     10  C   UNL     1       1.347  10.851  18.800  0.00  0.00    +0.000 A 
ATOM     11  C   UNL     1       0.902  10.276  19.985  0.00  0.00    +0.000 A 
ATOM     12  C   UNL     1       1.092   8.909  20.215  0.00  0.00    +0.000 A 
ENDBRANCH   3   7
BRANCH   6  13
ATOM     13  C   UNL     1       2.791   2.650  20.491  0.00  0.00    +0.000 C 
ATOM     14  F   UNL     1       4.028   2.159  20.202  0.00  0.00    +0.000 F 
ATOM     15  F   UNL     1       2.650   2.467  21.837  0.00  0.00    +0.000 F 
ATOM     16  F   UNL     1       1.922   1.767  19.913  0.00  0.00    +0.000 F 
ENDBRANCH   6  13
BRANCH   1  17
ATOM     17  S   UNL     1       3.075   3.627  17.359  0.00  0.00    +0.000 S 
BRANCH  17  22
ATOM     18  C   UNL     1       6.897   5.038  17.797  0.00  0.00    +0.000 A 
ATOM     19  C   UNL     1       7.374   4.958  16.480  0.00  0.00    +0.000 A 
ATOM     20  C   UNL     1       6.566   4.443  15.468  0.00  0.00    +0.000 A 
ATOM     21  C   UNL     1       5.274   4.007  15.759  0.00  0.00    +0.000 A 
ATOM     22  C   UNL     1       4.778   4.071  17.065  0.00  0.00    +0.000 A 
ATOM     23  C   UNL     1       5.595   4.584  18.080  0.00  0.00    +0.000 A 
BRANCH  18  25
ATOM     24  F   UNL     1       7.096   5.806  20.069  0.00  0.00    +0.000 F 
ATOM     25  C   UNL     1       7.755   5.629  18.891  0.00  0.00    +0.000 C 
ATOM     26  F   UNL     1       8.254   6.851  18.555  0.00  0.00    +0.000 F 
ATOM     27  F   UNL     1       8.835   4.852  19.182  0.00  0.00    +0.000 F 
ENDBRANCH  18  25
ENDBRANCH  17  22
ENDBRANCH   1  17
TORSDOF 5
ENDMDL
MODEL 6
REMARK VINA RESULT:      -8.6      0.392      1.342
REMARK  Name = 
REMARK  5 active torsions:
REMARK  status: ('A' for Active; 'I' for Inactive)
REMARK    1  A    between atoms: C_2  and  C_5
REMARK    2  A    between atoms: C_9  and  S_10
REMARK    3  A    between atoms: S_10  and  C_11
REMARK    4  A    between atoms: C_13  and  C_14
REMARK    5  A    between atoms: C_22  and  C_23
REMARK                            x       y       z     vdW  Elec       q    Type
REMARK                         _______ _______ _______ _____ _____    ______ ____
ROOT
ATOM      1  C   UNL     1       5.786   5.743  16.755  0.00  0.00    +0.000 A 
ATOM      2  N   UNL     1       5.478   5.262  15.525  0.00  0.00    +0.000 NA
ATOM      3  C   UNL     1       6.397   4.491  14.917  0.00  0.00    +0.000 A 
ATOM      4  N   UNL     1       7.584   4.192  15.478  0.00  0.00    +0.000 NA
ATOM      5  N   UNL     1       7.884   4.670  16.717  0.00  0.00    +0.000 NA
ATOM      6  C   UNL     1       6.990   5.454  17.371  0.00  0.00    +0.000 A 
ENDROOT
BRANCH   3   7
ATOM      7  C   UNL     1       6.077   3.918  13.598  0.00  0.00    +0.000 A 
ATOM      8  C   UNL     1       7.093   3.530  12.702  0.00  0.00    +0.000 A 
ATOM      9  C   UNL     1       6.795   3.033  11.429  0.00  0.00    +0.000 A 
ATOM     10  C   UNL     1       5.471   2.910  11.021  0.00  0.00    +0.000 A 
ATOM     11  C   UNL     1       4.445   3.265  11.891  0.00  0.00    +0.000 A 
ATOM     12  C   UNL     1       4.746   3.759  13.164  0.00  0.00    +0.000 A 
ENDBRANCH   3   7
BRANCH   6  13
ATOM     13  C   UNL     1       7.414   5.934  18.725  0.00  0.00    +0.000 C 
ATOM     14  F   UNL     1       6.486   5.849  19.718  0.00  0.00    +0.000 F 
ATOM     15  F   UNL     1       8.494   5.246  19.200  0.00  0.00    +0.000 F 
ATOM     16  F   UNL     1       7.797   7.246  18.717  0.00  0.00    +0.000 F 
ENDBRANCH   6  13
BRANCH   1  17
ATOM     17  S   UNL     1       4.544   6.847  17.392  0.00  0.00    +0.000 S 
BRANCH  17  22
ATOM     18  C   UNL     1       2.592   3.607  18.967  0.00  0.00    +0.000 A 
ATOM     19  C   UNL     1       1.834   4.208  19.983  0.00  0.00    +0.000 A 
ATOM     20  C   UNL     1       1.937   5.577  20.224  0.00  0.00    +0.000 A 
ATOM     21  C   UNL     1       2.795   6.359  19.451  0.00  0.00    +0.000 A 
ATOM     22  C   UNL     1       3.567   5.782  18.437  0.00  0.00    +0.000 A 
ATOM     23  C   UNL     1       3.464   4.406  18.202  0.00  0.00    +0.000 A 
BRANCH  18  25
ATOM     24  F   UNL     1       3.573   1.409  18.972  0.00  0.00    +0.000 F 
ATOM     25  C   UNL     1       2.456   2.130  18.677  0.00  0.00    +0.000 C 
ATOM     26  F   UNL     1       2.188   1.883  17.366  0.00  0.00    +0.000 F 
ATOM     27  F   UNL     1       1.444   1.553  19.382  0.00  0.00    +0.000 F 
ENDBRANCH  18  25
ENDBRANCH  17  22
ENDBRANCH   1  17
TORSDOF 5
ENDMDL
MODEL 7
REMARK VINA RESULT:      -8.6      0.103      1.393
REMARK  Name = 
REMARK  5 active torsions:
REMARK  status: ('A' for Active; 'I' for Inactive)
REMARK    1  A    between atoms: C_2  and  C_5
REMARK    2  A    between atoms: C_9  and  S_10
REMARK    3  A    between atoms: S_10  and  C_11
REMARK    4  A    between atoms: C_13  and  C_14
REMARK    5  A    between atoms: C_22  and  C_23
REMARK                            x       y       z     vdW  Elec       q    Type
REMARK                         _______ _______ _______ _____ _____    ______ ____
ROOT
ATOM      1  C   UNL     1       5.784   5.766  16.783  0.00  0.00    +0.000 A 
ATOM      2  N   UNL     1       5.461   5.281  15.558  0.00  0.00    +0.000 NA
ATOM      3  C   UNL     1       6.360   4.482  14.955  0.00  0.00    +0.000 A 
ATOM      4  N   UNL     1       7.540   4.158  15.517  0.00  0.00    +0.000 NA
ATOM      5  N   UNL     1       7.854   4.642  16.751  0.00  0.00    +0.000 NA
ATOM      6  C   UNL     1       6.981   5.453  17.399  0.00  0.00    +0.000 A 
ENDROOT
BRANCH   3   7
ATOM      7  C   UNL     1       6.024   3.904  13.642  0.00  0.00    +0.000 A 
ATOM      8  C   UNL     1       7.027   3.451  12.763  0.00  0.00    +0.000 A 
ATOM      9  C   UNL     1       6.716   2.950  11.495  0.00  0.00    +0.000 A 
ATOM     10  C   UNL     1       5.391   2.885  11.076  0.00  0.00    +0.000 A 
ATOM     11  C   UNL     1       4.377   3.306  11.930  0.00  0.00    +0.000 A 
ATOM     12  C   UNL     1       4.690   3.805  13.199  0.00  0.00    +0.000 A 
ENDBRANCH   3   7
BRANCH   6  13
ATOM     13  C   UNL     1       7.419   5.936  18.748  0.00  0.00    +0.000 C 
ATOM     14  F   UNL     1       7.785   7.245  18.835  0.00  0.00    +0.000 F 
ATOM     15  F   UNL     1       6.442   5.785  19.691  0.00  0.00    +0.000 F 
ATOM     16  F   UNL     1       8.494   5.241  19.227  0.00  0.00    +0.000 F 
ENDBRANCH   6  13
BRANCH   1  17
ATOM     17  S   UNL     1       4.571   6.907  17.411  0.00  0.00    +0.000 S 
BRANCH  17  22
ATOM     18  C   UNL     1       2.347   3.757  18.798  0.00  0.00    +0.000 A 
ATOM     19  C   UNL     1       1.687   4.345  19.888  0.00  0.00    +0.000 A 
ATOM     20  C   UNL     1       1.938   5.671  20.233  0.00  0.00    +0.000 A 
ATOM     21  C   UNL     1       2.847   6.425  19.492  0.00  0.00    +0.000 A 
ATOM     22  C   UNL     1       3.522   5.862  18.405  0.00  0.00    +0.000 A 
ATOM     23  C   UNL     1       3.271   4.526  18.065  0.00  0.00    +0.000 A 
BRANCH  18  25
ATOM     24  F   UNL     1       0.747   1.975  18.562  0.00  0.00    +0.000 F 
ATOM     25  C   UNL     1       2.051   2.331  18.397  0.00  0.00    +0.000 C 
ATOM     26  F   UNL     1       2.778   1.430  19.112  0.00  0.00    +0.000 F 
ATOM     27  F   UNL     1       2.338   2.090  17.087  0.00  0.00    +0.000 F 
ENDBRANCH  18  25
ENDBRANCH  17  22
ENDBRANCH   1  17
TORSDOF 5
ENDMDL
MODEL 8
REMARK VINA RESULT:      -8.5      1.477      2.296
REMARK  Name = 
REMARK  5 active torsions:
REMARK  status: ('A' for Active; 'I' for Inactive)
REMARK    1  A    between atoms: C_2  and  C_5
REMARK    2  A    between atoms: C_9  and  S_10
REMARK    3  A    between atoms: S_10  and  C_11
REMARK    4  A    between atoms: C_13  and  C_14
REMARK    5  A    between atoms: C_22  and  C_23
REMARK                            x       y       z     vdW  Elec       q    Type
REMARK                         _______ _______ _______ _____ _____    ______ ____
ROOT
ATOM      1  C   UNL     1       5.525   5.314  16.802  0.00  0.00    +0.000 A 
ATOM      2  N   UNL     1       5.238   4.839  15.564  0.00  0.00    +0.000 NA
ATOM      3  C   UNL     1       6.260   4.344  14.843  0.00  0.00    +0.000 A 
ATOM      4  N   UNL     1       7.526   4.309  15.300  0.00  0.00    +0.000 NA
ATOM      5  N   UNL     1       7.806   4.780  16.547  0.00  0.00    +0.000 NA
ATOM      6  C   UNL     1       6.809   5.290  17.313  0.00  0.00    +0.000 A 
ENDROOT
BRANCH   3   7
ATOM      7  C   UNL     1       5.977   3.782  13.511  0.00  0.00    +0.000 A 
ATOM      8  C   UNL     1       7.011   3.298  12.685  0.00  0.00    +0.000 A 
ATOM      9  C   UNL     1       6.753   2.811  11.399  0.00  0.00    +0.000 A 
ATOM     10  C   UNL     1       5.451   2.792  10.909  0.00  0.00    +0.000 A 
ATOM     11  C   UNL     1       4.406   3.242  11.709  0.00  0.00    +0.000 A 
ATOM     12  C   UNL     1       4.667   3.727  12.995  0.00  0.00    +0.000 A 
ENDBRANCH   3   7
BRANCH   6  13
ATOM     13  C   UNL     1       7.218   5.786  18.667  0.00  0.00    +0.000 C 
ATOM     14  F   UNL     1       6.301   5.654  19.665  0.00  0.00    +0.000 F 
ATOM     15  F   UNL     1       8.333   5.150  19.133  0.00  0.00    +0.000 F 
ATOM     16  F   UNL     1       7.537   7.115  18.661  0.00  0.00    +0.000 F 
ENDBRANCH   6  13
BRANCH   1  17
ATOM     17  S   UNL     1       4.115   6.054  17.597  0.00  0.00    +0.000 S 
BRANCH  17  22
ATOM     18  C   UNL     1       2.374   3.249  20.025  0.00  0.00    +0.000 A 
ATOM     19  C   UNL     1       1.988   2.277  19.090  0.00  0.00    +0.000 A 
ATOM     20  C   UNL     1       2.211   2.478  17.730  0.00  0.00    +0.000 A 
ATOM     21  C   UNL     1       2.825   3.650  17.289  0.00  0.00    +0.000 A 
ATOM     22  C   UNL     1       3.214   4.637  18.200  0.00  0.00    +0.000 A 
ATOM     23  C   UNL     1       2.982   4.433  19.566  0.00  0.00    +0.000 A 
BRANCH  18  25
ATOM     24  F   UNL     1       2.992   2.073  22.031  0.00  0.00    +0.000 F 
ATOM     25  C   UNL     1       2.168   3.019  21.504  0.00  0.00    +0.000 C 
ATOM     26  F   UNL     1       0.901   2.614  21.794  0.00  0.00    +0.000 F 
ATOM     27  F   UNL     1       2.378   4.147  22.239  0.00  0.00    +0.000 F 
ENDBRANCH  18  25
ENDBRANCH  17  22
ENDBRANCH   1  17
TORSDOF 5
ENDMDL
MODEL 9
REMARK VINA RESULT:      -8.4      1.405      1.823
REMARK  Name = 
REMARK  5 active torsions:
REMARK  status: ('A' for Active; 'I' for Inactive)
REMARK    1  A    between atoms: C_2  and  C_5
REMARK    2  A    between atoms: C_9  and  S_10
REMARK    3  A    between atoms: S_10  and  C_11
REMARK    4  A    between atoms: C_13  and  C_14
REMARK    5  A    between atoms: C_22  and  C_23
REMARK                            x       y       z     vdW  Elec       q    Type
REMARK                         _______ _______ _______ _____ _____    ______ ____
ROOT
ATOM      1  C   UNL     1       5.502   5.834  16.283  0.00  0.00    +0.000 A 
ATOM      2  N   UNL     1       5.210   5.091  15.186  0.00  0.00    +0.000 NA
ATOM      3  C   UNL     1       6.231   4.766  14.373  0.00  0.00    +0.000 A 
ATOM      4  N   UNL     1       7.501   5.146  14.609  0.00  0.00    +0.000 NA
ATOM      5  N   UNL     1       7.789   5.884  15.717  0.00  0.00    +0.000 NA
ATOM      6  C   UNL     1       6.793   6.239  16.568  0.00  0.00    +0.000 A 
ENDROOT
BRANCH   3   7
ATOM      7  C   UNL     1       5.955   3.925  13.195  0.00  0.00    +0.000 A 
ATOM      8  C   UNL     1       4.654   3.802  12.671  0.00  0.00    +0.000 A 
ATOM      9  C   UNL     1       4.379   2.965  11.585  0.00  0.00    +0.000 A 
ATOM     10  C   UNL     1       5.402   2.232  10.993  0.00  0.00    +0.000 A 
ATOM     11  C   UNL     1       6.702   2.349  11.474  0.00  0.00    +0.000 A 
ATOM     12  C   UNL     1       6.975   3.189  12.559  0.00  0.00    +0.000 A 
ENDBRANCH   3   7
BRANCH   6  13
ATOM     13  C   UNL     1       7.210   7.053  17.754  0.00  0.00    +0.000 C 
ATOM     14  F   UNL     1       8.533   7.362  17.845  0.00  0.00    +0.000 F 
ATOM     15  F   UNL     1       6.568   8.258  17.802  0.00  0.00    +0.000 F 
ATOM     16  F   UNL     1       6.913   6.439  18.939  0.00  0.00    +0.000 F 
ENDBRANCH   6  13
BRANCH   1  17
ATOM     17  S   UNL     1       4.051   6.302  17.202  0.00  0.00    +0.000 S 
BRANCH  17  22
ATOM     18  C   UNL     1       2.290   3.518  19.639  0.00  0.00    +0.000 A 
ATOM     19  C   UNL     1       3.390   2.721  19.987  0.00  0.00    +0.000 A 
ATOM     20  C   UNL     1       4.652   2.991  19.461  0.00  0.00    +0.000 A 
ATOM     21  C   UNL     1       4.828   4.062  18.585  0.00  0.00    +0.000 A 
ATOM     22  C   UNL     1       3.746   4.867  18.217  0.00  0.00    +0.000 A 
ATOM     23  C   UNL     1       2.479   4.588  18.744  0.00  0.00    +0.000 A 
BRANCH  18  25
ATOM     24  F   UNL     1       0.115   2.507  19.436  0.00  0.00    +0.000 F 
ATOM     25  C   UNL     1       0.928   3.252  20.235  0.00  0.00    +0.000 C 
ATOM     26  F   UNL     1       0.244   4.399  20.496  0.00  0.00    +0.000 F 
ATOM     27  F   UNL     1       1.000   2.582  21.419  0.00  0.00    +0.000 F 
ENDBRANCH  18  25
ENDBRANCH  17  22
ENDBRANCH   1  17
TORSDOF 5
ENDMDL
