MODEL 1
REMARK VINA RESULT:      -7.6      0.000      0.000
REMARK  Name = 
REMARK  7 active torsions:
REMARK  status: ('A' for Active; 'I' for Inactive)
REMARK    1  A    between atoms: C_1  and  N_2
REMARK    2  A    between atoms: N_2  and  C_3
REMARK    3  A    between atoms: N_2  and  C_4
REMARK    4  A    between atoms: C_7  and  C_8
REMARK    5  A    between atoms: C_9  and  C_10
REMARK    6  A    between atoms: C_11  and  C_12
REMARK    7  A    between atoms: C_12  and  C_14
REMARK                            x       y       z     vdW  Elec       q    Type
REMARK                         _______ _______ _______ _____ _____    ______ ____
ROOT
ATOM      1  C   UNL     1       8.820   9.333  18.620  0.00  0.00    +0.000 C 
ATOM      2  C   UNL     1       7.948   9.067  17.637  0.00  0.00    +0.000 C 
ENDROOT
BRANCH   1   6
ATOM      3  C   UNL     1      10.364  13.331  19.332  0.00  0.00    +0.000 A 
ATOM      4  C   UNL     1       9.540  13.018  18.239  0.00  0.00    +0.000 A 
ATOM      5  C   UNL     1       9.036  11.724  18.025  0.00  0.00    +0.000 A 
ATOM      6  C   UNL     1       9.339  10.683  18.903  0.00  0.00    +0.000 A 
ATOM      7  C   UNL     1      10.113  10.984  20.024  0.00  0.00    +0.000 A 
ATOM      8  C   UNL     1      10.617  12.278  20.226  0.00  0.00    +0.000 A 
BRANCH   3  10
ATOM      9  C   UNL     1      10.039  15.787  19.421  0.00  0.00    +0.000 C 
ATOM     10  N   UNL     1      10.887  14.607  19.529  0.00  0.00    +0.000 N 
ATOM     11  C   UNL     1      12.331  14.810  19.530  0.00  0.00    +0.000 C 
ENDBRANCH   3  10
ENDBRANCH   1   6
BRANCH   2  12
ATOM     12  C   UNL     1       7.372   7.759  17.397  0.00  0.00    +0.000 C 
ATOM     13  C   UNL     1       7.678   6.720  18.185  0.00  0.00    +0.000 C 
BRANCH  13  14
ATOM     14  C   UNL     1       7.148   5.340  17.959  0.00  0.00    +0.000 C 
ATOM     15  O   UNL     1       7.110   4.527  18.885  0.00  0.00    +0.000 OA
BRANCH  14  16
ATOM     16  C   UNL     1       6.692   5.039  16.615  0.00  0.00    +0.000 A 
ATOM     17  C   UNL     1       5.423   4.898  16.087  0.00  0.00    +0.000 A 
ATOM     18  C   UNL     1       5.580   4.582  14.714  0.00  0.00    +0.000 A 
ATOM     19  C   UNL     1       6.934   4.560  14.480  0.00  0.00    +0.000 A 
ATOM     20  O   UNL     1       7.614   4.831  15.620  0.00  0.00    +0.000 OA
ENDBRANCH  14  16
ENDBRANCH  13  14
ENDBRANCH   2  12
TORSDOF 5
ENDMDL
MODEL 2
REMARK VINA RESULT:      -7.5      1.335      1.731
REMARK  Name = 
REMARK  7 active torsions:
REMARK  status: ('A' for Active; 'I' for Inactive)
REMARK    1  A    between atoms: C_1  and  N_2
REMARK    2  A    between atoms: N_2  and  C_3
REMARK    3  A    between atoms: N_2  and  C_4
REMARK    4  A    between atoms: C_7  and  C_8
REMARK    5  A    between atoms: C_9  and  C_10
REMARK    6  A    between atoms: C_11  and  C_12
REMARK    7  A    between atoms: C_12  and  C_14
REMARK                            x       y       z     vdW  Elec       q    Type
REMARK                         _______ _______ _______ _____ _____    ______ ____
ROOT
ATOM      1  C   UNL     1       8.781  10.041  18.512  0.00  0.00    +0.000 C 
ATOM      2  C   UNL     1       8.355   9.235  17.529  0.00  0.00    +0.000 C 
ENDROOT
BRANCH   1   6
ATOM      3  C   UNL     1      10.747  13.860  17.860  0.00  0.00    +0.000 A 
ATOM      4  C   UNL     1      11.414  12.631  17.734  0.00  0.00    +0.000 A 
ATOM      5  C   UNL     1      10.765  11.401  17.936  0.00  0.00    +0.000 A 
ATOM      6  C   UNL     1       9.412  11.351  18.273  0.00  0.00    +0.000 A 
ATOM      7  C   UNL     1       8.718  12.559  18.352  0.00  0.00    +0.000 A 
ATOM      8  C   UNL     1       9.377  13.783  18.156  0.00  0.00    +0.000 A 
BRANCH   3  10
ATOM      9  C   UNL     1      12.324  15.581  18.696  0.00  0.00    +0.000 C 
ATOM     10  N   UNL     1      11.396  15.080  17.689  0.00  0.00    +0.000 N 
ATOM     11  C   UNL     1      10.928  16.019  16.676  0.00  0.00    +0.000 C 
ENDBRANCH   3  10
ENDBRANCH   1   6
BRANCH   2  12
ATOM     12  C   UNL     1       7.664   7.981  17.751  0.00  0.00    +0.000 C 
ATOM     13  C   UNL     1       8.132   7.087  18.632  0.00  0.00    +0.000 C 
BRANCH  13  14
ATOM     14  C   UNL     1       7.486   5.760  18.871  0.00  0.00    +0.000 C 
ATOM     15  O   UNL     1       7.506   5.249  19.992  0.00  0.00    +0.000 OA
BRANCH  14  16
ATOM     16  C   UNL     1       6.851   5.139  17.723  0.00  0.00    +0.000 A 
ATOM     17  C   UNL     1       5.523   4.877  17.440  0.00  0.00    +0.000 A 
ATOM     18  C   UNL     1       5.489   4.233  16.178  0.00  0.00    +0.000 A 
ATOM     19  C   UNL     1       6.795   4.149  15.758  0.00  0.00    +0.000 A 
ATOM     20  O   UNL     1       7.624   4.690  16.683  0.00  0.00    +0.000 OA
ENDBRANCH  14  16
ENDBRANCH  13  14
ENDBRANCH   2  12
TORSDOF 5
ENDMDL
MODEL 3
REMARK VINA RESULT:      -7.4      1.491      2.325
REMARK  Name = 
REMARK  7 active torsions:
REMARK  status: ('A' for Active; 'I' for Inactive)
REMARK    1  A    between atoms: C_1  and  N_2
REMARK    2  A    between atoms: N_2  and  C_3
REMARK    3  A    between atoms: N_2  and  C_4
REMARK    4  A    between atoms: C_7  and  C_8
REMARK    5  A    between atoms: C_9  and  C_10
REMARK    6  A    between atoms: C_11  and  C_12
REMARK    7  A    between atoms: C_12  and  C_14
REMARK                            x       y       z     vdW  Elec       q    Type
REMARK                         _______ _______ _______ _____ _____    ______ ____
ROOT
ATOM      1  C   UNL     1       8.960   9.392  18.893  0.00  0.00    +0.000 C 
ATOM      2  C   UNL     1       8.249   9.059  17.806  0.00  0.00    +0.000 C 
ENDROOT
BRANCH   1   6
ATOM      3  C   UNL     1      10.730  13.305  19.543  0.00  0.00    +0.000 A 
ATOM      4  C   UNL     1      10.258  12.501  20.592  0.00  0.00    +0.000 A 
ATOM      5  C   UNL     1       9.699  11.231  20.372  0.00  0.00    +0.000 A 
ATOM      6  C   UNL     1       9.588  10.711  19.082  0.00  0.00    +0.000 A 
ATOM      7  C   UNL     1      10.098  11.472  18.030  0.00  0.00    +0.000 A 
ATOM      8  C   UNL     1      10.649  12.742  18.259  0.00  0.00    +0.000 A 
BRANCH   3  10
ATOM      9  C   UNL     1      10.875  15.357  20.926  0.00  0.00    +0.000 C 
ATOM     10  N   UNL     1      11.259  14.576  19.757  0.00  0.00    +0.000 N 
ATOM     11  C   UNL     1      11.945  15.272  18.675  0.00  0.00    +0.000 C 
ENDBRANCH   3  10
ENDBRANCH   1   6
BRANCH   2  12
ATOM     12  C   UNL     1       7.562   7.794  17.643  0.00  0.00    +0.000 C 
ATOM     13  C   UNL     1       7.863   6.745  18.420  0.00  0.00    +0.000 C 
BRANCH  13  14
ATOM     14  C   UNL     1       7.219   5.404  18.268  0.00  0.00    +0.000 C 
ATOM     15  O   UNL     1       7.905   4.405  18.045  0.00  0.00    +0.000 OA
BRANCH  14  16
ATOM     16  C   UNL     1       5.774   5.366  18.401  0.00  0.00    +0.000 A 
ATOM     17  C   UNL     1       4.766   5.351  17.456  0.00  0.00    +0.000 A 
ATOM     18  C   UNL     1       3.538   5.334  18.163  0.00  0.00    +0.000 A 
ATOM     19  C   UNL     1       3.865   5.328  19.497  0.00  0.00    +0.000 A 
ATOM     20  O   UNL     1       5.211   5.350  19.652  0.00  0.00    +0.000 OA
ENDBRANCH  14  16
ENDBRANCH  13  14
ENDBRANCH   2  12
TORSDOF 5
ENDMDL
MODEL 4
REMARK VINA RESULT:      -7.4      1.456      2.392
REMARK  Name = 
REMARK  7 active torsions:
REMARK  status: ('A' for Active; 'I' for Inactive)
REMARK    1  A    between atoms: C_1  and  N_2
REMARK    2  A    between atoms: N_2  and  C_3
REMARK    3  A    between atoms: N_2  and  C_4
REMARK    4  A    between atoms: C_7  and  C_8
REMARK    5  A    between atoms: C_9  and  C_10
REMARK    6  A    between atoms: C_11  and  C_12
REMARK    7  A    between atoms: C_12  and  C_14
REMARK                            x       y       z     vdW  Elec       q    Type
REMARK                         _______ _______ _______ _____ _____    ______ ____
ROOT
ATOM      1  C   UNL     1       8.898   9.140  18.734  0.00  0.00    +0.000 C 
ATOM      2  C   UNL     1       7.997   8.919  17.766  0.00  0.00    +0.000 C 
ENDROOT
BRANCH   1   6
ATOM      3  C   UNL     1      10.152  13.099  20.012  0.00  0.00    +0.000 A 
ATOM      4  C   UNL     1       9.878  12.060  20.916  0.00  0.00    +0.000 A 
ATOM      5  C   UNL     1       9.485  10.779  20.491  0.00  0.00    +0.000 A 
ATOM      6  C   UNL     1       9.349  10.485  19.134  0.00  0.00    +0.000 A 
ATOM      7  C   UNL     1       9.666  11.488  18.217  0.00  0.00    +0.000 A 
ATOM      8  C   UNL     1      10.051  12.766  18.652  0.00  0.00    +0.000 A 
BRANCH   3  10
ATOM      9  C   UNL     1      11.683  15.043  19.874  0.00  0.00    +0.000 C 
ATOM     10  N   UNL     1      10.514  14.376  20.432  0.00  0.00    +0.000 N 
ATOM     11  C   UNL     1       9.933  14.936  21.647  0.00  0.00    +0.000 C 
ENDBRANCH   3  10
ENDBRANCH   1   6
BRANCH   2  12
ATOM     12  C   UNL     1       7.488   7.609  17.417  0.00  0.00    +0.000 C 
ATOM     13  C   UNL     1       7.722   6.550  18.203  0.00  0.00    +0.000 C 
BRANCH  13  14
ATOM     14  C   UNL     1       7.259   5.167  17.871  0.00  0.00    +0.000 C 
ATOM     15  O   UNL     1       8.039   4.352  17.374  0.00  0.00    +0.000 OA
BRANCH  14  16
ATOM     16  C   UNL     1       5.872   4.865  18.170  0.00  0.00    +0.000 A 
ATOM     17  C   UNL     1       4.905   4.188  17.450  0.00  0.00    +0.000 A 
ATOM     18  C   UNL     1       3.719   4.215  18.226  0.00  0.00    +0.000 A 
ATOM     19  C   UNL     1       4.032   4.896  19.378  0.00  0.00    +0.000 A 
ATOM     20  O   UNL     1       5.327   5.294  19.353  0.00  0.00    +0.000 OA
ENDBRANCH  14  16
ENDBRANCH  13  14
ENDBRANCH   2  12
TORSDOF 5
ENDMDL
MODEL 5
REMARK VINA RESULT:      -7.2      1.551      2.248
REMARK  Name = 
REMARK  7 active torsions:
REMARK  status: ('A' for Active; 'I' for Inactive)
REMARK    1  A    between atoms: C_1  and  N_2
REMARK    2  A    between atoms: N_2  and  C_3
REMARK    3  A    between atoms: N_2  and  C_4
REMARK    4  A    between atoms: C_7  and  C_8
REMARK    5  A    between atoms: C_9  and  C_10
REMARK    6  A    between atoms: C_11  and  C_12
REMARK    7  A    between atoms: C_12  and  C_14
REMARK                            x       y       z     vdW  Elec       q    Type
REMARK                         _______ _______ _______ _____ _____    ______ ____
ROOT
ATOM      1  C   UNL     1       8.629   9.718  18.680  0.00  0.00    +0.000 C 
ATOM      2  C   UNL     1       8.370   9.022  17.564  0.00  0.00    +0.000 C 
ENDROOT
BRANCH   1   6
ATOM      3  C   UNL     1      10.701  13.536  18.575  0.00  0.00    +0.000 A 
ATOM      4  C   UNL     1       9.555  13.271  17.807  0.00  0.00    +0.000 A 
ATOM      5  C   UNL     1       8.886  12.037  17.858  0.00  0.00    +0.000 A 
ATOM      6  C   UNL     1       9.339  11.009  18.686  0.00  0.00    +0.000 A 
ATOM      7  C   UNL     1      10.445  11.269  19.496  0.00  0.00    +0.000 A 
ATOM      8  C   UNL     1      11.111  12.503  19.433  0.00  0.00    +0.000 A 
BRANCH   3  10
ATOM      9  C   UNL     1      12.230  15.063  17.361  0.00  0.00    +0.000 C 
ATOM     10  N   UNL     1      11.382  14.749  18.504  0.00  0.00    +0.000 N 
ATOM     11  C   UNL     1      11.518  15.579  19.695  0.00  0.00    +0.000 C 
ENDBRANCH   3  10
ENDBRANCH   1   6
BRANCH   2  12
ATOM     12  C   UNL     1       7.606   7.791  17.536  0.00  0.00    +0.000 C 
ATOM     13  C   UNL     1       7.904   6.780  18.363  0.00  0.00    +0.000 C 
BRANCH  13  14
ATOM     14  C   UNL     1       7.179   5.472  18.348  0.00  0.00    +0.000 C 
ATOM     15  O   UNL     1       7.804   4.414  18.248  0.00  0.00    +0.000 OA
BRANCH  14  16
ATOM     16  C   UNL     1       5.734   5.538  18.461  0.00  0.00    +0.000 A 
ATOM     17  C   UNL     1       4.748   5.737  17.513  0.00  0.00    +0.000 A 
ATOM     18  C   UNL     1       3.508   5.726  18.198  0.00  0.00    +0.000 A 
ATOM     19  C   UNL     1       3.806   5.510  19.523  0.00  0.00    +0.000 A 
ATOM     20  O   UNL     1       5.146   5.398  19.692  0.00  0.00    +0.000 OA
ENDBRANCH  14  16
ENDBRANCH  13  14
ENDBRANCH   2  12
TORSDOF 5
ENDMDL
MODEL 6
REMARK VINA RESULT:      -7.2      0.999      1.022
REMARK  Name = 
REMARK  7 active torsions:
REMARK  status: ('A' for Active; 'I' for Inactive)
REMARK    1  A    between atoms: C_1  and  N_2
REMARK    2  A    between atoms: N_2  and  C_3
REMARK    3  A    between atoms: N_2  and  C_4
REMARK    4  A    between atoms: C_7  and  C_8
REMARK    5  A    between atoms: C_9  and  C_10
REMARK    6  A    between atoms: C_11  and  C_12
REMARK    7  A    between atoms: C_12  and  C_14
REMARK                            x       y       z     vdW  Elec       q    Type
REMARK                         _______ _______ _______ _____ _____    ______ ____
ROOT
ATOM      1  C   UNL     1       8.892   9.736  18.888  0.00  0.00    +0.000 C 
ATOM      2  C   UNL     1       8.186   9.199  17.883  0.00  0.00    +0.000 C 
ENDROOT
BRANCH   1   6
ATOM      3  C   UNL     1      10.771  13.638  18.542  0.00  0.00    +0.000 A 
ATOM      4  C   UNL     1       9.660  13.259  17.772  0.00  0.00    +0.000 A 
ATOM      5  C   UNL     1       9.053  11.998  17.901  0.00  0.00    +0.000 A 
ATOM      6  C   UNL     1       9.536  11.059  18.813  0.00  0.00    +0.000 A 
ATOM      7  C   UNL     1      10.606  11.436  19.625  0.00  0.00    +0.000 A 
ATOM      8  C   UNL     1      11.210  12.695  19.484  0.00  0.00    +0.000 A 
BRANCH   3  10
ATOM      9  C   UNL     1      11.405  15.557  17.107  0.00  0.00    +0.000 C 
ATOM     10  N   UNL     1      11.391  14.877  18.395  0.00  0.00    +0.000 N 
ATOM     11  C   UNL     1      12.302  15.362  19.425  0.00  0.00    +0.000 C 
ENDBRANCH   3  10
ENDBRANCH   1   6
BRANCH   2  12
ATOM     12  C   UNL     1       7.485   7.934  17.971  0.00  0.00    +0.000 C 
ATOM     13  C   UNL     1       7.729   6.951  17.094  0.00  0.00    +0.000 C 
BRANCH  13  14
ATOM     14  C   UNL     1       7.004   5.643  17.111  0.00  0.00    +0.000 C 
ATOM     15  O   UNL     1       6.662   5.134  18.179  0.00  0.00    +0.000 OA
BRANCH  14  16
ATOM     16  C   UNL     1       6.739   5.040  15.818  0.00  0.00    +0.000 A 
ATOM     17  C   UNL     1       5.778   4.135  15.409  0.00  0.00    +0.000 A 
ATOM     18  C   UNL     1       6.007   3.882  14.033  0.00  0.00    +0.000 A 
ATOM     19  C   UNL     1       7.087   4.656  13.678  0.00  0.00    +0.000 A 
ATOM     20  O   UNL     1       7.537   5.356  14.748  0.00  0.00    +0.000 OA
ENDBRANCH  14  16
ENDBRANCH  13  14
ENDBRANCH   2  12
TORSDOF 5
ENDMDL
MODEL 7
REMARK VINA RESULT:      -7.1      1.451      1.981
REMARK  Name = 
REMARK  7 active torsions:
REMARK  status: ('A' for Active; 'I' for Inactive)
REMARK    1  A    between atoms: C_1  and  N_2
REMARK    2  A    between atoms: N_2  and  C_3
REMARK    3  A    between atoms: N_2  and  C_4
REMARK    4  A    between atoms: C_7  and  C_8
REMARK    5  A    between atoms: C_9  and  C_10
REMARK    6  A    between atoms: C_11  and  C_12
REMARK    7  A    between atoms: C_12  and  C_14
REMARK                            x       y       z     vdW  Elec       q    Type
REMARK                         _______ _______ _______ _____ _____    ______ ____
ROOT
ATOM      1  C   UNL     1       8.429   9.746  17.797  0.00  0.00    +0.000 C 
ATOM      2  C   UNL     1       8.379   8.539  18.381  0.00  0.00    +0.000 C 
ENDROOT
BRANCH   1   6
ATOM      3  C   UNL     1      10.340  13.257  19.497  0.00  0.00    +0.000 A 
ATOM      4  C   UNL     1       9.504  13.318  18.371  0.00  0.00    +0.000 A 
ATOM      5  C   UNL     1       8.881  12.177  17.836  0.00  0.00    +0.000 A 
ATOM      6  C   UNL     1       9.071  10.920  18.413  0.00  0.00    +0.000 A 
ATOM      7  C   UNL     1       9.856  10.847  19.564  0.00  0.00    +0.000 A 
ATOM      8  C   UNL     1      10.480  11.991  20.086  0.00  0.00    +0.000 A 
BRANCH   3  10
ATOM      9  C   UNL     1      12.332  14.730  19.588  0.00  0.00    +0.000 C 
ATOM     10  N   UNL     1      10.981  14.382  20.010  0.00  0.00    +0.000 N 
ATOM     11  C   UNL     1      10.454  15.044  21.198  0.00  0.00    +0.000 C 
ENDBRANCH   3  10
ENDBRANCH   1   6
BRANCH   2  12
ATOM     12  C   UNL     1       7.819   7.359  17.754  0.00  0.00    +0.000 C 
ATOM     13  C   UNL     1       7.789   6.187  18.403  0.00  0.00    +0.000 C 
BRANCH  13  14
ATOM     14  C   UNL     1       7.265   4.928  17.790  0.00  0.00    +0.000 C 
ATOM     15  O   UNL     1       8.020   4.170  17.179  0.00  0.00    +0.000 OA
BRANCH  14  16
ATOM     16  C   UNL     1       5.848   4.670  17.966  0.00  0.00    +0.000 A 
ATOM     17  C   UNL     1       5.073   4.539  19.104  0.00  0.00    +0.000 A 
ATOM     18  C   UNL     1       3.750   4.271  18.674  0.00  0.00    +0.000 A 
ATOM     19  C   UNL     1       3.788   4.266  17.300  0.00  0.00    +0.000 A 
ATOM     20  O   UNL     1       5.049   4.503  16.863  0.00  0.00    +0.000 OA
ENDBRANCH  14  16
ENDBRANCH  13  14
ENDBRANCH   2  12
TORSDOF 5
ENDMDL
MODEL 8
REMARK VINA RESULT:      -7.1      1.521      1.919
REMARK  Name = 
REMARK  7 active torsions:
REMARK  status: ('A' for Active; 'I' for Inactive)
REMARK    1  A    between atoms: C_1  and  N_2
REMARK    2  A    between atoms: N_2  and  C_3
REMARK    3  A    between atoms: N_2  and  C_4
REMARK    4  A    between atoms: C_7  and  C_8
REMARK    5  A    between atoms: C_9  and  C_10
REMARK    6  A    between atoms: C_11  and  C_12
REMARK    7  A    between atoms: C_12  and  C_14
REMARK                            x       y       z     vdW  Elec       q    Type
REMARK                         _______ _______ _______ _____ _____    ______ ____
ROOT
ATOM      1  C   UNL     1       9.007   9.990  18.368  0.00  0.00    +0.000 C 
ATOM      2  C   UNL     1       8.106   9.422  17.554  0.00  0.00    +0.000 C 
ENDROOT
BRANCH   1   6
ATOM      3  C   UNL     1      10.494  14.020  17.719  0.00  0.00    +0.000 A 
ATOM      4  C   UNL     1       9.204  13.755  18.206  0.00  0.00    +0.000 A 
ATOM      5  C   UNL     1       8.738  12.448  18.424  0.00  0.00    +0.000 A 
ATOM      6  C   UNL     1       9.550  11.344  18.161  0.00  0.00    +0.000 A 
ATOM      7  C   UNL     1      10.853  11.587  17.727  0.00  0.00    +0.000 A 
ATOM      8  C   UNL     1      11.307  12.896  17.505  0.00  0.00    +0.000 A 
BRANCH   3  10
ATOM      9  C   UNL     1      12.321  15.694  17.781  0.00  0.00    +0.000 C 
ATOM     10  N   UNL     1      10.947  15.314  17.476  0.00  0.00    +0.000 N 
ATOM     11  C   UNL     1       9.992  16.385  17.218  0.00  0.00    +0.000 C 
ENDBRANCH   3  10
ENDBRANCH   1   6
BRANCH   2  12
ATOM     12  C   UNL     1       7.507   8.123  17.789  0.00  0.00    +0.000 C 
ATOM     13  C   UNL     1       8.142   7.197  18.519  0.00  0.00    +0.000 C 
BRANCH  13  14
ATOM     14  C   UNL     1       7.593   5.827  18.757  0.00  0.00    +0.000 C 
ATOM     15  O   UNL     1       7.771   5.263  19.839  0.00  0.00    +0.000 OA
BRANCH  14  16
ATOM     16  C   UNL     1       6.855   5.231  17.659  0.00  0.00    +0.000 A 
ATOM     17  C   UNL     1       7.280   4.632  16.488  0.00  0.00    +0.000 A 
ATOM     18  C   UNL     1       6.116   4.249  15.775  0.00  0.00    +0.000 A 
ATOM     19  C   UNL     1       5.049   4.625  16.556  0.00  0.00    +0.000 A 
ATOM     20  O   UNL     1       5.484   5.220  17.693  0.00  0.00    +0.000 OA
ENDBRANCH  14  16
ENDBRANCH  13  14
ENDBRANCH   2  12
TORSDOF 5
ENDMDL
MODEL 9
REMARK VINA RESULT:      -7.1      6.181      7.358
REMARK  Name = 
REMARK  7 active torsions:
REMARK  status: ('A' for Active; 'I' for Inactive)
REMARK    1  A    between atoms: C_1  and  N_2
REMARK    2  A    between atoms: N_2  and  C_3
REMARK    3  A    between atoms: N_2  and  C_4
REMARK    4  A    between atoms: C_7  and  C_8
REMARK    5  A    between atoms: C_9  and  C_10
REMARK    6  A    between atoms: C_11  and  C_12
REMARK    7  A    between atoms: C_12  and  C_14
REMARK                            x       y       z     vdW  Elec       q    Type
REMARK                         _______ _______ _______ _____ _____    ______ ____
ROOT
ATOM      1  C   UNL     1       2.989   6.979  17.905  0.00  0.00    +0.000 C 
ATOM      2  C   UNL     1       4.324   7.064  17.803  0.00  0.00    +0.000 C 
ENDROOT
BRANCH   1   6
ATOM      3  C   UNL     1       0.491   9.885  19.952  0.00  0.00    +0.000 A 
ATOM      4  C   UNL     1       1.076   8.791  20.607  0.00  0.00    +0.000 A 
ATOM      5  C   UNL     1       1.893   7.863  19.938  0.00  0.00    +0.000 A 
ATOM      6  C   UNL     1       2.159   7.995  18.575  0.00  0.00    +0.000 A 
ATOM      7  C   UNL     1       1.630   9.105  17.915  0.00  0.00    +0.000 A 
ATOM      8  C   UNL     1       0.810  10.022  18.591  0.00  0.00    +0.000 A 
BRANCH   3  10
ATOM      9  C   UNL     1      -0.523  10.725  22.052  0.00  0.00    +0.000 C 
ATOM     10  N   UNL     1      -0.341  10.789  20.607  0.00  0.00    +0.000 N 
ATOM     11  C   UNL     1      -1.283  11.600  19.844  0.00  0.00    +0.000 C 
ENDBRANCH   3  10
ENDBRANCH   1   6
BRANCH   2  12
ATOM     12  C   UNL     1       5.143   6.112  17.082  0.00  0.00    +0.000 C 
ATOM     13  C   UNL     1       6.332   5.726  17.563  0.00  0.00    +0.000 C 
BRANCH  13  14
ATOM     14  C   UNL     1       7.239   4.781  16.841  0.00  0.00    +0.000 C 
ATOM     15  O   UNL     1       8.155   4.215  17.441  0.00  0.00    +0.000 OA
BRANCH  14  16
ATOM     16  C   UNL     1       6.967   4.584  15.429  0.00  0.00    +0.000 A 
ATOM     17  C   UNL     1       6.083   3.747  14.774  0.00  0.00    +0.000 A 
ATOM     18  C   UNL     1       6.264   3.963  13.385  0.00  0.00    +0.000 A 
ATOM     19  C   UNL     1       7.239   4.925  13.271  0.00  0.00    +0.000 A 
ATOM     20  O   UNL     1       7.671   5.304  14.498  0.00  0.00    +0.000 OA
ENDBRANCH  14  16
ENDBRANCH  13  14
ENDBRANCH   2  12
TORSDOF 5
ENDMDL
