MODEL 1
REMARK VINA RESULT:      -7.8      0.000      0.000
REMARK  Name = 
REMARK  3 active torsions:
REMARK  status: ('A' for Active; 'I' for Inactive)
REMARK    1  A    between atoms: C_2  and  C_3
REMARK    2  A    between atoms: C_3  and  C_4
REMARK    3  A    between atoms: C_9  and  N_10
REMARK                            x       y       z     vdW  Elec       q    Type
REMARK                         _______ _______ _______ _____ _____    ______ ____
ROOT
ATOM      1  C   UNL     1       6.529   4.461  15.988  0.00  0.00    +0.000 C 
ATOM      2  O   UNL     1       7.683   4.789  16.274  0.00  0.00    +0.000 OA
ATOM      3  N   UNL     1       5.572   4.189  16.960  0.00  0.00    +0.000 N 
ATOM      4  C   UNL     1       5.933   4.513  18.333  0.00  0.00    +0.000 C 
ATOM      5  C   UNL     1       5.237   3.619  19.354  0.00  0.00    +0.000 C 
ATOM      6  C   UNL     1       3.720   3.590  19.161  0.00  0.00    +0.000 C 
ATOM      7  C   UNL     1       3.465   3.121  17.712  0.00  0.00    +0.000 C 
ATOM      8  C   UNL     1       4.142   4.018  16.686  0.00  0.00    +0.000 C 
ENDROOT
BRANCH   6   9
ATOM      9  N   UNL     1       2.958   4.783  19.518  0.00  0.00    +0.000 N 
ATOM     10  C   UNL     1       2.274   4.876  20.768  0.00  0.00    +0.000 A 
ATOM     11  O   UNL     1       2.162   4.024  21.633  0.00  0.00    +0.000 OA
ATOM     12  N   UNL     1       1.737   6.160  20.850  0.00  0.00    +0.000 N 
ATOM     13  C   UNL     1       2.123   6.886  19.737  0.00  0.00    +0.000 A 
ATOM     14  C   UNL     1       1.827   8.203  19.458  0.00  0.00    +0.000 A 
ATOM     15  C   UNL     1       2.350   8.730  18.276  0.00  0.00    +0.000 A 
ATOM     16  C   UNL     1       3.154   7.942  17.443  0.00  0.00    +0.000 A 
ATOM     17  C   UNL     1       3.452   6.609  17.767  0.00  0.00    +0.000 A 
ATOM     18  C   UNL     1       2.906   6.068  18.915  0.00  0.00    +0.000 A 
ATOM     19  H   UNL     1       1.210   6.491  21.640  0.00  0.00    +0.000 HD
ENDBRANCH   6   9
BRANCH   1  20
ATOM     20  C   UNL     1       6.144   4.311  14.543  0.00  0.00    +0.000 C 
BRANCH  20  22
ATOM     21  N   UNL     1       8.056   5.613  13.001  0.00  0.00    +0.000 NA
ATOM     22  C   UNL     1       7.189   5.023  13.700  0.00  0.00    +0.000 C 
ENDBRANCH  20  22
ENDBRANCH   1  20
TORSDOF 3
ENDMDL
MODEL 2
REMARK VINA RESULT:      -7.5      2.736      6.525
REMARK  Name = 
REMARK  3 active torsions:
REMARK  status: ('A' for Active; 'I' for Inactive)
REMARK    1  A    between atoms: C_2  and  C_3
REMARK    2  A    between atoms: C_3  and  C_4
REMARK    3  A    between atoms: C_9  and  N_10
REMARK                            x       y       z     vdW  Elec       q    Type
REMARK                         _______ _______ _______ _____ _____    ______ ____
ROOT
ATOM      1  C   UNL     1       1.239   8.682  20.797  0.00  0.00    +0.000 C 
ATOM      2  O   UNL     1       1.252   9.802  20.280  0.00  0.00    +0.000 OA
ATOM      3  N   UNL     1       1.647   7.543  20.110  0.00  0.00    +0.000 N 
ATOM      4  C   UNL     1       2.290   7.759  18.822  0.00  0.00    +0.000 C 
ATOM      5  C   UNL     1       2.081   6.597  17.856  0.00  0.00    +0.000 C 
ATOM      6  C   UNL     1       2.482   5.254  18.468  0.00  0.00    +0.000 C 
ATOM      7  C   UNL     1       1.651   5.089  19.759  0.00  0.00    +0.000 C 
ATOM      8  C   UNL     1       1.866   6.236  20.737  0.00  0.00    +0.000 C 
ENDROOT
BRANCH   6   9
ATOM      9  N   UNL     1       3.904   4.984  18.665  0.00  0.00    +0.000 N 
ATOM     10  C   UNL     1       4.349   3.751  19.229  0.00  0.00    +0.000 A 
ATOM     11  O   UNL     1       3.676   2.833  19.668  0.00  0.00    +0.000 OA
ATOM     12  N   UNL     1       5.742   3.758  19.187  0.00  0.00    +0.000 N 
ATOM     13  C   UNL     1       6.173   4.911  18.555  0.00  0.00    +0.000 A 
ATOM     14  C   UNL     1       7.474   5.277  18.286  0.00  0.00    +0.000 A 
ATOM     15  C   UNL     1       7.662   6.485  17.612  0.00  0.00    +0.000 A 
ATOM     16  C   UNL     1       6.562   7.256  17.218  0.00  0.00    +0.000 A 
ATOM     17  C   UNL     1       5.248   6.844  17.491  0.00  0.00    +0.000 A 
ATOM     18  C   UNL     1       5.055   5.669  18.193  0.00  0.00    +0.000 A 
ATOM     19  H   UNL     1       6.311   2.997  19.518  0.00  0.00    +0.000 HD
ENDBRANCH   6   9
BRANCH   1  20
ATOM     20  C   UNL     1       0.732   8.527  22.204  0.00  0.00    +0.000 C 
BRANCH  20  22
ATOM     21  N   UNL     1      -0.424  10.935  22.975  0.00  0.00    +0.000 NA
ATOM     22  C   UNL     1       0.100   9.843  22.626  0.00  0.00    +0.000 C 
ENDBRANCH  20  22
ENDBRANCH   1  20
TORSDOF 3
ENDMDL
MODEL 3
REMARK VINA RESULT:      -7.2      1.104      1.268
REMARK  Name = 
REMARK  3 active torsions:
REMARK  status: ('A' for Active; 'I' for Inactive)
REMARK    1  A    between atoms: C_2  and  C_3
REMARK    2  A    between atoms: C_3  and  C_4
REMARK    3  A    between atoms: C_9  and  N_10
REMARK                            x       y       z     vdW  Elec       q    Type
REMARK                         _______ _______ _______ _____ _____    ______ ____
ROOT
ATOM      1  C   UNL     1       6.987   4.763  17.366  0.00  0.00    +0.000 C 
ATOM      2  O   UNL     1       7.936   4.420  18.075  0.00  0.00    +0.000 OA
ATOM      3  N   UNL     1       5.664   4.555  17.744  0.00  0.00    +0.000 N 
ATOM      4  C   UNL     1       5.445   4.104  19.111  0.00  0.00    +0.000 C 
ATOM      5  C   UNL     1       4.182   3.263  19.259  0.00  0.00    +0.000 C 
ATOM      6  C   UNL     1       2.947   3.965  18.692  0.00  0.00    +0.000 C 
ATOM      7  C   UNL     1       3.258   4.284  17.214  0.00  0.00    +0.000 C 
ATOM      8  C   UNL     1       4.508   5.139  17.057  0.00  0.00    +0.000 C 
ENDROOT
BRANCH   6   9
ATOM      9  N   UNL     1       2.407   5.108  19.423  0.00  0.00    +0.000 N 
ATOM     10  C   UNL     1       2.159   5.037  20.826  0.00  0.00    +0.000 A 
ATOM     11  O   UNL     1       2.275   4.074  21.567  0.00  0.00    +0.000 OA
ATOM     12  N   UNL     1       1.752   6.304  21.238  0.00  0.00    +0.000 N 
ATOM     13  C   UNL     1       1.809   7.172  20.162  0.00  0.00    +0.000 A 
ATOM     14  C   UNL     1       1.519   8.520  20.162  0.00  0.00    +0.000 A 
ATOM     15  C   UNL     1       1.672   9.198  18.952  0.00  0.00    +0.000 A 
ATOM     16  C   UNL     1       2.125   8.521  17.813  0.00  0.00    +0.000 A 
ATOM     17  C   UNL     1       2.431   7.152  17.852  0.00  0.00    +0.000 A 
ATOM     18  C   UNL     1       2.243   6.465  19.036  0.00  0.00    +0.000 A 
ATOM     19  H   UNL     1       1.521   6.530  22.191  0.00  0.00    +0.000 HD
ENDBRANCH   6   9
BRANCH   1  20
ATOM     20  C   UNL     1       7.258   5.395  16.029  0.00  0.00    +0.000 C 
BRANCH  20  22
ATOM     21  N   UNL     1       6.286   3.693  14.057  0.00  0.00    +0.000 NA
ATOM     22  C   UNL     1       6.727   4.464  14.951  0.00  0.00    +0.000 C 
ENDBRANCH  20  22
ENDBRANCH   1  20
TORSDOF 3
ENDMDL
MODEL 4
REMARK VINA RESULT:      -7.1      2.294      2.768
REMARK  Name = 
REMARK  3 active torsions:
REMARK  status: ('A' for Active; 'I' for Inactive)
REMARK    1  A    between atoms: C_2  and  C_3
REMARK    2  A    between atoms: C_3  and  C_4
REMARK    3  A    between atoms: C_9  and  N_10
REMARK                            x       y       z     vdW  Elec       q    Type
REMARK                         _______ _______ _______ _____ _____    ______ ____
ROOT
ATOM      1  C   UNL     1       7.322   6.258  18.200  0.00  0.00    +0.000 C 
ATOM      2  O   UNL     1       8.130   5.773  18.995  0.00  0.00    +0.000 OA
ATOM      3  N   UNL     1       5.967   5.942  18.232  0.00  0.00    +0.000 N 
ATOM      4  C   UNL     1       5.509   5.174  19.382  0.00  0.00    +0.000 C 
ATOM      5  C   UNL     1       4.302   4.299  19.063  0.00  0.00    +0.000 C 
ATOM      6  C   UNL     1       3.161   5.093  18.426  0.00  0.00    +0.000 C 
ATOM      7  C   UNL     1       3.740   5.762  17.160  0.00  0.00    +0.000 C 
ATOM      8  C   UNL     1       4.935   6.652  17.470  0.00  0.00    +0.000 C 
ENDROOT
BRANCH   6   9
ATOM      9  N   UNL     1       2.410   6.019  19.269  0.00  0.00    +0.000 N 
ATOM     10  C   UNL     1       2.117   5.706  20.630  0.00  0.00    +0.000 A 
ATOM     11  O   UNL     1       2.359   4.677  21.238  0.00  0.00    +0.000 OA
ATOM     12  N   UNL     1       1.490   6.821  21.183  0.00  0.00    +0.000 N 
ATOM     13  C   UNL     1       1.449   7.834  20.242  0.00  0.00    +0.000 A 
ATOM     14  C   UNL     1       0.941   9.105  20.407  0.00  0.00    +0.000 A 
ATOM     15  C   UNL     1       1.033   9.967  19.314  0.00  0.00    +0.000 A 
ATOM     16  C   UNL     1       1.638   9.544  18.125  0.00  0.00    +0.000 A 
ATOM     17  C   UNL     1       2.164   8.248  17.996  0.00  0.00    +0.000 A 
ATOM     18  C   UNL     1       2.042   7.375  19.061  0.00  0.00    +0.000 A 
ATOM     19  H   UNL     1       1.185   6.867  22.141  0.00  0.00    +0.000 HD
ENDBRANCH   6   9
BRANCH   1  20
ATOM     20  C   UNL     1       7.812   7.196  17.132  0.00  0.00    +0.000 C 
BRANCH  20  22
ATOM     21  N   UNL     1       8.485   9.607  18.342  0.00  0.00    +0.000 NA
ATOM     22  C   UNL     1       8.180   8.514  17.794  0.00  0.00    +0.000 C 
ENDBRANCH  20  22
ENDBRANCH   1  20
TORSDOF 3
ENDMDL
MODEL 5
REMARK VINA RESULT:      -6.9      1.748      1.944
REMARK  Name = 
REMARK  3 active torsions:
REMARK  status: ('A' for Active; 'I' for Inactive)
REMARK    1  A    between atoms: C_2  and  C_3
REMARK    2  A    between atoms: C_3  and  C_4
REMARK    3  A    between atoms: C_9  and  N_10
REMARK                            x       y       z     vdW  Elec       q    Type
REMARK                         _______ _______ _______ _____ _____    ______ ____
ROOT
ATOM      1  C   UNL     1       7.024   4.880  17.760  0.00  0.00    +0.000 C 
ATOM      2  O   UNL     1       7.888   4.397  18.496  0.00  0.00    +0.000 OA
ATOM      3  N   UNL     1       5.664   4.694  17.989  0.00  0.00    +0.000 N 
ATOM      4  C   UNL     1       5.300   4.078  19.258  0.00  0.00    +0.000 C 
ATOM      5  C   UNL     1       3.995   3.292  19.179  0.00  0.00    +0.000 C 
ATOM      6  C   UNL     1       2.849   4.127  18.608  0.00  0.00    +0.000 C 
ATOM      7  C   UNL     1       3.310   4.622  17.219  0.00  0.00    +0.000 C 
ATOM      8  C   UNL     1       4.602   5.423  17.290  0.00  0.00    +0.000 C 
ENDROOT
BRANCH   6   9
ATOM      9  N   UNL     1       2.289   5.190  19.437  0.00  0.00    +0.000 N 
ATOM     10  C   UNL     1       2.058   4.995  20.832  0.00  0.00    +0.000 A 
ATOM     11  O   UNL     1       2.207   3.976  21.487  0.00  0.00    +0.000 OA
ATOM     12  N   UNL     1       1.625   6.212  21.353  0.00  0.00    +0.000 N 
ATOM     13  C   UNL     1       1.649   7.169  20.354  0.00  0.00    +0.000 A 
ATOM     14  C   UNL     1       1.326   8.504  20.471  0.00  0.00    +0.000 A 
ATOM     15  C   UNL     1       1.449   9.285  19.320  0.00  0.00    +0.000 A 
ATOM     16  C   UNL     1       1.905   8.719  18.124  0.00  0.00    +0.000 A 
ATOM     17  C   UNL     1       2.245   7.359  18.044  0.00  0.00    +0.000 A 
ATOM     18  C   UNL     1       2.088   6.570  19.168  0.00  0.00    +0.000 A 
ATOM     19  H   UNL     1       1.400   6.351  22.324  0.00  0.00    +0.000 HD
ENDBRANCH   6   9
BRANCH   1  20
ATOM     20  C   UNL     1       7.444   5.668  16.551  0.00  0.00    +0.000 C 
BRANCH  20  22
ATOM     21  N   UNL     1       7.719   8.329  17.307  0.00  0.00    +0.000 NA
ATOM     22  C   UNL     1       7.594   7.123  16.964  0.00  0.00    +0.000 C 
ENDBRANCH  20  22
ENDBRANCH   1  20
TORSDOF 3
ENDMDL
MODEL 6
REMARK VINA RESULT:      -6.8      1.045      1.080
REMARK  Name = 
REMARK  3 active torsions:
REMARK  status: ('A' for Active; 'I' for Inactive)
REMARK    1  A    between atoms: C_2  and  C_3
REMARK    2  A    between atoms: C_3  and  C_4
REMARK    3  A    between atoms: C_9  and  N_10
REMARK                            x       y       z     vdW  Elec       q    Type
REMARK                         _______ _______ _______ _____ _____    ______ ____
ROOT
ATOM      1  C   UNL     1       6.725   4.382  16.738  0.00  0.00    +0.000 C 
ATOM      2  O   UNL     1       7.840   4.431  17.264  0.00  0.00    +0.000 OA
ATOM      3  N   UNL     1       5.574   4.092  17.464  0.00  0.00    +0.000 N 
ATOM      4  C   UNL     1       5.715   4.055  18.913  0.00  0.00    +0.000 C 
ATOM      5  C   UNL     1       4.721   3.109  19.579  0.00  0.00    +0.000 C 
ATOM      6  C   UNL     1       3.278   3.394  19.159  0.00  0.00    +0.000 C 
ATOM      7  C   UNL     1       3.235   3.288  17.619  0.00  0.00    +0.000 C 
ATOM      8  C   UNL     1       4.211   4.241  16.945  0.00  0.00    +0.000 C 
ENDROOT
BRANCH   6   9
ATOM      9  N   UNL     1       2.639   4.605  19.667  0.00  0.00    +0.000 N 
ATOM     10  C   UNL     1       2.129   4.668  20.998  0.00  0.00    +0.000 A 
ATOM     11  O   UNL     1       2.081   3.780  21.832  0.00  0.00    +0.000 OA
ATOM     12  N   UNL     1       1.683   5.972  21.207  0.00  0.00    +0.000 N 
ATOM     13  C   UNL     1       1.963   6.734  20.087  0.00  0.00    +0.000 A 
ATOM     14  C   UNL     1       1.711   8.077  19.909  0.00  0.00    +0.000 A 
ATOM     15  C   UNL     1       2.105   8.637  18.692  0.00  0.00    +0.000 A 
ATOM     16  C   UNL     1       2.748   7.853  17.727  0.00  0.00    +0.000 A 
ATOM     17  C   UNL     1       3.007   6.491  17.948  0.00  0.00    +0.000 A 
ATOM     18  C   UNL     1       2.584   5.920  19.133  0.00  0.00    +0.000 A 
ATOM     19  H   UNL     1       1.283   6.289  22.075  0.00  0.00    +0.000 HD
ENDBRANCH   6   9
BRANCH   1  20
ATOM     20  C   UNL     1       6.599   4.605  15.257  0.00  0.00    +0.000 C 
BRANCH  20  22
ATOM     21  N   UNL     1       5.124   6.928  14.857  0.00  0.00    +0.000 NA
ATOM     22  C   UNL     1       5.793   5.875  15.038  0.00  0.00    +0.000 C 
ENDBRANCH  20  22
ENDBRANCH   1  20
TORSDOF 3
ENDMDL
MODEL 7
REMARK VINA RESULT:      -6.7      2.955      3.719
REMARK  Name = 
REMARK  3 active torsions:
REMARK  status: ('A' for Active; 'I' for Inactive)
REMARK    1  A    between atoms: C_2  and  C_3
REMARK    2  A    between atoms: C_3  and  C_4
REMARK    3  A    between atoms: C_9  and  N_10
REMARK                            x       y       z     vdW  Elec       q    Type
REMARK                         _______ _______ _______ _____ _____    ______ ____
ROOT
ATOM      1  C   UNL     1       7.609   7.360  18.044  0.00  0.00    +0.000 C 
ATOM      2  O   UNL     1       8.600   7.055  18.713  0.00  0.00    +0.000 OA
ATOM      3  N   UNL     1       6.676   6.416  17.626  0.00  0.00    +0.000 N 
ATOM      4  C   UNL     1       6.809   5.081  18.192  0.00  0.00    +0.000 C 
ATOM      5  C   UNL     1       6.290   3.991  17.260  0.00  0.00    +0.000 C 
ATOM      6  C   UNL     1       4.862   4.264  16.786  0.00  0.00    +0.000 C 
ATOM      7  C   UNL     1       4.878   5.649  16.103  0.00  0.00    +0.000 C 
ATOM      8  C   UNL     1       5.377   6.746  17.032  0.00  0.00    +0.000 C 
ENDROOT
BRANCH   6   9
ATOM      9  N   UNL     1       3.775   4.114  17.750  0.00  0.00    +0.000 N 
ATOM     10  C   UNL     1       3.316   2.824  18.149  0.00  0.00    +0.000 A 
ATOM     11  O   UNL     1       3.671   1.732  17.735  0.00  0.00    +0.000 OA
ATOM     12  N   UNL     1       2.358   3.016  19.143  0.00  0.00    +0.000 N 
ATOM     13  C   UNL     1       2.259   4.368  19.424  0.00  0.00    +0.000 A 
ATOM     14  C   UNL     1       1.451   4.966  20.367  0.00  0.00    +0.000 A 
ATOM     15  C   UNL     1       1.542   6.354  20.486  0.00  0.00    +0.000 A 
ATOM     16  C   UNL     1       2.439   7.076  19.690  0.00  0.00    +0.000 A 
ATOM     17  C   UNL     1       3.262   6.434  18.752  0.00  0.00    +0.000 A 
ATOM     18  C   UNL     1       3.150   5.064  18.600  0.00  0.00    +0.000 A 
ATOM     19  H   UNL     1       1.879   2.262  19.605  0.00  0.00    +0.000 HD
ENDBRANCH   6   9
BRANCH   1  20
ATOM     20  C   UNL     1       7.413   8.792  17.630  0.00  0.00    +0.000 C 
BRANCH  20  22
ATOM     21  N   UNL     1       9.360  10.329  18.888  0.00  0.00    +0.000 NA
ATOM     22  C   UNL     1       8.478   9.632  18.318  0.00  0.00    +0.000 C 
ENDBRANCH  20  22
ENDBRANCH   1  20
TORSDOF 3
ENDMDL
MODEL 8
REMARK VINA RESULT:      -6.6      2.639      4.144
REMARK  Name = 
REMARK  3 active torsions:
REMARK  status: ('A' for Active; 'I' for Inactive)
REMARK    1  A    between atoms: C_2  and  C_3
REMARK    2  A    between atoms: C_3  and  C_4
REMARK    3  A    between atoms: C_9  and  N_10
REMARK                            x       y       z     vdW  Elec       q    Type
REMARK                         _______ _______ _______ _____ _____    ______ ____
ROOT
ATOM      1  C   UNL     1       7.532   4.970  18.019  0.00  0.00    +0.000 C 
ATOM      2  O   UNL     1       8.309   4.277  17.358  0.00  0.00    +0.000 OA
ATOM      3  N   UNL     1       6.155   4.938  17.820  0.00  0.00    +0.000 N 
ATOM      4  C   UNL     1       5.653   3.892  16.940  0.00  0.00    +0.000 C 
ATOM      5  C   UNL     1       4.365   4.289  16.226  0.00  0.00    +0.000 C 
ATOM      6  C   UNL     1       3.288   4.773  17.198  0.00  0.00    +0.000 C 
ATOM      7  C   UNL     1       3.900   5.952  17.987  0.00  0.00    +0.000 C 
ATOM      8  C   UNL     1       5.176   5.560  18.717  0.00  0.00    +0.000 C 
ENDROOT
BRANCH   6   9
ATOM      9  N   UNL     1       2.641   3.785  18.058  0.00  0.00    +0.000 N 
ATOM     10  C   UNL     1       2.307   2.487  17.569  0.00  0.00    +0.000 A 
ATOM     11  O   UNL     1       2.429   2.051  16.436  0.00  0.00    +0.000 OA
ATOM     12  N   UNL     1       1.806   1.757  18.645  0.00  0.00    +0.000 N 
ATOM     13  C   UNL     1       1.884   2.527  19.792  0.00  0.00    +0.000 A 
ATOM     14  C   UNL     1       1.521   2.157  21.070  0.00  0.00    +0.000 A 
ATOM     15  C   UNL     1       1.714   3.103  22.078  0.00  0.00    +0.000 A 
ATOM     16  C   UNL     1       2.275   4.351  21.782  0.00  0.00    +0.000 A 
ATOM     17  C   UNL     1       2.653   4.688  20.473  0.00  0.00    +0.000 A 
ATOM     18  C   UNL     1       2.428   3.773  19.462  0.00  0.00    +0.000 A 
ATOM     19  H   UNL     1       1.503   0.801  18.573  0.00  0.00    +0.000 HD
ENDBRANCH   6   9
BRANCH   1  20
ATOM     20  C   UNL     1       8.083   5.913  19.052  0.00  0.00    +0.000 C 
BRANCH  20  22
ATOM     21  N   UNL     1       8.141   8.464  17.947  0.00  0.00    +0.000 NA
ATOM     22  C   UNL     1       8.115   7.308  18.448  0.00  0.00    +0.000 C 
ENDBRANCH  20  22
ENDBRANCH   1  20
TORSDOF 3
ENDMDL
MODEL 9
REMARK VINA RESULT:      -6.6      2.748      6.190
REMARK  Name = 
REMARK  3 active torsions:
REMARK  status: ('A' for Active; 'I' for Inactive)
REMARK    1  A    between atoms: C_2  and  C_3
REMARK    2  A    between atoms: C_3  and  C_4
REMARK    3  A    between atoms: C_9  and  N_10
REMARK                            x       y       z     vdW  Elec       q    Type
REMARK                         _______ _______ _______ _____ _____    ______ ____
ROOT
ATOM      1  C   UNL     1       1.371   9.233  19.485  0.00  0.00    +0.000 C 
ATOM      2  O   UNL     1       1.262   9.992  18.519  0.00  0.00    +0.000 OA
ATOM      3  N   UNL     1       1.718   7.893  19.340  0.00  0.00    +0.000 N 
ATOM      4  C   UNL     1       2.152   7.476  18.014  0.00  0.00    +0.000 C 
ATOM      5  C   UNL     1       1.850   6.009  17.728  0.00  0.00    +0.000 C 
ATOM      6  C   UNL     1       2.392   5.082  18.817  0.00  0.00    +0.000 C 
ATOM      7  C   UNL     1       1.769   5.551  20.150  0.00  0.00    +0.000 C 
ATOM      8  C   UNL     1       2.081   7.010  20.453  0.00  0.00    +0.000 C 
ENDROOT
BRANCH   6   9
ATOM      9  N   UNL     1       3.837   4.885  18.898  0.00  0.00    +0.000 N 
ATOM     10  C   UNL     1       4.390   3.715  19.498  0.00  0.00    +0.000 A 
ATOM     11  O   UNL     1       3.803   2.803  20.057  0.00  0.00    +0.000 OA
ATOM     12  N   UNL     1       5.771   3.777  19.327  0.00  0.00    +0.000 N 
ATOM     13  C   UNL     1       6.088   4.900  18.583  0.00  0.00    +0.000 A 
ATOM     14  C   UNL     1       7.340   5.301  18.171  0.00  0.00    +0.000 A 
ATOM     15  C   UNL     1       7.409   6.465  17.405  0.00  0.00    +0.000 A 
ATOM     16  C   UNL     1       6.242   7.160  17.065  0.00  0.00    +0.000 A 
ATOM     17  C   UNL     1       4.980   6.714  17.484  0.00  0.00    +0.000 A 
ATOM     18  C   UNL     1       4.906   5.584  18.277  0.00  0.00    +0.000 A 
ATOM     19  H   UNL     1       6.403   3.065  19.653  0.00  0.00    +0.000 HD
ENDBRANCH   6   9
BRANCH   1  20
ATOM     20  C   UNL     1       1.086   9.753  20.866  0.00  0.00    +0.000 C 
BRANCH  20  22
ATOM     21  N   UNL     1      -0.129  12.242  20.617  0.00  0.00    +0.000 NA
ATOM     22  C   UNL     1       0.422  11.114  20.730  0.00  0.00    +0.000 C 
ENDBRANCH  20  22
ENDBRANCH   1  20
TORSDOF 3
ENDMDL
