MODEL 1
REMARK VINA RESULT:      -7.9      0.000      0.000
REMARK  Name = 
REMARK  4 active torsions:
REMARK  status: ('A' for Active; 'I' for Inactive)
REMARK    1  A    between atoms: C_4  and  C_5
REMARK    2  A    between atoms: C_5  and  C_6
REMARK    3  A    between atoms: C_6  and  C_7
REMARK    4  A    between atoms: N_9  and  C_10
REMARK                            x       y       z     vdW  Elec       q    Type
REMARK                         _______ _______ _______ _____ _____    ______ ____
ROOT
ATOM      1  C   UNL     1       4.993   6.202  17.446  0.00  0.00    +0.000 C 
ATOM      2  C   UNL     1       4.919   4.949  16.543  0.00  0.00    +0.000 C 
ATOM      3  N   UNL     1       6.252   4.642  15.998  0.00  0.00    +0.000 N 
ATOM      4  C   UNL     1       7.299   4.526  17.024  0.00  0.00    +0.000 C 
ATOM      5  C   UNL     1       7.288   5.794  17.893  0.00  0.00    +0.000 C 
ATOM      6  O   UNL     1       5.994   6.028  18.473  0.00  0.00    +0.000 OA
ENDROOT
BRANCH   3   7
ATOM      7  C   UNL     1       6.517   4.511  14.652  0.00  0.00    +0.000 A 
ATOM      8  C   UNL     1       7.522   5.256  14.018  0.00  0.00    +0.000 A 
ATOM      9  C   UNL     1       7.796   5.122  12.651  0.00  0.00    +0.000 A 
ATOM     10  C   UNL     1       7.063   4.232  11.876  0.00  0.00    +0.000 A 
ATOM     11  C   UNL     1       6.061   3.478  12.472  0.00  0.00    +0.000 A 
ATOM     12  C   UNL     1       5.797   3.618  13.841  0.00  0.00    +0.000 A 
ENDBRANCH   3   7
BRANCH   1  13
ATOM     13  C   UNL     1       3.646   6.463  18.137  0.00  0.00    +0.000 C 
BRANCH  13  14
ATOM     14  C   UNL     1       2.599   5.411  17.753  0.00  0.00    +0.000 C 
BRANCH  14  18
ATOM     15  C   UNL     1       1.310   3.016  21.104  0.00  0.00    +0.000 A 
ATOM     16  C   UNL     1       0.887   2.701  19.816  0.00  0.00    +0.000 A 
ATOM     17  C   UNL     1       1.296   3.485  18.734  0.00  0.00    +0.000 A 
ATOM     18  C   UNL     1       2.137   4.588  18.932  0.00  0.00    +0.000 A 
ATOM     19  C   UNL     1       2.548   4.901  20.233  0.00  0.00    +0.000 A 
ATOM     20  C   UNL     1       2.139   4.118  21.315  0.00  0.00    +0.000 A 
ENDBRANCH  14  18
ENDBRANCH  13  14
ENDBRANCH   1  13
TORSDOF 4
ENDMDL
MODEL 2
REMARK VINA RESULT:      -7.9      0.027      1.079
REMARK  Name = 
REMARK  4 active torsions:
REMARK  status: ('A' for Active; 'I' for Inactive)
REMARK    1  A    between atoms: C_4  and  C_5
REMARK    2  A    between atoms: C_5  and  C_6
REMARK    3  A    between atoms: C_6  and  C_7
REMARK    4  A    between atoms: N_9  and  C_10
REMARK                            x       y       z     vdW  Elec       q    Type
REMARK                         _______ _______ _______ _____ _____    ______ ____
ROOT
ATOM      1  C   UNL     1       4.984   6.222  17.453  0.00  0.00    +0.000 C 
ATOM      2  C   UNL     1       4.904   4.966  16.554  0.00  0.00    +0.000 C 
ATOM      3  N   UNL     1       6.236   4.651  16.011  0.00  0.00    +0.000 N 
ATOM      4  C   UNL     1       7.282   4.533  17.036  0.00  0.00    +0.000 C 
ATOM      5  C   UNL     1       7.277   5.804  17.901  0.00  0.00    +0.000 C 
ATOM      6  O   UNL     1       5.984   6.047  18.480  0.00  0.00    +0.000 OA
ENDROOT
BRANCH   3   7
ATOM      7  C   UNL     1       6.499   4.513  14.664  0.00  0.00    +0.000 A 
ATOM      8  C   UNL     1       7.517   5.241  14.031  0.00  0.00    +0.000 A 
ATOM      9  C   UNL     1       7.791   5.101  12.665  0.00  0.00    +0.000 A 
ATOM     10  C   UNL     1       7.044   4.223  11.890  0.00  0.00    +0.000 A 
ATOM     11  C   UNL     1       6.029   3.486  12.485  0.00  0.00    +0.000 A 
ATOM     12  C   UNL     1       5.765   3.632  13.854  0.00  0.00    +0.000 A 
ENDBRANCH   3   7
BRANCH   1  13
ATOM     13  C   UNL     1       3.638   6.493  18.143  0.00  0.00    +0.000 C 
BRANCH  13  14
ATOM     14  C   UNL     1       2.584   5.449  17.756  0.00  0.00    +0.000 C 
BRANCH  14  18
ATOM     15  C   UNL     1       1.314   3.050  21.111  0.00  0.00    +0.000 A 
ATOM     16  C   UNL     1       2.145   4.149  21.312  0.00  0.00    +0.000 A 
ATOM     17  C   UNL     1       2.563   4.917  20.223  0.00  0.00    +0.000 A 
ATOM     18  C   UNL     1       2.150   4.595  18.923  0.00  0.00    +0.000 A 
ATOM     19  C   UNL     1       1.323   3.482  18.732  0.00  0.00    +0.000 A 
ATOM     20  C   UNL     1       0.904   2.713  19.821  0.00  0.00    +0.000 A 
ENDBRANCH  14  18
ENDBRANCH  13  14
ENDBRANCH   1  13
TORSDOF 4
ENDMDL
MODEL 3
REMARK VINA RESULT:      -7.9      0.044      1.520
REMARK  Name = 
REMARK  4 active torsions:
REMARK  status: ('A' for Active; 'I' for Inactive)
REMARK    1  A    between atoms: C_4  and  C_5
REMARK    2  A    between atoms: C_5  and  C_6
REMARK    3  A    between atoms: C_6  and  C_7
REMARK    4  A    between atoms: N_9  and  C_10
REMARK                            x       y       z     vdW  Elec       q    Type
REMARK                         _______ _______ _______ _____ _____    ______ ____
ROOT
ATOM      1  C   UNL     1       4.974   6.224  17.431  0.00  0.00    +0.000 C 
ATOM      2  C   UNL     1       4.886   4.965  16.537  0.00  0.00    +0.000 C 
ATOM      3  N   UNL     1       6.217   4.637  15.999  0.00  0.00    +0.000 N 
ATOM      4  C   UNL     1       7.259   4.514  17.029  0.00  0.00    +0.000 C 
ATOM      5  C   UNL     1       7.261   5.788  17.889  0.00  0.00    +0.000 C 
ATOM      6  O   UNL     1       5.969   6.044  18.463  0.00  0.00    +0.000 OA
ENDROOT
BRANCH   3   7
ATOM      7  C   UNL     1       6.484   4.492  14.655  0.00  0.00    +0.000 A 
ATOM      8  C   UNL     1       5.761   3.601  13.848  0.00  0.00    +0.000 A 
ATOM      9  C   UNL     1       6.025   3.453  12.481  0.00  0.00    +0.000 A 
ATOM     10  C   UNL     1       7.032   4.199  11.881  0.00  0.00    +0.000 A 
ATOM     11  C   UNL     1       7.767   5.092  12.650  0.00  0.00    +0.000 A 
ATOM     12  C   UNL     1       7.491   5.232  14.017  0.00  0.00    +0.000 A 
ENDBRANCH   3   7
BRANCH   1  13
ATOM     13  C   UNL     1       3.628   6.508  18.116  0.00  0.00    +0.000 C 
BRANCH  13  14
ATOM     14  C   UNL     1       2.566   5.472  17.728  0.00  0.00    +0.000 C 
BRANCH  14  18
ATOM     15  C   UNL     1       1.310   3.051  21.074  0.00  0.00    +0.000 A 
ATOM     16  C   UNL     1       2.147   4.145  21.277  0.00  0.00    +0.000 A 
ATOM     17  C   UNL     1       2.561   4.920  20.191  0.00  0.00    +0.000 A 
ATOM     18  C   UNL     1       2.137   4.611  18.892  0.00  0.00    +0.000 A 
ATOM     19  C   UNL     1       1.304   3.502  18.698  0.00  0.00    +0.000 A 
ATOM     20  C   UNL     1       0.890   2.727  19.784  0.00  0.00    +0.000 A 
ENDBRANCH  14  18
ENDBRANCH  13  14
ENDBRANCH   1  13
TORSDOF 4
ENDMDL
MODEL 4
REMARK VINA RESULT:      -7.8      0.384      1.137
REMARK  Name = 
REMARK  4 active torsions:
REMARK  status: ('A' for Active; 'I' for Inactive)
REMARK    1  A    between atoms: C_4  and  C_5
REMARK    2  A    between atoms: C_5  and  C_6
REMARK    3  A    between atoms: C_6  and  C_7
REMARK    4  A    between atoms: N_9  and  C_10
REMARK                            x       y       z     vdW  Elec       q    Type
REMARK                         _______ _______ _______ _____ _____    ______ ____
ROOT
ATOM      1  C   UNL     1       5.087   6.244  17.499  0.00  0.00    +0.000 C 
ATOM      2  C   UNL     1       5.007   4.973  16.621  0.00  0.00    +0.000 C 
ATOM      3  N   UNL     1       6.326   4.683  16.035  0.00  0.00    +0.000 N 
ATOM      4  C   UNL     1       7.411   4.607  17.024  0.00  0.00    +0.000 C 
ATOM      5  C   UNL     1       7.404   5.890  17.871  0.00  0.00    +0.000 C 
ATOM      6  O   UNL     1       6.127   6.109  18.492  0.00  0.00    +0.000 OA
ENDROOT
BRANCH   3   7
ATOM      7  C   UNL     1       6.545   4.532  14.683  0.00  0.00    +0.000 A 
ATOM      8  C   UNL     1       5.763   3.672  13.897  0.00  0.00    +0.000 A 
ATOM      9  C   UNL     1       5.979   3.519  12.522  0.00  0.00    +0.000 A 
ATOM     10  C   UNL     1       6.995   4.227  11.892  0.00  0.00    +0.000 A 
ATOM     11  C   UNL     1       7.787   5.088  12.640  0.00  0.00    +0.000 A 
ATOM     12  C   UNL     1       7.560   5.235  14.015  0.00  0.00    +0.000 A 
ENDBRANCH   3   7
BRANCH   1  13
ATOM     13  C   UNL     1       3.760   6.491  18.233  0.00  0.00    +0.000 C 
BRANCH  13  14
ATOM     14  C   UNL     1       2.621   5.651  17.643  0.00  0.00    +0.000 C 
BRANCH  14  18
ATOM     15  C   UNL     1       1.011   2.817  20.472  0.00  0.00    +0.000 A 
ATOM     16  C   UNL     1       1.123   2.476  19.127  0.00  0.00    +0.000 A 
ATOM     17  C   UNL     1       1.634   3.399  18.211  0.00  0.00    +0.000 A 
ATOM     18  C   UNL     1       2.042   4.671  18.635  0.00  0.00    +0.000 A 
ATOM     19  C   UNL     1       1.915   5.007  19.988  0.00  0.00    +0.000 A 
ATOM     20  C   UNL     1       1.404   4.084  20.904  0.00  0.00    +0.000 A 
ENDBRANCH  14  18
ENDBRANCH  13  14
ENDBRANCH   1  13
TORSDOF 4
ENDMDL
MODEL 5
REMARK VINA RESULT:      -7.7      3.712      7.479
REMARK  Name = 
REMARK  4 active torsions:
REMARK  status: ('A' for Active; 'I' for Inactive)
REMARK    1  A    between atoms: C_4  and  C_5
REMARK    2  A    between atoms: C_5  and  C_6
REMARK    3  A    between atoms: C_6  and  C_7
REMARK    4  A    between atoms: N_9  and  C_10
REMARK                            x       y       z     vdW  Elec       q    Type
REMARK                         _______ _______ _______ _____ _____    ______ ____
ROOT
ATOM      1  C   UNL     1       7.092   7.010  17.462  0.00  0.00    +0.000 C 
ATOM      2  C   UNL     1       6.499   5.933  18.400  0.00  0.00    +0.000 C 
ATOM      3  N   UNL     1       5.622   5.029  17.637  0.00  0.00    +0.000 N 
ATOM      4  C   UNL     1       6.264   4.441  16.452  0.00  0.00    +0.000 C 
ATOM      5  C   UNL     1       6.849   5.571  15.590  0.00  0.00    +0.000 C 
ATOM      6  O   UNL     1       7.759   6.393  16.339  0.00  0.00    +0.000 OA
ENDROOT
BRANCH   3   7
ATOM      7  C   UNL     1       4.309   4.777  17.970  0.00  0.00    +0.000 A 
ATOM      8  C   UNL     1       3.659   5.474  19.000  0.00  0.00    +0.000 A 
ATOM      9  C   UNL     1       2.323   5.224  19.339  0.00  0.00    +0.000 A 
ATOM     10  C   UNL     1       1.598   4.260  18.651  0.00  0.00    +0.000 A 
ATOM     11  C   UNL     1       2.210   3.553  17.624  0.00  0.00    +0.000 A 
ATOM     12  C   UNL     1       3.546   3.813  17.293  0.00  0.00    +0.000 A 
ENDBRANCH   3   7
BRANCH   1  13
ATOM     13  C   UNL     1       8.118   7.882  18.202  0.00  0.00    +0.000 C 
BRANCH  13  14
ATOM     14  C   UNL     1       8.093   9.332  17.705  0.00  0.00    +0.000 C 
BRANCH  14  18
ATOM     15  C   UNL     1      10.930  11.816  19.805  0.00  0.00    +0.000 A 
ATOM     16  C   UNL     1       9.990  11.073  20.515  0.00  0.00    +0.000 A 
ATOM     17  C   UNL     1       9.065  10.280  19.832  0.00  0.00    +0.000 A 
ATOM     18  C   UNL     1       9.076  10.217  18.432  0.00  0.00    +0.000 A 
ATOM     19  C   UNL     1      10.019  10.976  17.728  0.00  0.00    +0.000 A 
ATOM     20  C   UNL     1      10.944  11.770  18.411  0.00  0.00    +0.000 A 
ENDBRANCH  14  18
ENDBRANCH  13  14
ENDBRANCH   1  13
TORSDOF 4
ENDMDL
MODEL 6
REMARK VINA RESULT:      -7.6      3.751      7.685
REMARK  Name = 
REMARK  4 active torsions:
REMARK  status: ('A' for Active; 'I' for Inactive)
REMARK    1  A    between atoms: C_4  and  C_5
REMARK    2  A    between atoms: C_5  and  C_6
REMARK    3  A    between atoms: C_6  and  C_7
REMARK    4  A    between atoms: N_9  and  C_10
REMARK                            x       y       z     vdW  Elec       q    Type
REMARK                         _______ _______ _______ _____ _____    ______ ____
ROOT
ATOM      1  C   UNL     1       7.131   6.995  17.638  0.00  0.00    +0.000 C 
ATOM      2  C   UNL     1       6.667   5.914  18.642  0.00  0.00    +0.000 C 
ATOM      3  N   UNL     1       5.698   5.012  17.997  0.00  0.00    +0.000 N 
ATOM      4  C   UNL     1       6.179   4.429  16.736  0.00  0.00    +0.000 C 
ATOM      5  C   UNL     1       6.646   5.563  15.809  0.00  0.00    +0.000 C 
ATOM      6  O   UNL     1       7.646   6.382  16.436  0.00  0.00    +0.000 OA
ENDROOT
BRANCH   3   7
ATOM      7  C   UNL     1       4.439   4.758  18.498  0.00  0.00    +0.000 A 
ATOM      8  C   UNL     1       3.685   3.652  18.080  0.00  0.00    +0.000 A 
ATOM      9  C   UNL     1       2.407   3.388  18.589  0.00  0.00    +0.000 A 
ATOM     10  C   UNL     1       1.846   4.234  19.537  0.00  0.00    +0.000 A 
ATOM     11  C   UNL     1       2.566   5.338  19.975  0.00  0.00    +0.000 A 
ATOM     12  C   UNL     1       3.844   5.591  19.459  0.00  0.00    +0.000 A 
ENDBRANCH   3   7
BRANCH   1  13
ATOM     13  C   UNL     1       8.245   7.865  18.242  0.00  0.00    +0.000 C 
BRANCH  13  14
ATOM     14  C   UNL     1       8.087   9.339  17.850  0.00  0.00    +0.000 C 
BRANCH  14  18
ATOM     15  C   UNL     1      10.998  11.855  19.805  0.00  0.00    +0.000 A 
ATOM     16  C   UNL     1      10.040  11.179  20.557  0.00  0.00    +0.000 A 
ATOM     17  C   UNL     1       9.092  10.375  19.921  0.00  0.00    +0.000 A 
ATOM     18  C   UNL     1       9.097  10.234  18.526  0.00  0.00    +0.000 A 
ATOM     19  C   UNL     1      10.058  10.927  17.780  0.00  0.00    +0.000 A 
ATOM     20  C   UNL     1      11.007  11.732  18.416  0.00  0.00    +0.000 A 
ENDBRANCH  14  18
ENDBRANCH  13  14
ENDBRANCH   1  13
TORSDOF 4
ENDMDL
MODEL 7
REMARK VINA RESULT:      -7.6      3.725      7.517
REMARK  Name = 
REMARK  4 active torsions:
REMARK  status: ('A' for Active; 'I' for Inactive)
REMARK    1  A    between atoms: C_4  and  C_5
REMARK    2  A    between atoms: C_5  and  C_6
REMARK    3  A    between atoms: C_6  and  C_7
REMARK    4  A    between atoms: N_9  and  C_10
REMARK                            x       y       z     vdW  Elec       q    Type
REMARK                         _______ _______ _______ _____ _____    ______ ____
ROOT
ATOM      1  C   UNL     1       7.150   6.946  17.525  0.00  0.00    +0.000 C 
ATOM      2  C   UNL     1       6.640   5.820  18.455  0.00  0.00    +0.000 C 
ATOM      3  N   UNL     1       5.760   4.908  17.705  0.00  0.00    +0.000 N 
ATOM      4  C   UNL     1       6.365   4.380  16.474  0.00  0.00    +0.000 C 
ATOM      5  C   UNL     1       6.870   5.556  15.622  0.00  0.00    +0.000 C 
ATOM      6  O   UNL     1       7.785   6.387  16.354  0.00  0.00    +0.000 OA
ENDROOT
BRANCH   3   7
ATOM      7  C   UNL     1       4.473   4.600  18.089  0.00  0.00    +0.000 A 
ATOM      8  C   UNL     1       4.165   3.405  18.756  0.00  0.00    +0.000 A 
ATOM      9  C   UNL     1       2.860   3.089  19.152  0.00  0.00    +0.000 A 
ATOM     10  C   UNL     1       1.818   3.969  18.886  0.00  0.00    +0.000 A 
ATOM     11  C   UNL     1       2.087   5.162  18.229  0.00  0.00    +0.000 A 
ATOM     12  C   UNL     1       3.398   5.468  17.839  0.00  0.00    +0.000 A 
ENDBRANCH   3   7
BRANCH   1  13
ATOM     13  C   UNL     1       8.179   7.831  18.245  0.00  0.00    +0.000 C 
BRANCH  13  14
ATOM     14  C   UNL     1       8.021   9.307  17.864  0.00  0.00    +0.000 C 
BRANCH  14  18
ATOM     15  C   UNL     1      10.959  11.884  19.696  0.00  0.00    +0.000 A 
ATOM     16  C   UNL     1      10.906  11.757  18.311  0.00  0.00    +0.000 A 
ATOM     17  C   UNL     1       9.962  10.914  17.721  0.00  0.00    +0.000 A 
ATOM     18  C   UNL     1       9.058  10.193  18.513  0.00  0.00    +0.000 A 
ATOM     19  C   UNL     1       9.127  10.320  19.905  0.00  0.00    +0.000 A 
ATOM     20  C   UNL     1      10.071  11.164  20.495  0.00  0.00    +0.000 A 
ENDBRANCH  14  18
ENDBRANCH  13  14
ENDBRANCH   1  13
TORSDOF 4
ENDMDL
MODEL 8
REMARK VINA RESULT:      -7.4      3.674      7.366
REMARK  Name = 
REMARK  4 active torsions:
REMARK  status: ('A' for Active; 'I' for Inactive)
REMARK    1  A    between atoms: C_4  and  C_5
REMARK    2  A    between atoms: C_5  and  C_6
REMARK    3  A    between atoms: C_6  and  C_7
REMARK    4  A    between atoms: N_9  and  C_10
REMARK                            x       y       z     vdW  Elec       q    Type
REMARK                         _______ _______ _______ _____ _____    ______ ____
ROOT
ATOM      1  C   UNL     1       7.003   6.844  17.555  0.00  0.00    +0.000 C 
ATOM      2  C   UNL     1       6.576   5.717  18.524  0.00  0.00    +0.000 C 
ATOM      3  N   UNL     1       5.707   4.755  17.825  0.00  0.00    +0.000 N 
ATOM      4  C   UNL     1       6.286   4.228  16.581  0.00  0.00    +0.000 C 
ATOM      5  C   UNL     1       6.709   5.406  15.689  0.00  0.00    +0.000 C 
ATOM      6  O   UNL     1       7.617   6.288  16.370  0.00  0.00    +0.000 OA
ENDROOT
BRANCH   3   7
ATOM      7  C   UNL     1       4.449   4.402  18.264  0.00  0.00    +0.000 A 
ATOM      8  C   UNL     1       3.286   4.893  17.654  0.00  0.00    +0.000 A 
ATOM      9  C   UNL     1       2.006   4.534  18.094  0.00  0.00    +0.000 A 
ATOM     10  C   UNL     1       1.857   3.666  19.169  0.00  0.00    +0.000 A 
ATOM     11  C   UNL     1       2.988   3.160  19.796  0.00  0.00    +0.000 A 
ATOM     12  C   UNL     1       4.263   3.525  19.345  0.00  0.00    +0.000 A 
ENDBRANCH   3   7
BRANCH   1  13
ATOM     13  C   UNL     1       8.021   7.784  18.218  0.00  0.00    +0.000 C 
BRANCH  13  14
ATOM     14  C   UNL     1       8.106   9.131  17.490  0.00  0.00    +0.000 C 
BRANCH  14  18
ATOM     15  C   UNL     1       9.824  12.258  19.918  0.00  0.00    +0.000 A 
ATOM     16  C   UNL     1       9.363  12.542  18.635  0.00  0.00    +0.000 A 
ATOM     17  C   UNL     1       8.818  11.526  17.847  0.00  0.00    +0.000 A 
ATOM     18  C   UNL     1       8.725  10.216  18.338  0.00  0.00    +0.000 A 
ATOM     19  C   UNL     1       9.201   9.940  19.625  0.00  0.00    +0.000 A 
ATOM     20  C   UNL     1       9.746  10.957  20.413  0.00  0.00    +0.000 A 
ENDBRANCH  14  18
ENDBRANCH  13  14
ENDBRANCH   1  13
TORSDOF 4
ENDMDL
MODEL 9
REMARK VINA RESULT:      -7.4      0.878      1.098
REMARK  Name = 
REMARK  4 active torsions:
REMARK  status: ('A' for Active; 'I' for Inactive)
REMARK    1  A    between atoms: C_4  and  C_5
REMARK    2  A    between atoms: C_5  and  C_6
REMARK    3  A    between atoms: C_6  and  C_7
REMARK    4  A    between atoms: N_9  and  C_10
REMARK                            x       y       z     vdW  Elec       q    Type
REMARK                         _______ _______ _______ _____ _____    ______ ____
ROOT
ATOM      1  C   UNL     1       4.900   6.265  17.271  0.00  0.00    +0.000 C 
ATOM      2  C   UNL     1       4.853   4.999  16.384  0.00  0.00    +0.000 C 
ATOM      3  N   UNL     1       6.201   4.688  15.881  0.00  0.00    +0.000 N 
ATOM      4  C   UNL     1       7.220   4.589  16.935  0.00  0.00    +0.000 C 
ATOM      5  C   UNL     1       7.182   5.869  17.786  0.00  0.00    +0.000 C 
ATOM      6  O   UNL     1       5.873   6.108  18.327  0.00  0.00    +0.000 OA
ENDROOT
BRANCH   3   7
ATOM      7  C   UNL     1       6.502   4.538  14.544  0.00  0.00    +0.000 A 
ATOM      8  C   UNL     1       7.508   5.291  13.922  0.00  0.00    +0.000 A 
ATOM      9  C   UNL     1       7.820   5.139  12.565  0.00  0.00    +0.000 A 
ATOM     10  C   UNL     1       7.124   4.221  11.788  0.00  0.00    +0.000 A 
ATOM     11  C   UNL     1       6.122   3.458  12.372  0.00  0.00    +0.000 A 
ATOM     12  C   UNL     1       5.821   3.617  13.731  0.00  0.00    +0.000 A 
ENDBRANCH   3   7
BRANCH   1  13
ATOM     13  C   UNL     1       3.534   6.532  17.922  0.00  0.00    +0.000 C 
BRANCH  13  14
ATOM     14  C   UNL     1       3.441   5.910  19.320  0.00  0.00    +0.000 C 
BRANCH  14  18
ATOM     15  C   UNL     1       1.798   1.920  19.210  0.00  0.00    +0.000 A 
ATOM     16  C   UNL     1       0.959   3.025  19.095  0.00  0.00    +0.000 A 
ATOM     17  C   UNL     1       1.492   4.315  19.142  0.00  0.00    +0.000 A 
ATOM     18  C   UNL     1       2.871   4.511  19.300  0.00  0.00    +0.000 A 
ATOM     19  C   UNL     1       3.703   3.393  19.425  0.00  0.00    +0.000 A 
ATOM     20  C   UNL     1       3.170   2.102  19.378  0.00  0.00    +0.000 A 
ENDBRANCH  14  18
ENDBRANCH  13  14
ENDBRANCH   1  13
TORSDOF 4
ENDMDL
