MODEL 1
REMARK VINA RESULT:      -7.5      0.000      0.000
REMARK  Name = 
REMARK  7 active torsions:
REMARK  status: ('A' for Active; 'I' for Inactive)
REMARK    1  A    between atoms: C_1  and  C_2
REMARK    2  A    between atoms: C_4  and  C_5
REMARK    3  A    between atoms: C_7  and  N_8
REMARK    4  A    between atoms: N_8  and  C_9
REMARK    5  A    between atoms: N_8  and  S_17
REMARK    6  A    between atoms: C_9  and  C_10
REMARK    7  A    between atoms: S_17  and  C_18
REMARK                            x       y       z     vdW  Elec       q    Type
REMARK                         _______ _______ _______ _____ _____    ______ ____
ROOT
ATOM      1  N   UNL     1       3.367   3.754  18.282  0.00  0.00    +0.000 N 
ENDROOT
BRANCH   1   8
ATOM      2  C   UNL     1       6.588   4.312  14.553  0.00  0.00    +0.000 C 
ATOM      3  C   UNL     1       6.266   4.414  16.014  0.00  0.00    +0.000 A 
ATOM      4  C   UNL     1       7.175   4.972  16.920  0.00  0.00    +0.000 A 
ATOM      5  C   UNL     1       6.834   5.124  18.271  0.00  0.00    +0.000 A 
ATOM      6  C   UNL     1       7.818   5.703  19.245  0.00  0.00    +0.000 C 
ATOM      7  C   UNL     1       5.563   4.723  18.709  0.00  0.00    +0.000 A 
ATOM      8  C   UNL     1       4.662   4.141  17.818  0.00  0.00    +0.000 A 
ATOM      9  C   UNL     1       5.023   3.970  16.481  0.00  0.00    +0.000 A 
ENDBRANCH   1   8
BRANCH   1  10
ATOM     10  S   UNL     1       3.217   2.309  19.132  0.00  0.00    +0.000 S 
ATOM     11  C   UNL     1       1.461   2.076  19.307  0.00  0.00    +0.000 C 
ATOM     12  O   UNL     1       3.713   1.239  18.286  0.00  0.00    +0.000 OA
ATOM     13  O   UNL     1       3.762   2.491  20.463  0.00  0.00    +0.000 OA
ENDBRANCH   1  10
BRANCH   1  14
ATOM     14  C   UNL     1       2.266   4.741  18.285  0.00  0.00    +0.000 C 
BRANCH  14  15
ATOM     15  C   UNL     1       2.239   5.730  19.440  0.00  0.00    +0.000 C 
ATOM     16  O   UNL     1       2.342   5.381  20.619  0.00  0.00    +0.000 OA
ATOM     17  N   UNL     1       2.049   7.059  19.114  0.00  0.00    +0.000 N 
ATOM     18  C   UNL     1       1.859   8.064  20.141  0.00  0.00    +0.000 C 
ATOM     19  C   UNL     1       1.329   9.267  19.380  0.00  0.00    +0.000 C 
ATOM     20  C   UNL     1       2.038   9.170  18.034  0.00  0.00    +0.000 C 
ATOM     21  C   UNL     1       2.229   7.671  17.807  0.00  0.00    +0.000 C 
ENDBRANCH  14  15
ENDBRANCH   1  14
TORSDOF 4
ENDMDL
MODEL 2
REMARK VINA RESULT:      -7.5      0.083      1.884
REMARK  Name = 
REMARK  7 active torsions:
REMARK  status: ('A' for Active; 'I' for Inactive)
REMARK    1  A    between atoms: C_1  and  C_2
REMARK    2  A    between atoms: C_4  and  C_5
REMARK    3  A    between atoms: C_7  and  N_8
REMARK    4  A    between atoms: N_8  and  C_9
REMARK    5  A    between atoms: N_8  and  S_17
REMARK    6  A    between atoms: C_9  and  C_10
REMARK    7  A    between atoms: S_17  and  C_18
REMARK                            x       y       z     vdW  Elec       q    Type
REMARK                         _______ _______ _______ _____ _____    ______ ____
ROOT
ATOM      1  N   UNL     1       3.404   3.774  18.260  0.00  0.00    +0.000 N 
ENDROOT
BRANCH   1   8
ATOM      2  C   UNL     1       7.874   5.718  19.170  0.00  0.00    +0.000 C 
ATOM      3  C   UNL     1       6.870   5.176  18.197  0.00  0.00    +0.000 A 
ATOM      4  C   UNL     1       7.189   5.002  16.846  0.00  0.00    +0.000 A 
ATOM      5  C   UNL     1       6.265   4.430  15.962  0.00  0.00    +0.000 A 
ATOM      6  C   UNL     1       6.602   4.263  14.509  0.00  0.00    +0.000 C 
ATOM      7  C   UNL     1       5.014   4.019  16.446  0.00  0.00    +0.000 A 
ATOM      8  C   UNL     1       4.678   4.214  17.785  0.00  0.00    +0.000 A 
ATOM      9  C   UNL     1       5.597   4.809  18.650  0.00  0.00    +0.000 A 
ENDBRANCH   1   8
BRANCH   1  10
ATOM     10  S   UNL     1       3.318   2.316  19.096  0.00  0.00    +0.000 S 
ATOM     11  C   UNL     1       1.576   2.060  19.366  0.00  0.00    +0.000 C 
ATOM     12  O   UNL     1       3.776   1.264  18.207  0.00  0.00    +0.000 OA
ATOM     13  O   UNL     1       3.935   2.485  20.397  0.00  0.00    +0.000 OA
ENDBRANCH   1  10
BRANCH   1  14
ATOM     14  C   UNL     1       2.267   4.720  18.287  0.00  0.00    +0.000 C 
BRANCH  14  15
ATOM     15  C   UNL     1       2.225   5.703  19.447  0.00  0.00    +0.000 C 
ATOM     16  O   UNL     1       2.300   5.348  20.626  0.00  0.00    +0.000 OA
ATOM     17  N   UNL     1       2.055   7.036  19.124  0.00  0.00    +0.000 N 
ATOM     18  C   UNL     1       1.852   8.037  20.152  0.00  0.00    +0.000 C 
ATOM     19  C   UNL     1       1.351   9.249  19.386  0.00  0.00    +0.000 C 
ATOM     20  C   UNL     1       2.088   9.153  18.055  0.00  0.00    +0.000 C 
ATOM     21  C   UNL     1       2.269   7.653  17.825  0.00  0.00    +0.000 C 
ENDBRANCH  14  15
ENDBRANCH   1  14
TORSDOF 4
ENDMDL
MODEL 3
REMARK VINA RESULT:      -7.4      1.665      2.075
REMARK  Name = 
REMARK  7 active torsions:
REMARK  status: ('A' for Active; 'I' for Inactive)
REMARK    1  A    between atoms: C_1  and  C_2
REMARK    2  A    between atoms: C_4  and  C_5
REMARK    3  A    between atoms: C_7  and  N_8
REMARK    4  A    between atoms: N_8  and  C_9
REMARK    5  A    between atoms: N_8  and  S_17
REMARK    6  A    between atoms: C_9  and  C_10
REMARK    7  A    between atoms: S_17  and  C_18
REMARK                            x       y       z     vdW  Elec       q    Type
REMARK                         _______ _______ _______ _____ _____    ______ ____
ROOT
ATOM      1  N   UNL     1       3.151   5.114  18.695  0.00  0.00    +0.000 N 
ENDROOT
BRANCH   1   8
ATOM      2  C   UNL     1       6.047   3.998  14.827  0.00  0.00    +0.000 C 
ATOM      3  C   UNL     1       5.902   4.426  16.257  0.00  0.00    +0.000 A 
ATOM      4  C   UNL     1       7.016   4.786  17.022  0.00  0.00    +0.000 A 
ATOM      5  C   UNL     1       6.860   5.250  18.336  0.00  0.00    +0.000 A 
ATOM      6  C   UNL     1       8.057   5.616  19.163  0.00  0.00    +0.000 C 
ATOM      7  C   UNL     1       5.570   5.361  18.877  0.00  0.00    +0.000 A 
ATOM      8  C   UNL     1       4.457   4.978  18.130  0.00  0.00    +0.000 A 
ATOM      9  C   UNL     1       4.627   4.493  16.832  0.00  0.00    +0.000 A 
ENDBRANCH   1   8
BRANCH   1  10
ATOM     10  S   UNL     1       2.087   3.815  18.583  0.00  0.00    +0.000 S 
ATOM     11  C   UNL     1       1.044   3.970  20.018  0.00  0.00    +0.000 C 
ATOM     12  O   UNL     1       1.250   4.022  17.415  0.00  0.00    +0.000 OA
ATOM     13  O   UNL     1       2.837   2.583  18.726  0.00  0.00    +0.000 OA
ENDBRANCH   1  10
BRANCH   1  14
ATOM     14  C   UNL     1       2.866   6.237  19.614  0.00  0.00    +0.000 C 
BRANCH  14  15
ATOM     15  C   UNL     1       2.260   7.488  18.996  0.00  0.00    +0.000 C 
ATOM     16  O   UNL     1       2.387   7.771  17.802  0.00  0.00    +0.000 OA
ATOM     17  N   UNL     1       1.581   8.335  19.852  0.00  0.00    +0.000 N 
ATOM     18  C   UNL     1       1.093   9.623  19.401  0.00  0.00    +0.000 C 
ATOM     19  C   UNL     1       0.762  10.357  20.688  0.00  0.00    +0.000 C 
ATOM     20  C   UNL     1       0.281   9.246  21.613  0.00  0.00    +0.000 C 
ATOM     21  C   UNL     1       1.070   8.013  21.174  0.00  0.00    +0.000 C 
ENDBRANCH  14  15
ENDBRANCH   1  14
TORSDOF 4
ENDMDL
MODEL 4
REMARK VINA RESULT:      -7.2      1.597      2.725
REMARK  Name = 
REMARK  7 active torsions:
REMARK  status: ('A' for Active; 'I' for Inactive)
REMARK    1  A    between atoms: C_1  and  C_2
REMARK    2  A    between atoms: C_4  and  C_5
REMARK    3  A    between atoms: C_7  and  N_8
REMARK    4  A    between atoms: N_8  and  C_9
REMARK    5  A    between atoms: N_8  and  S_17
REMARK    6  A    between atoms: C_9  and  C_10
REMARK    7  A    between atoms: S_17  and  C_18
REMARK                            x       y       z     vdW  Elec       q    Type
REMARK                         _______ _______ _______ _____ _____    ______ ____
ROOT
ATOM      1  N   UNL     1       3.133   4.968  18.862  0.00  0.00    +0.000 N 
ENDROOT
BRANCH   1   8
ATOM      2  C   UNL     1       8.032   5.612  19.283  0.00  0.00    +0.000 C 
ATOM      3  C   UNL     1       6.840   5.239  18.453  0.00  0.00    +0.000 A 
ATOM      4  C   UNL     1       6.987   4.755  17.149  0.00  0.00    +0.000 A 
ATOM      5  C   UNL     1       5.870   4.345  16.408  0.00  0.00    +0.000 A 
ATOM      6  C   UNL     1       6.028   3.845  15.002  0.00  0.00    +0.000 C 
ATOM      7  C   UNL     1       4.596   4.414  16.992  0.00  0.00    +0.000 A 
ATOM      8  C   UNL     1       4.438   4.922  18.281  0.00  0.00    +0.000 A 
ATOM      9  C   UNL     1       5.555   5.351  18.998  0.00  0.00    +0.000 A 
ENDBRANCH   1   8
BRANCH   1  10
ATOM     10  S   UNL     1       2.175   3.586  18.798  0.00  0.00    +0.000 S 
ATOM     11  C   UNL     1       1.007   3.792  20.126  0.00  0.00    +0.000 C 
ATOM     12  O   UNL     1       1.426   3.619  17.555  0.00  0.00    +0.000 OA
ATOM     13  O   UNL     1       2.994   2.434  19.119  0.00  0.00    +0.000 OA
ENDBRANCH   1  10
BRANCH   1  14
ATOM     14  C   UNL     1       2.771   6.088  19.758  0.00  0.00    +0.000 C 
BRANCH  14  15
ATOM     15  C   UNL     1       2.191   7.330  19.098  0.00  0.00    +0.000 C 
ATOM     16  O   UNL     1       2.295   7.554  17.890  0.00  0.00    +0.000 OA
ATOM     17  N   UNL     1       1.563   8.237  19.930  0.00  0.00    +0.000 N 
ATOM     18  C   UNL     1       1.106   9.519  19.433  0.00  0.00    +0.000 C 
ATOM     19  C   UNL     1       0.834  10.323  20.692  0.00  0.00    +0.000 C 
ATOM     20  C   UNL     1       0.340   9.271  21.680  0.00  0.00    +0.000 C 
ATOM     21  C   UNL     1       1.076   7.993  21.279  0.00  0.00    +0.000 C 
ENDBRANCH  14  15
ENDBRANCH   1  14
TORSDOF 4
ENDMDL
MODEL 5
REMARK VINA RESULT:      -7.2      0.830      2.148
REMARK  Name = 
REMARK  7 active torsions:
REMARK  status: ('A' for Active; 'I' for Inactive)
REMARK    1  A    between atoms: C_1  and  C_2
REMARK    2  A    between atoms: C_4  and  C_5
REMARK    3  A    between atoms: C_7  and  N_8
REMARK    4  A    between atoms: N_8  and  C_9
REMARK    5  A    between atoms: N_8  and  S_17
REMARK    6  A    between atoms: C_9  and  C_10
REMARK    7  A    between atoms: S_17  and  C_18
REMARK                            x       y       z     vdW  Elec       q    Type
REMARK                         _______ _______ _______ _____ _____    ______ ____
ROOT
ATOM      1  N   UNL     1       3.337   3.728  18.129  0.00  0.00    +0.000 N 
ENDROOT
BRANCH   1   8
ATOM      2  C   UNL     1       7.773   5.701  19.138  0.00  0.00    +0.000 C 
ATOM      3  C   UNL     1       6.793   5.155  18.143  0.00  0.00    +0.000 A 
ATOM      4  C   UNL     1       7.142   4.988  16.798  0.00  0.00    +0.000 A 
ATOM      5  C   UNL     1       6.241   4.413  15.892  0.00  0.00    +0.000 A 
ATOM      6  C   UNL     1       6.609   4.254  14.446  0.00  0.00    +0.000 C 
ATOM      7  C   UNL     1       4.983   3.991  16.349  0.00  0.00    +0.000 A 
ATOM      8  C   UNL     1       4.617   4.179  17.682  0.00  0.00    +0.000 A 
ATOM      9  C   UNL     1       5.514   4.777  18.568  0.00  0.00    +0.000 A 
ENDBRANCH   1   8
BRANCH   1  10
ATOM     10  S   UNL     1       3.231   2.227  18.881  0.00  0.00    +0.000 S 
ATOM     11  C   UNL     1       4.315   2.358  20.288  0.00  0.00    +0.000 C 
ATOM     12  O   UNL     1       1.879   2.076  19.389  0.00  0.00    +0.000 OA
ATOM     13  O   UNL     1       3.789   1.221  17.999  0.00  0.00    +0.000 OA
ENDBRANCH   1  10
BRANCH   1  14
ATOM     14  C   UNL     1       2.211   4.685  18.206  0.00  0.00    +0.000 C 
BRANCH  14  15
ATOM     15  C   UNL     1       2.204   5.636  19.393  0.00  0.00    +0.000 C 
ATOM     16  O   UNL     1       2.296   5.247  20.560  0.00  0.00    +0.000 OA
ATOM     17  N   UNL     1       2.047   6.980  19.109  0.00  0.00    +0.000 N 
ATOM     18  C   UNL     1       1.878   7.955  20.168  0.00  0.00    +0.000 C 
ATOM     19  C   UNL     1       1.379   9.194  19.445  0.00  0.00    +0.000 C 
ATOM     20  C   UNL     1       2.089   9.124  18.098  0.00  0.00    +0.000 C 
ATOM     21  C   UNL     1       2.245   7.629  17.823  0.00  0.00    +0.000 C 
ENDBRANCH  14  15
ENDBRANCH   1  14
TORSDOF 4
ENDMDL
MODEL 6
REMARK VINA RESULT:      -7.2      1.039      2.111
REMARK  Name = 
REMARK  7 active torsions:
REMARK  status: ('A' for Active; 'I' for Inactive)
REMARK    1  A    between atoms: C_1  and  C_2
REMARK    2  A    between atoms: C_4  and  C_5
REMARK    3  A    between atoms: C_7  and  N_8
REMARK    4  A    between atoms: N_8  and  C_9
REMARK    5  A    between atoms: N_8  and  S_17
REMARK    6  A    between atoms: C_9  and  C_10
REMARK    7  A    between atoms: S_17  and  C_18
REMARK                            x       y       z     vdW  Elec       q    Type
REMARK                         _______ _______ _______ _____ _____    ______ ____
ROOT
ATOM      1  N   UNL     1       3.531   4.045  18.353  0.00  0.00    +0.000 N 
ENDROOT
BRANCH   1   8
ATOM      2  C   UNL     1       7.621   6.842  18.137  0.00  0.00    +0.000 C 
ATOM      3  C   UNL     1       6.640   5.926  17.468  0.00  0.00    +0.000 A 
ATOM      4  C   UNL     1       6.840   5.483  16.156  0.00  0.00    +0.000 A 
ATOM      5  C   UNL     1       5.952   4.573  15.566  0.00  0.00    +0.000 A 
ATOM      6  C   UNL     1       6.156   4.114  14.152  0.00  0.00    +0.000 C 
ATOM      7  C   UNL     1       4.861   4.097  16.310  0.00  0.00    +0.000 A 
ATOM      8  C   UNL     1       4.640   4.555  17.609  0.00  0.00    +0.000 A 
ATOM      9  C   UNL     1       5.516   5.481  18.175  0.00  0.00    +0.000 A 
ENDBRANCH   1   8
BRANCH   1  10
ATOM     10  S   UNL     1       3.791   2.749  19.394  0.00  0.00    +0.000 S 
ATOM     11  C   UNL     1       3.705   1.312  18.346  0.00  0.00    +0.000 C 
ATOM     12  O   UNL     1       5.152   2.841  19.892  0.00  0.00    +0.000 OA
ATOM     13  O   UNL     1       2.684   2.669  20.327  0.00  0.00    +0.000 OA
ENDBRANCH   1  10
BRANCH   1  14
ATOM     14  C   UNL     1       2.282   4.833  18.436  0.00  0.00    +0.000 C 
BRANCH  14  15
ATOM     15  C   UNL     1       2.212   5.888  19.529  0.00  0.00    +0.000 C 
ATOM     16  O   UNL     1       2.269   5.609  20.730  0.00  0.00    +0.000 OA
ATOM     17  N   UNL     1       2.038   7.196  19.118  0.00  0.00    +0.000 N 
ATOM     18  C   UNL     1       1.810   8.259  20.076  0.00  0.00    +0.000 C 
ATOM     19  C   UNL     1       1.312   9.415  19.226  0.00  0.00    +0.000 C 
ATOM     20  C   UNL     1       2.073   9.240  17.917  0.00  0.00    +0.000 C 
ATOM     21  C   UNL     1       2.270   7.730  17.786  0.00  0.00    +0.000 C 
ENDBRANCH  14  15
ENDBRANCH   1  14
TORSDOF 4
ENDMDL
MODEL 7
REMARK VINA RESULT:      -7.2      0.828      1.034
REMARK  Name = 
REMARK  7 active torsions:
REMARK  status: ('A' for Active; 'I' for Inactive)
REMARK    1  A    between atoms: C_1  and  C_2
REMARK    2  A    between atoms: C_4  and  C_5
REMARK    3  A    between atoms: C_7  and  N_8
REMARK    4  A    between atoms: N_8  and  C_9
REMARK    5  A    between atoms: N_8  and  S_17
REMARK    6  A    between atoms: C_9  and  C_10
REMARK    7  A    between atoms: S_17  and  C_18
REMARK                            x       y       z     vdW  Elec       q    Type
REMARK                         _______ _______ _______ _____ _____    ______ ____
ROOT
ATOM      1  N   UNL     1       3.388   3.763  18.111  0.00  0.00    +0.000 N 
ENDROOT
BRANCH   1   8
ATOM      2  C   UNL     1       6.701   4.315  14.463  0.00  0.00    +0.000 C 
ATOM      3  C   UNL     1       6.339   4.432  15.913  0.00  0.00    +0.000 A 
ATOM      4  C   UNL     1       7.216   5.012  16.835  0.00  0.00    +0.000 A 
ATOM      5  C   UNL     1       6.837   5.178  18.175  0.00  0.00    +0.000 A 
ATOM      6  C   UNL     1       7.787   5.782  19.167  0.00  0.00    +0.000 C 
ATOM      7  C   UNL     1       5.560   4.766  18.584  0.00  0.00    +0.000 A 
ATOM      8  C   UNL     1       4.690   4.161  17.677  0.00  0.00    +0.000 A 
ATOM      9  C   UNL     1       5.089   3.978  16.352  0.00  0.00    +0.000 A 
ENDBRANCH   1   8
BRANCH   1  10
ATOM     10  S   UNL     1       3.216   2.273  18.874  0.00  0.00    +0.000 S 
ATOM     11  C   UNL     1       4.283   2.377  20.297  0.00  0.00    +0.000 C 
ATOM     12  O   UNL     1       1.853   2.176  19.363  0.00  0.00    +0.000 OA
ATOM     13  O   UNL     1       3.751   1.240  18.009  0.00  0.00    +0.000 OA
ENDBRANCH   1  10
BRANCH   1  14
ATOM     14  C   UNL     1       2.299   4.762  18.167  0.00  0.00    +0.000 C 
BRANCH  14  15
ATOM     15  C   UNL     1       2.290   5.696  19.367  0.00  0.00    +0.000 C 
ATOM     16  O   UNL     1       2.436   5.296  20.525  0.00  0.00    +0.000 OA
ATOM     17  N   UNL     1       2.069   7.036  19.109  0.00  0.00    +0.000 N 
ATOM     18  C   UNL     1       1.893   7.988  20.187  0.00  0.00    +0.000 C 
ATOM     19  C   UNL     1       1.320   9.215  19.499  0.00  0.00    +0.000 C 
ATOM     20  C   UNL     1       1.989   9.193  18.129  0.00  0.00    +0.000 C 
ATOM     21  C   UNL     1       2.198   7.710  17.827  0.00  0.00    +0.000 C 
ENDBRANCH  14  15
ENDBRANCH   1  14
TORSDOF 4
ENDMDL
MODEL 8
REMARK VINA RESULT:      -7.1      2.533      4.656
REMARK  Name = 
REMARK  7 active torsions:
REMARK  status: ('A' for Active; 'I' for Inactive)
REMARK    1  A    between atoms: C_1  and  C_2
REMARK    2  A    between atoms: C_4  and  C_5
REMARK    3  A    between atoms: C_7  and  N_8
REMARK    4  A    between atoms: N_8  and  C_9
REMARK    5  A    between atoms: N_8  and  S_17
REMARK    6  A    between atoms: C_9  and  C_10
REMARK    7  A    between atoms: S_17  and  C_18
REMARK                            x       y       z     vdW  Elec       q    Type
REMARK                         _______ _______ _______ _____ _____    ______ ____
ROOT
ATOM      1  N   UNL     1       5.788   4.577  16.407  0.00  0.00    +0.000 N 
ENDROOT
BRANCH   1   8
ATOM      2  C   UNL     1       8.844   5.983  12.764  0.00  0.00    +0.000 C 
ATOM      3  C   UNL     1       7.654   5.196  13.226  0.00  0.00    +0.000 A 
ATOM      4  C   UNL     1       6.978   4.329  12.362  0.00  0.00    +0.000 A 
ATOM      5  C   UNL     1       5.910   3.548  12.825  0.00  0.00    +0.000 A 
ATOM      6  C   UNL     1       5.173   2.633  11.892  0.00  0.00    +0.000 C 
ATOM      7  C   UNL     1       5.530   3.634  14.173  0.00  0.00    +0.000 A 
ATOM      8  C   UNL     1       6.181   4.517  15.034  0.00  0.00    +0.000 A 
ATOM      9  C   UNL     1       7.225   5.308  14.554  0.00  0.00    +0.000 A 
ENDBRANCH   1   8
BRANCH   1  10
ATOM     10  S   UNL     1       6.980   4.783  17.576  0.00  0.00    +0.000 S 
ATOM     11  C   UNL     1       7.249   6.542  17.633  0.00  0.00    +0.000 C 
ATOM     12  O   UNL     1       6.421   4.389  18.857  0.00  0.00    +0.000 OA
ATOM     13  O   UNL     1       8.208   4.174  17.105  0.00  0.00    +0.000 OA
ENDBRANCH   1  10
BRANCH   1  14
ATOM     14  C   UNL     1       4.362   4.767  16.750  0.00  0.00    +0.000 C 
BRANCH  14  15
ATOM     15  C   UNL     1       3.719   3.694  17.615  0.00  0.00    +0.000 C 
ATOM     16  O   UNL     1       3.864   2.488  17.401  0.00  0.00    +0.000 OA
ATOM     17  N   UNL     1       2.915   4.133  18.651  0.00  0.00    +0.000 N 
ATOM     18  C   UNL     1       2.138   3.201  19.443  0.00  0.00    +0.000 C 
ATOM     19  C   UNL     1       1.151   4.086  20.184  0.00  0.00    +0.000 C 
ATOM     20  C   UNL     1       1.944   5.366  20.428  0.00  0.00    +0.000 C 
ATOM     21  C   UNL     1       2.891   5.465  19.233  0.00  0.00    +0.000 C 
ENDBRANCH  14  15
ENDBRANCH   1  14
TORSDOF 4
ENDMDL
MODEL 9
REMARK VINA RESULT:      -7.1      2.525      4.445
REMARK  Name = 
REMARK  7 active torsions:
REMARK  status: ('A' for Active; 'I' for Inactive)
REMARK    1  A    between atoms: C_1  and  C_2
REMARK    2  A    between atoms: C_4  and  C_5
REMARK    3  A    between atoms: C_7  and  N_8
REMARK    4  A    between atoms: N_8  and  C_9
REMARK    5  A    between atoms: N_8  and  S_17
REMARK    6  A    between atoms: C_9  and  C_10
REMARK    7  A    between atoms: S_17  and  C_18
REMARK                            x       y       z     vdW  Elec       q    Type
REMARK                         _______ _______ _______ _____ _____    ______ ____
ROOT
ATOM      1  N   UNL     1       5.812   4.549  16.433  0.00  0.00    +0.000 N 
ENDROOT
BRANCH   1   8
ATOM      2  C   UNL     1       5.092   2.740  11.873  0.00  0.00    +0.000 C 
ATOM      3  C   UNL     1       5.895   3.577  12.824  0.00  0.00    +0.000 A 
ATOM      4  C   UNL     1       6.975   4.347  12.378  0.00  0.00    +0.000 A 
ATOM      5  C   UNL     1       7.673   5.178  13.264  0.00  0.00    +0.000 A 
ATOM      6  C   UNL     1       8.844   5.987  12.789  0.00  0.00    +0.000 C 
ATOM      7  C   UNL     1       7.272   5.242  14.607  0.00  0.00    +0.000 A 
ATOM      8  C   UNL     1       6.214   4.457  15.065  0.00  0.00    +0.000 A 
ATOM      9  C   UNL     1       5.544   3.613  14.178  0.00  0.00    +0.000 A 
ENDBRANCH   1   8
BRANCH   1  10
ATOM     10  S   UNL     1       6.997   4.789  17.604  0.00  0.00    +0.000 S 
ATOM     11  C   UNL     1       7.261   6.550  17.616  0.00  0.00    +0.000 C 
ATOM     12  O   UNL     1       6.432   4.428  18.892  0.00  0.00    +0.000 OA
ATOM     13  O   UNL     1       8.229   4.172  17.156  0.00  0.00    +0.000 OA
ENDBRANCH   1  10
BRANCH   1  14
ATOM     14  C   UNL     1       4.384   4.742  16.764  0.00  0.00    +0.000 C 
BRANCH  14  15
ATOM     15  C   UNL     1       3.737   3.682  17.642  0.00  0.00    +0.000 C 
ATOM     16  O   UNL     1       3.882   2.473  17.444  0.00  0.00    +0.000 OA
ATOM     17  N   UNL     1       2.930   4.135  18.668  0.00  0.00    +0.000 N 
ATOM     18  C   UNL     1       2.149   3.215  19.470  0.00  0.00    +0.000 C 
ATOM     19  C   UNL     1       1.162   4.112  20.196  0.00  0.00    +0.000 C 
ATOM     20  C   UNL     1       1.955   5.393  20.426  0.00  0.00    +0.000 C 
ATOM     21  C   UNL     1       2.906   5.475  19.233  0.00  0.00    +0.000 C 
ENDBRANCH  14  15
ENDBRANCH   1  14
TORSDOF 4
ENDMDL
