MODEL 1
REMARK VINA RESULT:      -8.1      0.000      0.000
REMARK  Name = 
REMARK  7 active torsions:
REMARK  status: ('A' for Active; 'I' for Inactive)
REMARK    1  A    between atoms: C_1  and  C_2
REMARK    2  A    between atoms: C_5  and  C_6
REMARK    3  A    between atoms: C_7  and  C_8
REMARK    4  A    between atoms: C_8  and  N_9
REMARK    5  A    between atoms: N_13  and  C_14
REMARK    6  A    between atoms: C_14  and  C_15
REMARK    7  A    between atoms: C_19  and  C_20
REMARK                            x       y       z     vdW  Elec       q    Type
REMARK                         _______ _______ _______ _____ _____    ______ ____
ROOT
ATOM      1  N   UNL     1      -1.434  11.833  22.288  0.00  0.00    +0.000 NA
ATOM      2  C   UNL     1      -0.797  10.547  22.654  0.00  0.00    +0.000 C 
ATOM      3  C   UNL     1      -0.566   9.465  21.631  0.00  0.00    +0.000 C 
ATOM      4  O   UNL     1      -0.814   8.285  21.888  0.00  0.00    +0.000 OA
ATOM      5  N   UNL     1       0.077   9.842  20.473  0.00  0.00    +0.000 N 
ATOM      6  C   UNL     1      -0.713  10.326  19.414  0.00  0.00    +0.000 A 
ATOM      7  C   UNL     1      -0.879   9.553  18.260  0.00  0.00    +0.000 A 
ATOM      8  C   UNL     1      -1.709   9.996  17.230  0.00  0.00    +0.000 A 
ATOM      9  C   UNL     1      -2.377  11.215  17.344  0.00  0.00    +0.000 A 
ATOM     10  C   UNL     1      -2.222  11.989  18.493  0.00  0.00    +0.000 A 
ATOM     11  C   UNL     1      -1.402  11.534  19.532  0.00  0.00    +0.000 A 
ATOM     12  S   UNL     1      -0.989  12.623  20.862  0.00  0.00    +0.000 S 
ATOM     13  O   UNL     1      -1.835  13.791  20.736  0.00  0.00    +0.000 OA
ATOM     14  O   UNL     1       0.451  12.758  20.828  0.00  0.00    +0.000 OA
ENDROOT
BRANCH   1  15
ATOM     15  C   UNL     1      -1.599  12.723  23.486  0.00  0.00    +0.000 C 
BRANCH  15  22
ATOM     16  C   UNL     1      -6.605  12.517  23.750  0.00  0.00    +0.000 C 
ATOM     17  C   UNL     1      -5.370  13.368  23.752  0.00  0.00    +0.000 A 
ATOM     18  C   UNL     1      -5.432  14.755  23.831  0.00  0.00    +0.000 A 
ATOM     19  C   UNL     1      -4.255  15.506  23.815  0.00  0.00    +0.000 A 
ATOM     20  C   UNL     1      -2.994  14.890  23.697  0.00  0.00    +0.000 A 
ATOM     21  C   UNL     1      -1.771  15.765  23.698  0.00  0.00    +0.000 C 
ATOM     22  C   UNL     1      -2.915  13.483  23.610  0.00  0.00    +0.000 A 
ATOM     23  C   UNL     1      -4.115  12.752  23.674  0.00  0.00    +0.000 A 
ENDBRANCH  15  22
ENDBRANCH   1  15
BRANCH   5  24
ATOM     24  C   UNL     1       1.520   9.672  20.317  0.00  0.00    +0.000 C 
BRANCH  24  25
ATOM     25  C   UNL     1       1.904   8.379  19.642  0.00  0.00    +0.000 A 
ATOM     26  C   UNL     1       2.266   8.361  18.288  0.00  0.00    +0.000 A 
ATOM     27  C   UNL     1       2.474   7.152  17.632  0.00  0.00    +0.000 A 
ATOM     28  C   UNL     1       2.343   5.946  18.321  0.00  0.00    +0.000 A 
ATOM     29  C   UNL     1       2.027   5.937  19.687  0.00  0.00    +0.000 A 
ATOM     30  C   UNL     1       1.827   7.162  20.341  0.00  0.00    +0.000 A 
BRANCH  29  31
ATOM     31  C   UNL     1       1.879   4.643  20.448  0.00  0.00    +0.000 C 
ATOM     32  F   UNL     1       2.504   3.586  19.854  0.00  0.00    +0.000 F 
ATOM     33  F   UNL     1       2.396   4.720  21.705  0.00  0.00    +0.000 F 
ATOM     34  F   UNL     1       0.579   4.264  20.604  0.00  0.00    +0.000 F 
ENDBRANCH  29  31
ENDBRANCH  24  25
ENDBRANCH   5  24
TORSDOF 5
ENDMDL
MODEL 2
REMARK VINA RESULT:      -7.3      1.458      1.938
REMARK  Name = 
REMARK  7 active torsions:
REMARK  status: ('A' for Active; 'I' for Inactive)
REMARK    1  A    between atoms: C_1  and  C_2
REMARK    2  A    between atoms: C_5  and  C_6
REMARK    3  A    between atoms: C_7  and  C_8
REMARK    4  A    between atoms: C_8  and  N_9
REMARK    5  A    between atoms: N_13  and  C_14
REMARK    6  A    between atoms: C_14  and  C_15
REMARK    7  A    between atoms: C_19  and  C_20
REMARK                            x       y       z     vdW  Elec       q    Type
REMARK                         _______ _______ _______ _____ _____    ______ ____
ROOT
ATOM      1  N   UNL     1      -1.220  12.001  21.931  0.00  0.00    +0.000 NA
ATOM      2  C   UNL     1      -0.614  10.712  22.337  0.00  0.00    +0.000 C 
ATOM      3  C   UNL     1      -0.489   9.563  21.371  0.00  0.00    +0.000 C 
ATOM      4  O   UNL     1      -0.767   8.412  21.714  0.00  0.00    +0.000 OA
ATOM      5  N   UNL     1       0.097   9.842  20.156  0.00  0.00    +0.000 N 
ATOM      6  C   UNL     1      -0.737  10.297  19.117  0.00  0.00    +0.000 A 
ATOM      7  C   UNL     1      -1.003   9.465  18.026  0.00  0.00    +0.000 A 
ATOM      8  C   UNL     1      -1.877   9.881  17.020  0.00  0.00    +0.000 A 
ATOM      9  C   UNL     1      -2.488  11.133  17.098  0.00  0.00    +0.000 A 
ATOM     10  C   UNL     1      -2.232  11.966  18.186  0.00  0.00    +0.000 A 
ATOM     11  C   UNL     1      -1.368  11.538  19.201  0.00  0.00    +0.000 A 
ATOM     12  S   UNL     1      -0.833  12.685  20.435  0.00  0.00    +0.000 S 
ATOM     13  O   UNL     1      -1.637  13.880  20.287  0.00  0.00    +0.000 OA
ATOM     14  O   UNL     1       0.607  12.755  20.308  0.00  0.00    +0.000 OA
ENDROOT
BRANCH   1  15
ATOM     15  C   UNL     1      -1.276  12.967  23.079  0.00  0.00    +0.000 C 
BRANCH  15  22
ATOM     16  C   UNL     1      -6.189  12.537  24.001  0.00  0.00    +0.000 C 
ATOM     17  C   UNL     1      -5.014  13.446  23.797  0.00  0.00    +0.000 A 
ATOM     18  C   UNL     1      -5.141  14.830  23.807  0.00  0.00    +0.000 A 
ATOM     19  C   UNL     1      -4.019  15.634  23.597  0.00  0.00    +0.000 A 
ATOM     20  C   UNL     1      -2.751  15.073  23.351  0.00  0.00    +0.000 A 
ATOM     21  C   UNL     1      -1.588  16.004  23.145  0.00  0.00    +0.000 C 
ATOM     22  C   UNL     1      -2.606  13.669  23.331  0.00  0.00    +0.000 A 
ATOM     23  C   UNL     1      -3.746  12.886  23.590  0.00  0.00    +0.000 A 
ENDBRANCH  15  22
ENDBRANCH   1  15
BRANCH   5  24
ATOM     24  C   UNL     1       1.519   9.601  19.926  0.00  0.00    +0.000 C 
BRANCH  24  25
ATOM     25  C   UNL     1       1.855   8.147  19.707  0.00  0.00    +0.000 A 
ATOM     26  C   UNL     1       1.404   7.168  20.602  0.00  0.00    +0.000 A 
ATOM     27  C   UNL     1       1.837   5.851  20.483  0.00  0.00    +0.000 A 
ATOM     28  C   UNL     1       2.712   5.490  19.457  0.00  0.00    +0.000 A 
ATOM     29  C   UNL     1       3.144   6.440  18.521  0.00  0.00    +0.000 A 
ATOM     30  C   UNL     1       2.694   7.763  18.647  0.00  0.00    +0.000 A 
BRANCH  29  31
ATOM     31  C   UNL     1       4.092   6.068  17.409  0.00  0.00    +0.000 C 
ATOM     32  F   UNL     1       5.380   5.900  17.823  0.00  0.00    +0.000 F 
ATOM     33  F   UNL     1       3.744   4.900  16.801  0.00  0.00    +0.000 F 
ATOM     34  F   UNL     1       4.141   7.001  16.417  0.00  0.00    +0.000 F 
ENDBRANCH  29  31
ENDBRANCH  24  25
ENDBRANCH   5  24
TORSDOF 5
ENDMDL
MODEL 3
REMARK VINA RESULT:      -7.3      5.137      6.918
REMARK  Name = 
REMARK  7 active torsions:
REMARK  status: ('A' for Active; 'I' for Inactive)
REMARK    1  A    between atoms: C_1  and  C_2
REMARK    2  A    between atoms: C_5  and  C_6
REMARK    3  A    between atoms: C_7  and  C_8
REMARK    4  A    between atoms: C_8  and  N_9
REMARK    5  A    between atoms: N_13  and  C_14
REMARK    6  A    between atoms: C_14  and  C_15
REMARK    7  A    between atoms: C_19  and  C_20
REMARK                            x       y       z     vdW  Elec       q    Type
REMARK                         _______ _______ _______ _____ _____    ______ ____
ROOT
ATOM      1  N   UNL     1      -1.778  13.782  23.613  0.00  0.00    +0.000 NA
ATOM      2  C   UNL     1      -0.826  14.600  22.827  0.00  0.00    +0.000 C 
ATOM      3  C   UNL     1       0.288  13.967  22.034  0.00  0.00    +0.000 C 
ATOM      4  O   UNL     1       1.427  14.437  22.053  0.00  0.00    +0.000 OA
ATOM      5  N   UNL     1      -0.070  12.951  21.176  0.00  0.00    +0.000 N 
ATOM      6  C   UNL     1      -0.108  11.642  21.693  0.00  0.00    +0.000 A 
ATOM      7  C   UNL     1       0.859  10.712  21.299  0.00  0.00    +0.000 A 
ATOM      8  C   UNL     1       0.868   9.430  21.851  0.00  0.00    +0.000 A 
ATOM      9  C   UNL     1      -0.090   9.069  22.798  0.00  0.00    +0.000 A 
ATOM     10  C   UNL     1      -1.054   9.993  23.201  0.00  0.00    +0.000 A 
ATOM     11  C   UNL     1      -1.049  11.283  22.657  0.00  0.00    +0.000 A 
ATOM     12  S   UNL     1      -2.417  12.362  22.956  0.00  0.00    +0.000 S 
ATOM     13  O   UNL     1      -3.234  11.744  23.980  0.00  0.00    +0.000 OA
ATOM     14  O   UNL     1      -2.977  12.657  21.655  0.00  0.00    +0.000 OA
ENDROOT
BRANCH   1  15
ATOM     15  C   UNL     1      -2.760  14.642  24.353  0.00  0.00    +0.000 C 
BRANCH  15  22
ATOM     16  C   UNL     1       0.463  16.278  27.833  0.00  0.00    +0.000 C 
ATOM     17  C   UNL     1      -0.601  16.618  26.833  0.00  0.00    +0.000 A 
ATOM     18  C   UNL     1      -1.058  17.920  26.656  0.00  0.00    +0.000 A 
ATOM     19  C   UNL     1      -2.061  18.184  25.722  0.00  0.00    +0.000 A 
ATOM     20  C   UNL     1      -2.644  17.153  24.961  0.00  0.00    +0.000 A 
ATOM     21  C   UNL     1      -3.712  17.519  23.967  0.00  0.00    +0.000 C 
ATOM     22  C   UNL     1      -2.196  15.825  25.133  0.00  0.00    +0.000 A 
ATOM     23  C   UNL     1      -1.154  15.597  26.049  0.00  0.00    +0.000 A 
ENDBRANCH  15  22
ENDBRANCH   1  15
BRANCH   5  24
ATOM     24  C   UNL     1      -0.325  13.206  19.761  0.00  0.00    +0.000 C 
BRANCH  24  25
ATOM     25  C   UNL     1       0.828  13.873  19.052  0.00  0.00    +0.000 A 
ATOM     26  C   UNL     1       2.034  13.188  18.854  0.00  0.00    +0.000 A 
ATOM     27  C   UNL     1       3.143  13.851  18.336  0.00  0.00    +0.000 A 
ATOM     28  C   UNL     1       3.057  15.201  17.992  0.00  0.00    +0.000 A 
ATOM     29  C   UNL     1       1.850  15.898  18.139  0.00  0.00    +0.000 A 
ATOM     30  C   UNL     1       0.736  15.218  18.654  0.00  0.00    +0.000 A 
BRANCH  29  31
ATOM     31  C   UNL     1       1.740  17.358  17.776  0.00  0.00    +0.000 C 
ATOM     32  F   UNL     1       1.945  18.199  18.829  0.00  0.00    +0.000 F 
ATOM     33  F   UNL     1       2.647  17.725  16.828  0.00  0.00    +0.000 F 
ATOM     34  F   UNL     1       0.520  17.690  17.268  0.00  0.00    +0.000 F 
ENDBRANCH  29  31
ENDBRANCH  24  25
ENDBRANCH   5  24
TORSDOF 5
ENDMDL
MODEL 4
REMARK VINA RESULT:      -7.2      4.171      8.758
REMARK  Name = 
REMARK  7 active torsions:
REMARK  status: ('A' for Active; 'I' for Inactive)
REMARK    1  A    between atoms: C_1  and  C_2
REMARK    2  A    between atoms: C_5  and  C_6
REMARK    3  A    between atoms: C_7  and  C_8
REMARK    4  A    between atoms: C_8  and  N_9
REMARK    5  A    between atoms: N_13  and  C_14
REMARK    6  A    between atoms: C_14  and  C_15
REMARK    7  A    between atoms: C_19  and  C_20
REMARK                            x       y       z     vdW  Elec       q    Type
REMARK                         _______ _______ _______ _____ _____    ______ ____
ROOT
ATOM      1  N   UNL     1       0.967  10.952  19.526  0.00  0.00    +0.000 NA
ATOM      2  C   UNL     1      -0.069  10.976  20.584  0.00  0.00    +0.000 C 
ATOM      3  C   UNL     1      -0.061  12.021  21.669  0.00  0.00    +0.000 C 
ATOM      4  O   UNL     1      -0.271  11.717  22.845  0.00  0.00    +0.000 OA
ATOM      5  N   UNL     1       0.029  13.332  21.258  0.00  0.00    +0.000 N 
ATOM      6  C   UNL     1       1.316  13.873  21.075  0.00  0.00    +0.000 A 
ATOM      7  C   UNL     1       1.799  14.834  21.968  0.00  0.00    +0.000 A 
ATOM      8  C   UNL     1       3.095  15.332  21.833  0.00  0.00    +0.000 A 
ATOM      9  C   UNL     1       3.917  14.874  20.803  0.00  0.00    +0.000 A 
ATOM     10  C   UNL     1       3.446  13.910  19.913  0.00  0.00    +0.000 A 
ATOM     11  C   UNL     1       2.150  13.401  20.061  0.00  0.00    +0.000 A 
ATOM     12  S   UNL     1       1.456  12.391  18.788  0.00  0.00    +0.000 S 
ATOM     13  O   UNL     1       2.528  12.061  17.871  0.00  0.00    +0.000 OA
ATOM     14  O   UNL     1       0.286  13.100  18.317  0.00  0.00    +0.000 OA
ENDROOT
BRANCH   1  15
ATOM     15  C   UNL     1       0.773   9.790  18.595  0.00  0.00    +0.000 C 
BRANCH  15  22
ATOM     16  C   UNL     1       4.426   6.926  16.690  0.00  0.00    +0.000 C 
ATOM     17  C   UNL     1       3.502   7.202  17.839  0.00  0.00    +0.000 A 
ATOM     18  C   UNL     1       3.477   6.400  18.974  0.00  0.00    +0.000 A 
ATOM     19  C   UNL     1       2.588   6.689  20.011  0.00  0.00    +0.000 A 
ATOM     20  C   UNL     1       1.691   7.772  19.927  0.00  0.00    +0.000 A 
ATOM     21  C   UNL     1       0.771   8.027  21.090  0.00  0.00    +0.000 C 
ATOM     22  C   UNL     1       1.700   8.592  18.778  0.00  0.00    +0.000 A 
ATOM     23  C   UNL     1       2.637   8.302  17.770  0.00  0.00    +0.000 A 
ENDBRANCH  15  22
ENDBRANCH   1  15
BRANCH   5  24
ATOM     24  C   UNL     1      -1.163  14.160  21.092  0.00  0.00    +0.000 C 
BRANCH  24  25
ATOM     25  C   UNL     1      -1.948  14.346  22.366  0.00  0.00    +0.000 A 
ATOM     26  C   UNL     1      -1.385  15.019  23.458  0.00  0.00    +0.000 A 
ATOM     27  C   UNL     1      -2.051  15.060  24.680  0.00  0.00    +0.000 A 
ATOM     28  C   UNL     1      -3.296  14.445  24.822  0.00  0.00    +0.000 A 
ATOM     29  C   UNL     1      -3.902  13.804  23.733  0.00  0.00    +0.000 A 
ATOM     30  C   UNL     1      -3.225  13.776  22.504  0.00  0.00    +0.000 A 
BRANCH  29  31
ATOM     31  C   UNL     1      -5.246  13.132  23.870  0.00  0.00    +0.000 C 
ATOM     32  F   UNL     1      -6.258  13.993  24.176  0.00  0.00    +0.000 F 
ATOM     33  F   UNL     1      -5.629  12.504  22.723  0.00  0.00    +0.000 F 
ATOM     34  F   UNL     1      -5.266  12.176  24.840  0.00  0.00    +0.000 F 
ENDBRANCH  29  31
ENDBRANCH  24  25
ENDBRANCH   5  24
TORSDOF 5
ENDMDL
MODEL 5
REMARK VINA RESULT:      -7.2      2.217      2.853
REMARK  Name = 
REMARK  7 active torsions:
REMARK  status: ('A' for Active; 'I' for Inactive)
REMARK    1  A    between atoms: C_1  and  C_2
REMARK    2  A    between atoms: C_5  and  C_6
REMARK    3  A    between atoms: C_7  and  C_8
REMARK    4  A    between atoms: C_8  and  N_9
REMARK    5  A    between atoms: N_13  and  C_14
REMARK    6  A    between atoms: C_14  and  C_15
REMARK    7  A    between atoms: C_19  and  C_20
REMARK                            x       y       z     vdW  Elec       q    Type
REMARK                         _______ _______ _______ _____ _____    ______ ____
ROOT
ATOM      1  N   UNL     1       0.000  12.546  20.963  0.00  0.00    +0.000 NA
ATOM      2  C   UNL     1       0.830  11.353  21.253  0.00  0.00    +0.000 C 
ATOM      3  C   UNL     1       0.692  10.086  20.450  0.00  0.00    +0.000 C 
ATOM      4  O   UNL     1       0.668   8.984  21.002  0.00  0.00    +0.000 OA
ATOM      5  N   UNL     1       0.758  10.216  19.081  0.00  0.00    +0.000 N 
ATOM      6  C   UNL     1      -0.439  10.485  18.391  0.00  0.00    +0.000 A 
ATOM      7  C   UNL     1      -1.013   9.497  17.585  0.00  0.00    +0.000 A 
ATOM      8  C   UNL     1      -2.231   9.732  16.946  0.00  0.00    +0.000 A 
ATOM      9  C   UNL     1      -2.882  10.955  17.106  0.00  0.00    +0.000 A 
ATOM     10  C   UNL     1      -2.320  11.942  17.913  0.00  0.00    +0.000 A 
ATOM     11  C   UNL     1      -1.106  11.698  18.566  0.00  0.00    +0.000 A 
ATOM     12  S   UNL     1      -0.259  13.028  19.364  0.00  0.00    +0.000 S 
ATOM     13  O   UNL     1      -1.167  14.155  19.397  0.00  0.00    +0.000 OA
ATOM     14  O   UNL     1       1.018  13.140  18.694  0.00  0.00    +0.000 OA
ENDROOT
BRANCH   1  15
ATOM     15  C   UNL     1       0.285  13.659  21.929  0.00  0.00    +0.000 C 
BRANCH  15  22
ATOM     16  C   UNL     1      -4.004  12.378  24.193  0.00  0.00    +0.000 C 
ATOM     17  C   UNL     1      -2.935  13.411  23.997  0.00  0.00    +0.000 A 
ATOM     18  C   UNL     1      -2.987  14.653  24.620  0.00  0.00    +0.000 A 
ATOM     19  C   UNL     1      -1.975  15.588  24.394  0.00  0.00    +0.000 A 
ATOM     20  C   UNL     1      -0.902  15.310  23.526  0.00  0.00    +0.000 A 
ATOM     21  C   UNL     1       0.156  16.364  23.342  0.00  0.00    +0.000 C 
ATOM     22  C   UNL     1      -0.838  14.056  22.881  0.00  0.00    +0.000 A 
ATOM     23  C   UNL     1      -1.849  13.119  23.163  0.00  0.00    +0.000 A 
ENDBRANCH  15  22
ENDBRANCH   1  15
BRANCH   5  24
ATOM     24  C   UNL     1       2.010  10.005  18.357  0.00  0.00    +0.000 C 
BRANCH  24  25
ATOM     25  C   UNL     1       2.427   8.557  18.286  0.00  0.00    +0.000 A 
ATOM     26  C   UNL     1       1.935   7.628  19.212  0.00  0.00    +0.000 A 
ATOM     27  C   UNL     1       2.434   6.329  19.238  0.00  0.00    +0.000 A 
ATOM     28  C   UNL     1       3.416   5.935  18.328  0.00  0.00    +0.000 A 
ATOM     29  C   UNL     1       3.893   6.832  17.363  0.00  0.00    +0.000 A 
ATOM     30  C   UNL     1       3.378   8.137  17.341  0.00  0.00    +0.000 A 
BRANCH  29  31
ATOM     31  C   UNL     1       4.958   6.425  16.374  0.00  0.00    +0.000 C 
ATOM     32  F   UNL     1       4.964   5.089  16.099  0.00  0.00    +0.000 F 
ATOM     33  F   UNL     1       4.812   7.049  15.172  0.00  0.00    +0.000 F 
ATOM     34  F   UNL     1       6.218   6.723  16.796  0.00  0.00    +0.000 F 
ENDBRANCH  29  31
ENDBRANCH  24  25
ENDBRANCH   5  24
TORSDOF 5
ENDMDL
MODEL 6
REMARK VINA RESULT:      -7.2      3.168      6.608
REMARK  Name = 
REMARK  7 active torsions:
REMARK  status: ('A' for Active; 'I' for Inactive)
REMARK    1  A    between atoms: C_1  and  C_2
REMARK    2  A    between atoms: C_5  and  C_6
REMARK    3  A    between atoms: C_7  and  C_8
REMARK    4  A    between atoms: C_8  and  N_9
REMARK    5  A    between atoms: N_13  and  C_14
REMARK    6  A    between atoms: C_14  and  C_15
REMARK    7  A    between atoms: C_19  and  C_20
REMARK                            x       y       z     vdW  Elec       q    Type
REMARK                         _______ _______ _______ _____ _____    ______ ____
ROOT
ATOM      1  N   UNL     1      -4.469  12.940  20.720  0.00  0.00    +0.000 NA
ATOM      2  C   UNL     1      -3.120  13.403  20.317  0.00  0.00    +0.000 C 
ATOM      3  C   UNL     1      -2.479  14.607  20.955  0.00  0.00    +0.000 C 
ATOM      4  O   UNL     1      -1.893  15.451  20.273  0.00  0.00    +0.000 OA
ATOM      5  N   UNL     1      -2.444  14.628  22.331  0.00  0.00    +0.000 N 
ATOM      6  C   UNL     1      -3.552  15.174  23.005  0.00  0.00    +0.000 A 
ATOM      7  C   UNL     1      -3.429  16.401  23.665  0.00  0.00    +0.000 A 
ATOM      8  C   UNL     1      -4.537  16.981  24.284  0.00  0.00    +0.000 A 
ATOM      9  C   UNL     1      -5.774  16.339  24.250  0.00  0.00    +0.000 A 
ATOM     10  C   UNL     1      -5.908  15.119  23.589  0.00  0.00    +0.000 A 
ATOM     11  C   UNL     1      -4.798  14.547  22.955  0.00  0.00    +0.000 A 
ATOM     12  S   UNL     1      -4.892  12.888  22.355  0.00  0.00    +0.000 S 
ATOM     13  O   UNL     1      -6.282  12.485  22.426  0.00  0.00    +0.000 OA
ATOM     14  O   UNL     1      -3.881  12.149  23.079  0.00  0.00    +0.000 OA
ENDROOT
BRANCH   1  15
ATOM     15  C   UNL     1      -4.908  11.757  19.907  0.00  0.00    +0.000 C 
BRANCH  15  22
ATOM     16  C   UNL     1      -0.744   9.981  17.746  0.00  0.00    +0.000 C 
ATOM     17  C   UNL     1      -2.102  10.592  17.567  0.00  0.00    +0.000 A 
ATOM     18  C   UNL     1      -2.609  10.908  16.311  0.00  0.00    +0.000 A 
ATOM     19  C   UNL     1      -3.872  11.489  16.197  0.00  0.00    +0.000 A 
ATOM     20  C   UNL     1      -4.647  11.788  17.335  0.00  0.00    +0.000 A 
ATOM     21  C   UNL     1      -6.004  12.404  17.130  0.00  0.00    +0.000 C 
ATOM     22  C   UNL     1      -4.144  11.479  18.617  0.00  0.00    +0.000 A 
ATOM     23  C   UNL     1      -2.887  10.853  18.697  0.00  0.00    +0.000 A 
ENDBRANCH  15  22
ENDBRANCH   1  15
BRANCH   5  24
ATOM     24  C   UNL     1      -1.268  14.173  23.068  0.00  0.00    +0.000 C 
BRANCH  24  25
ATOM     25  C   UNL     1      -0.429  13.177  22.306  0.00  0.00    +0.000 A 
ATOM     26  C   UNL     1       0.473  13.608  21.324  0.00  0.00    +0.000 A 
ATOM     27  C   UNL     1       1.134  12.684  20.521  0.00  0.00    +0.000 A 
ATOM     28  C   UNL     1       0.919  11.317  20.700  0.00  0.00    +0.000 A 
ATOM     29  C   UNL     1       0.057  10.857  21.704  0.00  0.00    +0.000 A 
ATOM     30  C   UNL     1      -0.599  11.797  22.513  0.00  0.00    +0.000 A 
BRANCH  29  31
ATOM     31  C   UNL     1      -0.190   9.383  21.910  0.00  0.00    +0.000 C 
ATOM     32  F   UNL     1       0.943   8.671  22.172  0.00  0.00    +0.000 F 
ATOM     33  F   UNL     1      -1.030   9.140  22.955  0.00  0.00    +0.000 F 
ATOM     34  F   UNL     1      -0.763   8.784  20.828  0.00  0.00    +0.000 F 
ENDBRANCH  29  31
ENDBRANCH  24  25
ENDBRANCH   5  24
TORSDOF 5
ENDMDL
MODEL 7
REMARK VINA RESULT:      -7.2      4.146      8.923
REMARK  Name = 
REMARK  7 active torsions:
REMARK  status: ('A' for Active; 'I' for Inactive)
REMARK    1  A    between atoms: C_1  and  C_2
REMARK    2  A    between atoms: C_5  and  C_6
REMARK    3  A    between atoms: C_7  and  C_8
REMARK    4  A    between atoms: C_8  and  N_9
REMARK    5  A    between atoms: N_13  and  C_14
REMARK    6  A    between atoms: C_14  and  C_15
REMARK    7  A    between atoms: C_19  and  C_20
REMARK                            x       y       z     vdW  Elec       q    Type
REMARK                         _______ _______ _______ _____ _____    ______ ____
ROOT
ATOM      1  N   UNL     1       1.414   8.651  19.406  0.00  0.00    +0.000 NA
ATOM      2  C   UNL     1       0.709   8.834  20.696  0.00  0.00    +0.000 C 
ATOM      3  C   UNL     1       0.588  10.190  21.340  0.00  0.00    +0.000 C 
ATOM      4  O   UNL     1       0.777  10.338  22.550  0.00  0.00    +0.000 OA
ATOM      5  N   UNL     1       0.106  11.207  20.546  0.00  0.00    +0.000 N 
ATOM      6  C   UNL     1       1.035  11.933  19.777  0.00  0.00    +0.000 A 
ATOM      7  C   UNL     1       1.331  13.258  20.113  0.00  0.00    +0.000 A 
ATOM      8  C   UNL     1       2.295  13.967  19.396  0.00  0.00    +0.000 A 
ATOM      9  C   UNL     1       2.968  13.358  18.337  0.00  0.00    +0.000 A 
ATOM     10  C   UNL     1       2.684  12.035  18.000  0.00  0.00    +0.000 A 
ATOM     11  C   UNL     1       1.728  11.322  18.732  0.00  0.00    +0.000 A 
ATOM     12  S   UNL     1       1.172   9.750  18.146  0.00  0.00    +0.000 S 
ATOM     13  O   UNL     1       2.051   9.362  17.062  0.00  0.00    +0.000 OA
ATOM     14  O   UNL     1      -0.249   9.896  17.915  0.00  0.00    +0.000 OA
ENDROOT
BRANCH   1  15
ATOM     15  C   UNL     1       1.443   7.206  18.998  0.00  0.00    +0.000 C 
BRANCH  15  22
ATOM     16  C   UNL     1       5.949   6.875  16.816  0.00  0.00    +0.000 C 
ATOM     17  C   UNL     1       5.019   6.381  17.884  0.00  0.00    +0.000 A 
ATOM     18  C   UNL     1       5.373   5.353  18.751  0.00  0.00    +0.000 A 
ATOM     19  C   UNL     1       4.467   4.917  19.720  0.00  0.00    +0.000 A 
ATOM     20  C   UNL     1       3.183   5.484  19.830  0.00  0.00    +0.000 A 
ATOM     21  C   UNL     1       2.268   4.970  20.907  0.00  0.00    +0.000 C 
ATOM     22  C   UNL     1       2.806   6.525  18.954  0.00  0.00    +0.000 A 
ATOM     23  C   UNL     1       3.756   6.972  18.017  0.00  0.00    +0.000 A 
ENDBRANCH  15  22
ENDBRANCH   1  15
BRANCH   5  24
ATOM     24  C   UNL     1      -1.308  11.574  20.558  0.00  0.00    +0.000 C 
BRANCH  24  25
ATOM     25  C   UNL     1      -1.689  12.463  21.716  0.00  0.00    +0.000 A 
ATOM     26  C   UNL     1      -0.730  13.274  22.337  0.00  0.00    +0.000 A 
ATOM     27  C   UNL     1      -1.046  13.978  23.495  0.00  0.00    +0.000 A 
ATOM     28  C   UNL     1      -2.329  13.897  24.038  0.00  0.00    +0.000 A 
ATOM     29  C   UNL     1      -3.320  13.128  23.412  0.00  0.00    +0.000 A 
ATOM     30  C   UNL     1      -2.992  12.429  22.241  0.00  0.00    +0.000 A 
BRANCH  29  31
ATOM     31  C   UNL     1      -4.712  13.026  23.986  0.00  0.00    +0.000 C 
ATOM     32  F   UNL     1      -4.787  12.235  25.094  0.00  0.00    +0.000 F 
ATOM     33  F   UNL     1      -5.206  14.238  24.364  0.00  0.00    +0.000 F 
ATOM     34  F   UNL     1      -5.615  12.516  23.104  0.00  0.00    +0.000 F 
ENDBRANCH  29  31
ENDBRANCH  24  25
ENDBRANCH   5  24
TORSDOF 5
ENDMDL
MODEL 8
REMARK VINA RESULT:      -7.2      3.631      7.580
REMARK  Name = 
REMARK  7 active torsions:
REMARK  status: ('A' for Active; 'I' for Inactive)
REMARK    1  A    between atoms: C_1  and  C_2
REMARK    2  A    between atoms: C_5  and  C_6
REMARK    3  A    between atoms: C_7  and  C_8
REMARK    4  A    between atoms: C_8  and  N_9
REMARK    5  A    between atoms: N_13  and  C_14
REMARK    6  A    between atoms: C_14  and  C_15
REMARK    7  A    between atoms: C_19  and  C_20
REMARK                            x       y       z     vdW  Elec       q    Type
REMARK                         _______ _______ _______ _____ _____    ______ ____
ROOT
ATOM      1  N   UNL     1      -1.751  13.879  22.349  0.00  0.00    +0.000 NA
ATOM      2  C   UNL     1      -2.797  12.908  21.952  0.00  0.00    +0.000 C 
ATOM      3  C   UNL     1      -4.245  13.122  22.308  0.00  0.00    +0.000 C 
ATOM      4  O   UNL     1      -4.937  12.196  22.735  0.00  0.00    +0.000 OA
ATOM      5  N   UNL     1      -4.782  14.347  21.982  0.00  0.00    +0.000 N 
ATOM      6  C   UNL     1      -4.658  15.387  22.922  0.00  0.00    +0.000 A 
ATOM      7  C   UNL     1      -5.788  15.839  23.612  0.00  0.00    +0.000 A 
ATOM      8  C   UNL     1      -5.666  16.827  24.590  0.00  0.00    +0.000 A 
ATOM      9  C   UNL     1      -4.416  17.370  24.884  0.00  0.00    +0.000 A 
ATOM     10  C   UNL     1      -3.283  16.920  24.206  0.00  0.00    +0.000 A 
ATOM     11  C   UNL     1      -3.407  15.918  23.237  0.00  0.00    +0.000 A 
ATOM     12  S   UNL     1      -2.033  15.538  22.192  0.00  0.00    +0.000 S 
ATOM     13  O   UNL     1      -0.879  16.224  22.736  0.00  0.00    +0.000 OA
ATOM     14  O   UNL     1      -2.477  15.815  20.843  0.00  0.00    +0.000 OA
ENDROOT
BRANCH   1  15
ATOM     15  C   UNL     1      -0.386  13.420  21.924  0.00  0.00    +0.000 C 
BRANCH  15  22
ATOM     16  C   UNL     1       0.016   8.433  21.548  0.00  0.00    +0.000 C 
ATOM     17  C   UNL     1      -0.133   9.749  20.843  0.00  0.00    +0.000 A 
ATOM     18  C   UNL     1      -0.174   9.841  19.456  0.00  0.00    +0.000 A 
ATOM     19  C   UNL     1      -0.299  11.090  18.846  0.00  0.00    +0.000 A 
ATOM     20  C   UNL     1      -0.364  12.274  19.606  0.00  0.00    +0.000 A 
ATOM     21  C   UNL     1      -0.509  13.582  18.876  0.00  0.00    +0.000 C 
ATOM     22  C   UNL     1      -0.317  12.198  21.015  0.00  0.00    +0.000 A 
ATOM     23  C   UNL     1      -0.236  10.922  21.601  0.00  0.00    +0.000 A 
ENDBRANCH  15  22
ENDBRANCH   1  15
BRANCH   5  24
ATOM     24  C   UNL     1      -5.526  14.543  20.740  0.00  0.00    +0.000 C 
BRANCH  24  25
ATOM     25  C   UNL     1      -5.838  13.258  20.015  0.00  0.00    +0.000 A 
ATOM     26  C   UNL     1      -6.985  12.519  20.336  0.00  0.00    +0.000 A 
ATOM     27  C   UNL     1      -7.193  11.263  19.775  0.00  0.00    +0.000 A 
ATOM     28  C   UNL     1      -6.269  10.735  18.872  0.00  0.00    +0.000 A 
ATOM     29  C   UNL     1      -5.137  11.471  18.500  0.00  0.00    +0.000 A 
ATOM     30  C   UNL     1      -4.941  12.740  19.066  0.00  0.00    +0.000 A 
BRANCH  29  31
ATOM     31  C   UNL     1      -4.126  10.915  17.528  0.00  0.00    +0.000 C 
ATOM     32  F   UNL     1      -3.026  11.705  17.373  0.00  0.00    +0.000 F 
ATOM     33  F   UNL     1      -3.654   9.697  17.914  0.00  0.00    +0.000 F 
ATOM     34  F   UNL     1      -4.633  10.736  16.277  0.00  0.00    +0.000 F 
ENDBRANCH  29  31
ENDBRANCH  24  25
ENDBRANCH   5  24
TORSDOF 5
ENDMDL
MODEL 9
REMARK VINA RESULT:      -7.2      2.385      3.217
REMARK  Name = 
REMARK  7 active torsions:
REMARK  status: ('A' for Active; 'I' for Inactive)
REMARK    1  A    between atoms: C_1  and  C_2
REMARK    2  A    between atoms: C_5  and  C_6
REMARK    3  A    between atoms: C_7  and  C_8
REMARK    4  A    between atoms: C_8  and  N_9
REMARK    5  A    between atoms: N_13  and  C_14
REMARK    6  A    between atoms: C_14  and  C_15
REMARK    7  A    between atoms: C_19  and  C_20
REMARK                            x       y       z     vdW  Elec       q    Type
REMARK                         _______ _______ _______ _____ _____    ______ ____
ROOT
ATOM      1  N   UNL     1      -1.991  13.024  20.626  0.00  0.00    +0.000 NA
ATOM      2  C   UNL     1      -2.070  11.594  20.245  0.00  0.00    +0.000 C 
ATOM      3  C   UNL     1      -0.990  10.937  19.427  0.00  0.00    +0.000 C 
ATOM      4  O   UNL     1      -1.270  10.184  18.492  0.00  0.00    +0.000 OA
ATOM      5  N   UNL     1       0.302  11.094  19.878  0.00  0.00    +0.000 N 
ATOM      6  C   UNL     1       1.013  12.228  19.445  0.00  0.00    +0.000 A 
ATOM      7  C   UNL     1       2.071  12.083  18.542  0.00  0.00    +0.000 A 
ATOM      8  C   UNL     1       2.743  13.206  18.059  0.00  0.00    +0.000 A 
ATOM      9  C   UNL     1       2.364  14.482  18.475  0.00  0.00    +0.000 A 
ATOM     10  C   UNL     1       1.306  14.636  19.369  0.00  0.00    +0.000 A 
ATOM     11  C   UNL     1       0.623  13.508  19.840  0.00  0.00    +0.000 A 
ATOM     12  S   UNL     1      -0.530  13.675  21.169  0.00  0.00    +0.000 S 
ATOM     13  O   UNL     1      -0.741  15.092  21.377  0.00  0.00    +0.000 OA
ATOM     14  O   UNL     1      -0.016  12.850  22.241  0.00  0.00    +0.000 OA
ENDROOT
BRANCH   1  15
ATOM     15  C   UNL     1      -3.208  13.455  21.392  0.00  0.00    +0.000 C 
BRANCH  15  22
ATOM     16  C   UNL     1      -6.032  11.904  17.547  0.00  0.00    +0.000 C 
ATOM     17  C   UNL     1      -5.926  12.149  19.022  0.00  0.00    +0.000 A 
ATOM     18  C   UNL     1      -6.995  11.931  19.885  0.00  0.00    +0.000 A 
ATOM     19  C   UNL     1      -6.852  12.189  21.249  0.00  0.00    +0.000 A 
ATOM     20  C   UNL     1      -5.647  12.689  21.778  0.00  0.00    +0.000 A 
ATOM     21  C   UNL     1      -5.566  12.931  23.261  0.00  0.00    +0.000 C 
ATOM     22  C   UNL     1      -4.554  12.921  20.915  0.00  0.00    +0.000 A 
ATOM     23  C   UNL     1      -4.714  12.611  19.553  0.00  0.00    +0.000 A 
ENDBRANCH  15  22
ENDBRANCH   1  15
BRANCH   5  24
ATOM     24  C   UNL     1       0.943  10.080  20.713  0.00  0.00    +0.000 C 
BRANCH  24  25
ATOM     25  C   UNL     1       1.506   8.922  19.928  0.00  0.00    +0.000 A 
ATOM     26  C   UNL     1       1.900   9.090  18.593  0.00  0.00    +0.000 A 
ATOM     27  C   UNL     1       2.278   7.992  17.827  0.00  0.00    +0.000 A 
ATOM     28  C   UNL     1       2.286   6.714  18.387  0.00  0.00    +0.000 A 
ATOM     29  C   UNL     1       1.940   6.523  19.732  0.00  0.00    +0.000 A 
ATOM     30  C   UNL     1       1.568   7.639  20.497  0.00  0.00    +0.000 A 
BRANCH  29  31
ATOM     31  C   UNL     1       1.939   5.148  20.353  0.00  0.00    +0.000 C 
ATOM     32  F   UNL     1       2.677   4.236  19.659  0.00  0.00    +0.000 F 
ATOM     33  F   UNL     1       2.448   5.152  21.617  0.00  0.00    +0.000 F 
ATOM     34  F   UNL     1       0.691   4.613  20.459  0.00  0.00    +0.000 F 
ENDBRANCH  29  31
ENDBRANCH  24  25
ENDBRANCH   5  24
TORSDOF 5
ENDMDL
