MODEL 1
REMARK VINA RESULT:      -7.6      0.000      0.000
REMARK  Name = 
REMARK  6 active torsions:
REMARK  status: ('A' for Active; 'I' for Inactive)
REMARK    1  A    between atoms: C_7  and  C_8
REMARK    2  A    between atoms: C_8  and  O_9
REMARK    3  A    between atoms: O_9  and  C_10
REMARK    4  A    between atoms: C_13  and  C_14
REMARK    5  A    between atoms: C_14  and  C_15
REMARK    6  A    between atoms: C_14  and  N_18
REMARK                            x       y       z     vdW  Elec       q    Type
REMARK                         _______ _______ _______ _____ _____    ______ ____
ROOT
ATOM      1  C   UNL     1       1.223   9.132  19.555  0.00  0.00    +0.000 A 
ATOM      2  C   UNL     1       1.481   8.118  20.474  0.00  0.00    +0.000 A 
ATOM      3  C   UNL     1       2.227   6.999  20.105  0.00  0.00    +0.000 A 
ATOM      4  C   UNL     1       2.699   6.855  18.794  0.00  0.00    +0.000 A 
ATOM      5  C   UNL     1       2.469   7.901  17.883  0.00  0.00    +0.000 A 
ATOM      6  C   UNL     1       1.727   9.024  18.258  0.00  0.00    +0.000 A 
ENDROOT
BRANCH   1   7
ATOM      7  O   UNL     1       0.489  10.256  19.822  0.00  0.00    +0.000 OA
BRANCH   7   8
ATOM      8  C   UNL     1       0.203  11.073  18.678  0.00  0.00    +0.000 C 
BRANCH   8  15
ATOM      9 CL   UNL     1      -1.849  12.989  20.109  0.00  0.00    +0.000 Cl
ATOM     10  C   UNL     1      -2.232  11.777  18.939  0.00  0.00    +0.000 A 
ATOM     11  C   UNL     1      -3.580  11.627  18.595  0.00  0.00    +0.000 A 
ATOM     12  C   UNL     1      -3.968  10.669  17.673  0.00  0.00    +0.000 A 
ATOM     13  C   UNL     1      -3.010   9.843  17.077  0.00  0.00    +0.000 A 
ATOM     14  C   UNL     1      -1.666   9.988  17.417  0.00  0.00    +0.000 A 
ATOM     15  C   UNL     1      -1.259  10.959  18.350  0.00  0.00    +0.000 A 
ENDBRANCH   8  15
ENDBRANCH   7   8
ENDBRANCH   1   7
BRANCH   4  16
ATOM     16  C   UNL     1       3.375   5.546  18.401  0.00  0.00    +0.000 C 
BRANCH  16  17
ATOM     17  N   UNL     1       4.669   5.792  17.764  0.00  0.00    +0.000 N 
ATOM     18  C   UNL     1       5.881   5.799  18.412  0.00  0.00    +0.000 A 
ATOM     19  C   UNL     1       6.796   6.164  17.454  0.00  0.00    +0.000 A 
ATOM     20  N   UNL     1       6.187   6.317  16.237  0.00  0.00    +0.000 NA
ATOM     21  C   UNL     1       4.912   6.075  16.450  0.00  0.00    +0.000 A 
ENDBRANCH  16  17
BRANCH  16  22
ATOM     22  C   UNL     1       2.414   4.682  17.604  0.00  0.00    +0.000 C 
ATOM     23  C   UNL     1       2.600   3.195  17.413  0.00  0.00    +0.000 C 
ATOM     24  C   UNL     1       1.526   3.695  18.333  0.00  0.00    +0.000 C 
ENDBRANCH  16  22
ENDBRANCH   4  16
TORSDOF 6
ENDMDL
MODEL 2
REMARK VINA RESULT:      -7.6      1.104      1.304
REMARK  Name = 
REMARK  6 active torsions:
REMARK  status: ('A' for Active; 'I' for Inactive)
REMARK    1  A    between atoms: C_7  and  C_8
REMARK    2  A    between atoms: C_8  and  O_9
REMARK    3  A    between atoms: O_9  and  C_10
REMARK    4  A    between atoms: C_13  and  C_14
REMARK    5  A    between atoms: C_14  and  C_15
REMARK    6  A    between atoms: C_14  and  N_18
REMARK                            x       y       z     vdW  Elec       q    Type
REMARK                         _______ _______ _______ _____ _____    ______ ____
ROOT
ATOM      1  C   UNL     1       1.669   8.407  19.525  0.00  0.00    +0.000 A 
ATOM      2  C   UNL     1       1.683   7.393  20.479  0.00  0.00    +0.000 A 
ATOM      3  C   UNL     1       2.336   6.188  20.224  0.00  0.00    +0.000 A 
ATOM      4  C   UNL     1       2.959   5.959  18.990  0.00  0.00    +0.000 A 
ATOM      5  C   UNL     1       2.976   7.002  18.048  0.00  0.00    +0.000 A 
ATOM      6  C   UNL     1       2.325   8.212  18.310  0.00  0.00    +0.000 A 
ENDROOT
BRANCH   1   7
ATOM      7  O   UNL     1       1.041   9.614  19.680  0.00  0.00    +0.000 OA
BRANCH   7   8
ATOM      8  C   UNL     1       0.828  10.341  18.463  0.00  0.00    +0.000 C 
BRANCH   8  15
ATOM      9 CL   UNL     1      -0.495  12.684  20.105  0.00  0.00    +0.000 Cl
ATOM     10  C   UNL     1      -1.303  11.634  18.996  0.00  0.00    +0.000 A 
ATOM     11  C   UNL     1      -2.674  11.840  18.810  0.00  0.00    +0.000 A 
ATOM     12  C   UNL     1      -3.394  11.031  17.945  0.00  0.00    +0.000 A 
ATOM     13  C   UNL     1      -2.751  10.002  17.249  0.00  0.00    +0.000 A 
ATOM     14  C   UNL     1      -1.386   9.794  17.433  0.00  0.00    +0.000 A 
ATOM     15  C   UNL     1      -0.642  10.610  18.306  0.00  0.00    +0.000 A 
ENDBRANCH   8  15
ENDBRANCH   7   8
ENDBRANCH   1   7
BRANCH   4  16
ATOM     16  C   UNL     1       3.525   4.573  18.703  0.00  0.00    +0.000 C 
BRANCH  16  17
ATOM     17  N   UNL     1       4.934   4.650  18.316  0.00  0.00    +0.000 N 
ATOM     18  C   UNL     1       5.420   4.420  17.052  0.00  0.00    +0.000 A 
ATOM     19  C   UNL     1       6.786   4.506  17.173  0.00  0.00    +0.000 A 
ATOM     20  N   UNL     1       7.138   4.841  18.454  0.00  0.00    +0.000 NA
ATOM     21  C   UNL     1       6.005   4.933  19.115  0.00  0.00    +0.000 A 
ENDBRANCH  16  17
BRANCH  16  22
ATOM     22  C   UNL     1       2.624   3.833  17.731  0.00  0.00    +0.000 C 
ATOM     23  C   UNL     1       2.524   2.327  17.677  0.00  0.00    +0.000 C 
ATOM     24  C   UNL     1       1.392   3.125  18.256  0.00  0.00    +0.000 C 
ENDBRANCH  16  22
ENDBRANCH   4  16
TORSDOF 6
ENDMDL
MODEL 3
REMARK VINA RESULT:      -7.5      1.120      1.185
REMARK  Name = 
REMARK  6 active torsions:
REMARK  status: ('A' for Active; 'I' for Inactive)
REMARK    1  A    between atoms: C_7  and  C_8
REMARK    2  A    between atoms: C_8  and  O_9
REMARK    3  A    between atoms: O_9  and  C_10
REMARK    4  A    between atoms: C_13  and  C_14
REMARK    5  A    between atoms: C_14  and  C_15
REMARK    6  A    between atoms: C_14  and  N_18
REMARK                            x       y       z     vdW  Elec       q    Type
REMARK                         _______ _______ _______ _____ _____    ______ ____
ROOT
ATOM      1  C   UNL     1       1.476   8.704  19.758  0.00  0.00    +0.000 A 
ATOM      2  C   UNL     1       1.389   7.756  20.774  0.00  0.00    +0.000 A 
ATOM      3  C   UNL     1       1.879   6.465  20.585  0.00  0.00    +0.000 A 
ATOM      4  C   UNL     1       2.434   6.084  19.356  0.00  0.00    +0.000 A 
ATOM      5  C   UNL     1       2.557   7.057  18.349  0.00  0.00    +0.000 A 
ATOM      6  C   UNL     1       2.071   8.353  18.545  0.00  0.00    +0.000 A 
ENDROOT
BRANCH   1   7
ATOM      7  O   UNL     1       1.010   9.988  19.848  0.00  0.00    +0.000 OA
BRANCH   7   8
ATOM      8  C   UNL     1       0.767  10.628  18.588  0.00  0.00    +0.000 C 
BRANCH   8  15
ATOM      9 CL   UNL     1      -0.842  12.812  20.193  0.00  0.00    +0.000 Cl
ATOM     10  C   UNL     1      -1.500  11.696  19.050  0.00  0.00    +0.000 A 
ATOM     11  C   UNL     1      -2.878  11.764  18.816  0.00  0.00    +0.000 A 
ATOM     12  C   UNL     1      -3.482  10.894  17.922  0.00  0.00    +0.000 A 
ATOM     13  C   UNL     1      -2.714   9.942  17.245  0.00  0.00    +0.000 A 
ATOM     14  C   UNL     1      -1.342   9.870  17.476  0.00  0.00    +0.000 A 
ATOM     15  C   UNL     1      -0.716  10.749  18.379  0.00  0.00    +0.000 A 
ENDBRANCH   8  15
ENDBRANCH   7   8
ENDBRANCH   1   7
BRANCH   4  16
ATOM     16  C   UNL     1       2.814   4.622  19.147  0.00  0.00    +0.000 C 
BRANCH  16  17
ATOM     17  N   UNL     1       4.049   4.504  18.371  0.00  0.00    +0.000 N 
ATOM     18  C   UNL     1       5.317   4.664  18.873  0.00  0.00    +0.000 A 
ATOM     19  C   UNL     1       6.148   4.562  17.784  0.00  0.00    +0.000 A 
ATOM     20  N   UNL     1       5.429   4.285  16.651  0.00  0.00    +0.000 NA
ATOM     21  C   UNL     1       4.173   4.243  17.036  0.00  0.00    +0.000 A 
ENDBRANCH  16  17
BRANCH  16  22
ATOM     22  C   UNL     1       1.627   3.849  18.601  0.00  0.00    +0.000 C 
ATOM     23  C   UNL     1       1.583   2.340  18.531  0.00  0.00    +0.000 C 
ATOM     24  C   UNL     1       0.755   3.059  19.555  0.00  0.00    +0.000 C 
ENDBRANCH  16  22
ENDBRANCH   4  16
TORSDOF 6
ENDMDL
MODEL 4
REMARK VINA RESULT:      -7.5      1.137      1.658
REMARK  Name = 
REMARK  6 active torsions:
REMARK  status: ('A' for Active; 'I' for Inactive)
REMARK    1  A    between atoms: C_7  and  C_8
REMARK    2  A    between atoms: C_8  and  O_9
REMARK    3  A    between atoms: O_9  and  C_10
REMARK    4  A    between atoms: C_13  and  C_14
REMARK    5  A    between atoms: C_14  and  C_15
REMARK    6  A    between atoms: C_14  and  N_18
REMARK                            x       y       z     vdW  Elec       q    Type
REMARK                         _______ _______ _______ _____ _____    ______ ____
ROOT
ATOM      1  C   UNL     1       1.608   8.492  19.622  0.00  0.00    +0.000 A 
ATOM      2  C   UNL     1       2.161   8.143  18.392  0.00  0.00    +0.000 A 
ATOM      3  C   UNL     1       2.604   6.842  18.157  0.00  0.00    +0.000 A 
ATOM      4  C   UNL     1       2.537   5.871  19.164  0.00  0.00    +0.000 A 
ATOM      5  C   UNL     1       1.940   6.220  20.388  0.00  0.00    +0.000 A 
ATOM      6  C   UNL     1       1.491   7.523  20.618  0.00  0.00    +0.000 A 
ENDROOT
BRANCH   1   7
ATOM      7  O   UNL     1       1.161   9.745  19.947  0.00  0.00    +0.000 OA
BRANCH   7   8
ATOM      8  C   UNL     1       0.968  10.623  18.830  0.00  0.00    +0.000 C 
BRANCH   8  15
ATOM      9 CL   UNL     1      -0.677  12.789  20.423  0.00  0.00    +0.000 Cl
ATOM     10  C   UNL     1      -1.304  11.706  19.232  0.00  0.00    +0.000 A 
ATOM     11  C   UNL     1      -2.671  11.794  18.948  0.00  0.00    +0.000 A 
ATOM     12  C   UNL     1      -3.250  10.951  18.014  0.00  0.00    +0.000 A 
ATOM     13  C   UNL     1      -2.468  10.005  17.344  0.00  0.00    +0.000 A 
ATOM     14  C   UNL     1      -1.106   9.913  17.625  0.00  0.00    +0.000 A 
ATOM     15  C   UNL     1      -0.505  10.765  18.570  0.00  0.00    +0.000 A 
ENDBRANCH   8  15
ENDBRANCH   7   8
ENDBRANCH   1   7
BRANCH   4  16
ATOM     16  C   UNL     1       3.173   4.509  18.909  0.00  0.00    +0.000 C 
BRANCH  16  17
ATOM     17  N   UNL     1       4.579   4.648  18.526  0.00  0.00    +0.000 N 
ATOM     18  C   UNL     1       5.071   4.485  17.254  0.00  0.00    +0.000 A 
ATOM     19  C   UNL     1       6.434   4.612  17.380  0.00  0.00    +0.000 A 
ATOM     20  N   UNL     1       6.775   4.908  18.673  0.00  0.00    +0.000 NA
ATOM     21  C   UNL     1       5.640   4.936  19.337  0.00  0.00    +0.000 A 
ENDBRANCH  16  17
BRANCH  16  22
ATOM     22  C   UNL     1       2.315   3.705  17.950  0.00  0.00    +0.000 C 
ATOM     23  C   UNL     1       2.427   2.206  17.797  0.00  0.00    +0.000 C 
ATOM     24  C   UNL     1       1.240   2.792  18.504  0.00  0.00    +0.000 C 
ENDBRANCH  16  22
ENDBRANCH   4  16
TORSDOF 6
ENDMDL
MODEL 5
REMARK VINA RESULT:      -7.5      1.324      2.974
REMARK  Name = 
REMARK  6 active torsions:
REMARK  status: ('A' for Active; 'I' for Inactive)
REMARK    1  A    between atoms: C_7  and  C_8
REMARK    2  A    between atoms: C_8  and  O_9
REMARK    3  A    between atoms: O_9  and  C_10
REMARK    4  A    between atoms: C_13  and  C_14
REMARK    5  A    between atoms: C_14  and  C_15
REMARK    6  A    between atoms: C_14  and  N_18
REMARK                            x       y       z     vdW  Elec       q    Type
REMARK                         _______ _______ _______ _____ _____    ______ ____
ROOT
ATOM      1  C   UNL     1       1.840   8.461  19.120  0.00  0.00    +0.000 A 
ATOM      2  C   UNL     1       2.472   8.496  17.879  0.00  0.00    +0.000 A 
ATOM      3  C   UNL     1       3.294   7.447  17.470  0.00  0.00    +0.000 A 
ATOM      4  C   UNL     1       3.532   6.355  18.315  0.00  0.00    +0.000 A 
ATOM      5  C   UNL     1       2.859   6.306  19.548  0.00  0.00    +0.000 A 
ATOM      6  C   UNL     1       2.030   7.357  19.951  0.00  0.00    +0.000 A 
ENDROOT
BRANCH   1   7
ATOM      7  O   UNL     1       1.030   9.449  19.610  0.00  0.00    +0.000 OA
BRANCH   7   8
ATOM      8  C   UNL     1       0.824  10.553  18.719  0.00  0.00    +0.000 C 
BRANCH   8  15
ATOM      9 CL   UNL     1      -0.836  12.707  20.313  0.00  0.00    +0.000 Cl
ATOM     10  C   UNL     1      -1.453  11.630  19.111  0.00  0.00    +0.000 A 
ATOM     11  C   UNL     1      -2.818  11.718  18.819  0.00  0.00    +0.000 A 
ATOM     12  C   UNL     1      -3.390  10.879  17.876  0.00  0.00    +0.000 A 
ATOM     13  C   UNL     1      -2.601   9.938  17.206  0.00  0.00    +0.000 A 
ATOM     14  C   UNL     1      -1.241   9.847  17.495  0.00  0.00    +0.000 A 
ATOM     15  C   UNL     1      -0.648  10.694  18.449  0.00  0.00    +0.000 A 
ENDBRANCH   8  15
ENDBRANCH   7   8
ENDBRANCH   1   7
BRANCH   4  16
ATOM     16  C   UNL     1       4.557   5.310  17.888  0.00  0.00    +0.000 C 
BRANCH  16  17
ATOM     17  N   UNL     1       4.052   3.954  18.110  0.00  0.00    +0.000 N 
ATOM     18  C   UNL     1       3.136   3.312  17.314  0.00  0.00    +0.000 A 
ATOM     19  C   UNL     1       2.888   2.117  17.947  0.00  0.00    +0.000 A 
ATOM     20  N   UNL     1       3.670   1.991  19.065  0.00  0.00    +0.000 NA
ATOM     21  C   UNL     1       4.368   3.104  19.131  0.00  0.00    +0.000 A 
ENDBRANCH  16  17
BRANCH  16  22
ATOM     22  C   UNL     1       5.904   5.613  18.520  0.00  0.00    +0.000 C 
ATOM     23  C   UNL     1       7.198   4.994  18.047  0.00  0.00    +0.000 C 
ATOM     24  C   UNL     1       6.915   6.438  17.751  0.00  0.00    +0.000 C 
ENDBRANCH  16  22
ENDBRANCH   4  16
TORSDOF 6
ENDMDL
MODEL 6
REMARK VINA RESULT:      -7.4      1.909      2.768
REMARK  Name = 
REMARK  6 active torsions:
REMARK  status: ('A' for Active; 'I' for Inactive)
REMARK    1  A    between atoms: C_7  and  C_8
REMARK    2  A    between atoms: C_8  and  O_9
REMARK    3  A    between atoms: O_9  and  C_10
REMARK    4  A    between atoms: C_13  and  C_14
REMARK    5  A    between atoms: C_14  and  C_15
REMARK    6  A    between atoms: C_14  and  N_18
REMARK                            x       y       z     vdW  Elec       q    Type
REMARK                         _______ _______ _______ _____ _____    ______ ____
ROOT
ATOM      1  C   UNL     1       1.852   8.524  19.253  0.00  0.00    +0.000 A 
ATOM      2  C   UNL     1       2.384   8.115  18.033  0.00  0.00    +0.000 A 
ATOM      3  C   UNL     1       2.859   6.814  17.865  0.00  0.00    +0.000 A 
ATOM      4  C   UNL     1       2.845   5.906  18.932  0.00  0.00    +0.000 A 
ATOM      5  C   UNL     1       2.269   6.313  20.148  0.00  0.00    +0.000 A 
ATOM      6  C   UNL     1       1.788   7.615  20.310  0.00  0.00    +0.000 A 
ENDROOT
BRANCH   1   7
ATOM      7  O   UNL     1       1.379   9.781  19.514  0.00  0.00    +0.000 OA
BRANCH   7   8
ATOM      8  C   UNL     1      -0.043   9.925  19.391  0.00  0.00    +0.000 C 
BRANCH   8  15
ATOM      9 CL   UNL     1      -1.590  12.663  19.185  0.00  0.00    +0.000 Cl
ATOM     10  C   UNL     1      -1.280  11.774  20.634  0.00  0.00    +0.000 A 
ATOM     11  C   UNL     1      -1.758  12.321  21.830  0.00  0.00    +0.000 A 
ATOM     12  C   UNL     1      -1.539  11.673  23.035  0.00  0.00    +0.000 A 
ATOM     13  C   UNL     1      -0.839  10.462  23.062  0.00  0.00    +0.000 A 
ATOM     14  C   UNL     1      -0.361   9.915  21.873  0.00  0.00    +0.000 A 
ATOM     15  C   UNL     1      -0.579  10.562  20.642  0.00  0.00    +0.000 A 
ENDBRANCH   8  15
ENDBRANCH   7   8
ENDBRANCH   1   7
BRANCH   4  16
ATOM     16  C   UNL     1       3.514   4.548  18.744  0.00  0.00    +0.000 C 
BRANCH  16  17
ATOM     17  N   UNL     1       4.937   4.701  18.436  0.00  0.00    +0.000 N 
ATOM     18  C   UNL     1       5.518   4.418  17.224  0.00  0.00    +0.000 A 
ATOM     19  C   UNL     1       6.864   4.613  17.419  0.00  0.00    +0.000 A 
ATOM     20  N   UNL     1       7.108   5.063  18.689  0.00  0.00    +0.000 NA
ATOM     21  C   UNL     1       5.932   5.119  19.273  0.00  0.00    +0.000 A 
ENDBRANCH  16  17
BRANCH  16  22
ATOM     22  C   UNL     1       2.722   3.710  17.757  0.00  0.00    +0.000 C 
ATOM     23  C   UNL     1       2.728   2.199  17.762  0.00  0.00    +0.000 C 
ATOM     24  C   UNL     1       1.513   2.938  18.243  0.00  0.00    +0.000 C 
ENDBRANCH  16  22
ENDBRANCH   4  16
TORSDOF 6
ENDMDL
MODEL 7
REMARK VINA RESULT:      -7.4      1.240      2.627
REMARK  Name = 
REMARK  6 active torsions:
REMARK  status: ('A' for Active; 'I' for Inactive)
REMARK    1  A    between atoms: C_7  and  C_8
REMARK    2  A    between atoms: C_8  and  O_9
REMARK    3  A    between atoms: O_9  and  C_10
REMARK    4  A    between atoms: C_13  and  C_14
REMARK    5  A    between atoms: C_14  and  C_15
REMARK    6  A    between atoms: C_14  and  N_18
REMARK                            x       y       z     vdW  Elec       q    Type
REMARK                         _______ _______ _______ _____ _____    ______ ____
ROOT
ATOM      1  C   UNL     1       1.449   8.795  19.356  0.00  0.00    +0.000 A 
ATOM      2  C   UNL     1       1.734   7.722  20.196  0.00  0.00    +0.000 A 
ATOM      3  C   UNL     1       2.574   6.693  19.774  0.00  0.00    +0.000 A 
ATOM      4  C   UNL     1       3.118   6.699  18.482  0.00  0.00    +0.000 A 
ATOM      5  C   UNL     1       2.859   7.805  17.654  0.00  0.00    +0.000 A 
ATOM      6  C   UNL     1       2.021   8.838  18.084  0.00  0.00    +0.000 A 
ENDROOT
BRANCH   1   7
ATOM      7  O   UNL     1       0.625   9.840  19.678  0.00  0.00    +0.000 OA
BRANCH   7   8
ATOM      8  C   UNL     1       0.384  10.767  18.611  0.00  0.00    +0.000 C 
BRANCH   8  15
ATOM      9 CL   UNL     1      -1.477  12.823  20.109  0.00  0.00    +0.000 Cl
ATOM     10  C   UNL     1      -1.978  11.671  18.922  0.00  0.00    +0.000 A 
ATOM     11  C   UNL     1      -3.338  11.645  18.596  0.00  0.00    +0.000 A 
ATOM     12  C   UNL     1      -3.819  10.742  17.662  0.00  0.00    +0.000 A 
ATOM     13  C   UNL     1      -2.944   9.849  17.036  0.00  0.00    +0.000 A 
ATOM     14  C   UNL     1      -1.588   9.871  17.359  0.00  0.00    +0.000 A 
ATOM     15  C   UNL     1      -1.087  10.786  18.304  0.00  0.00    +0.000 A 
ENDBRANCH   8  15
ENDBRANCH   7   8
ENDBRANCH   1   7
BRANCH   4  16
ATOM     16  C   UNL     1       3.903   5.478  18.015  0.00  0.00    +0.000 C 
BRANCH  16  17
ATOM     17  N   UNL     1       3.141   4.247  18.227  0.00  0.00    +0.000 N 
ATOM     18  C   UNL     1       3.441   3.282  19.157  0.00  0.00    +0.000 A 
ATOM     19  C   UNL     1       2.528   2.279  18.938  0.00  0.00    +0.000 A 
ATOM     20  N   UNL     1       1.648   2.633  17.950  0.00  0.00    +0.000 NA
ATOM     21  C   UNL     1       2.032   3.825  17.550  0.00  0.00    +0.000 A 
ENDBRANCH  16  17
BRANCH  16  22
ATOM     22  C   UNL     1       5.295   5.492  18.620  0.00  0.00    +0.000 C 
ATOM     23  C   UNL     1       6.454   4.709  18.049  0.00  0.00    +0.000 C 
ATOM     24  C   UNL     1       6.416   6.200  17.886  0.00  0.00    +0.000 C 
ENDBRANCH  16  22
ENDBRANCH   4  16
TORSDOF 6
ENDMDL
MODEL 8
REMARK VINA RESULT:      -7.3      1.453      2.126
REMARK  Name = 
REMARK  6 active torsions:
REMARK  status: ('A' for Active; 'I' for Inactive)
REMARK    1  A    between atoms: C_7  and  C_8
REMARK    2  A    between atoms: C_8  and  O_9
REMARK    3  A    between atoms: O_9  and  C_10
REMARK    4  A    between atoms: C_13  and  C_14
REMARK    5  A    between atoms: C_14  and  C_15
REMARK    6  A    between atoms: C_14  and  N_18
REMARK                            x       y       z     vdW  Elec       q    Type
REMARK                         _______ _______ _______ _____ _____    ______ ____
ROOT
ATOM      1  C   UNL     1       2.203   7.888  19.080  0.00  0.00    +0.000 A 
ATOM      2  C   UNL     1       2.949   7.628  17.933  0.00  0.00    +0.000 A 
ATOM      3  C   UNL     1       3.549   6.384  17.743  0.00  0.00    +0.000 A 
ATOM      4  C   UNL     1       3.446   5.384  18.718  0.00  0.00    +0.000 A 
ATOM      5  C   UNL     1       2.657   5.639  19.854  0.00  0.00    +0.000 A 
ATOM      6  C   UNL     1       2.051   6.885  20.038  0.00  0.00    +0.000 A 
ENDROOT
BRANCH   1   7
ATOM      7  O   UNL     1       1.592   9.081  19.358  0.00  0.00    +0.000 OA
BRANCH   7   8
ATOM      8  C   UNL     1       1.296   9.886  18.210  0.00  0.00    +0.000 C 
BRANCH   8  15
ATOM      9 CL   UNL     1       0.815  12.355  20.109  0.00  0.00    +0.000 Cl
ATOM     10  C   UNL     1      -0.386  11.543  19.170  0.00  0.00    +0.000 A 
ATOM     11  C   UNL     1      -1.697  12.022  19.262  0.00  0.00    +0.000 A 
ATOM     12  C   UNL     1      -2.718  11.417  18.548  0.00  0.00    +0.000 A 
ATOM     13  C   UNL     1      -2.442  10.319  17.726  0.00  0.00    +0.000 A 
ATOM     14  C   UNL     1      -1.138   9.838  17.633  0.00  0.00    +0.000 A 
ATOM     15  C   UNL     1      -0.092  10.446  18.351  0.00  0.00    +0.000 A 
ENDBRANCH   8  15
ENDBRANCH   7   8
ENDBRANCH   1   7
BRANCH   4  16
ATOM     16  C   UNL     1       4.245   4.098  18.535  0.00  0.00    +0.000 C 
BRANCH  16  17
ATOM     17  N   UNL     1       5.453   4.338  17.744  0.00  0.00    +0.000 N 
ATOM     18  C   UNL     1       5.557   4.162  16.386  0.00  0.00    +0.000 A 
ATOM     19  C   UNL     1       6.877   4.408  16.094  0.00  0.00    +0.000 A 
ATOM     20  N   UNL     1       7.559   4.786  17.220  0.00  0.00    +0.000 NA
ATOM     21  C   UNL     1       6.677   4.747  18.194  0.00  0.00    +0.000 A 
ENDBRANCH  16  17
BRANCH  16  22
ATOM     22  C   UNL     1       3.342   2.992  18.021  0.00  0.00    +0.000 C 
ATOM     23  C   UNL     1       3.668   1.524  18.163  0.00  0.00    +0.000 C 
ATOM     24  C   UNL     1       2.589   2.129  19.013  0.00  0.00    +0.000 C 
ENDBRANCH  16  22
ENDBRANCH   4  16
TORSDOF 6
ENDMDL
MODEL 9
REMARK VINA RESULT:      -7.3      2.331      3.869
REMARK  Name = 
REMARK  6 active torsions:
REMARK  status: ('A' for Active; 'I' for Inactive)
REMARK    1  A    between atoms: C_7  and  C_8
REMARK    2  A    between atoms: C_8  and  O_9
REMARK    3  A    between atoms: O_9  and  C_10
REMARK    4  A    between atoms: C_13  and  C_14
REMARK    5  A    between atoms: C_14  and  C_15
REMARK    6  A    between atoms: C_14  and  N_18
REMARK                            x       y       z     vdW  Elec       q    Type
REMARK                         _______ _______ _______ _____ _____    ______ ____
ROOT
ATOM      1  C   UNL     1       2.026   8.227  18.972  0.00  0.00    +0.000 A 
ATOM      2  C   UNL     1       2.733   8.274  17.773  0.00  0.00    +0.000 A 
ATOM      3  C   UNL     1       3.593   7.237  17.415  0.00  0.00    +0.000 A 
ATOM      4  C   UNL     1       3.793   6.146  18.270  0.00  0.00    +0.000 A 
ATOM      5  C   UNL     1       3.046   6.086  19.460  0.00  0.00    +0.000 A 
ATOM      6  C   UNL     1       2.179   7.124  19.812  0.00  0.00    +0.000 A 
ENDROOT
BRANCH   1   7
ATOM      7  O   UNL     1       1.174   9.203  19.413  0.00  0.00    +0.000 OA
BRANCH   7   8
ATOM      8  C   UNL     1       0.925   9.191  20.825  0.00  0.00    +0.000 C 
BRANCH   8  15
ATOM      9 CL   UNL     1      -0.066   9.516  23.799  0.00  0.00    +0.000 Cl
ATOM     10  C   UNL     1      -0.544  10.489  22.454  0.00  0.00    +0.000 A 
ATOM     11  C   UNL     1      -1.459  11.517  22.705  0.00  0.00    +0.000 A 
ATOM     12  C   UNL     1      -1.899  12.333  21.675  0.00  0.00    +0.000 A 
ATOM     13  C   UNL     1      -1.427  12.134  20.374  0.00  0.00    +0.000 A 
ATOM     14  C   UNL     1      -0.516  11.110  20.119  0.00  0.00    +0.000 A 
ATOM     15  C   UNL     1      -0.060  10.277  21.157  0.00  0.00    +0.000 A 
ENDBRANCH   8  15
ENDBRANCH   7   8
ENDBRANCH   1   7
BRANCH   4  16
ATOM     16  C   UNL     1       4.857   5.117  17.906  0.00  0.00    +0.000 C 
BRANCH  16  17
ATOM     17  N   UNL     1       4.432   3.766  18.277  0.00  0.00    +0.000 N 
ATOM     18  C   UNL     1       3.685   2.927  17.487  0.00  0.00    +0.000 A 
ATOM     19  C   UNL     1       3.446   1.821  18.267  0.00  0.00    +0.000 A 
ATOM     20  N   UNL     1       4.076   1.938  19.477  0.00  0.00    +0.000 NA
ATOM     21  C   UNL     1       4.671   3.110  19.451  0.00  0.00    +0.000 A 
ENDBRANCH  16  17
BRANCH  16  22
ATOM     22  C   UNL     1       6.206   5.546  18.453  0.00  0.00    +0.000 C 
ATOM     23  C   UNL     1       7.512   4.919  18.024  0.00  0.00    +0.000 C 
ATOM     24  C   UNL     1       7.164   6.301  17.555  0.00  0.00    +0.000 C 
ENDBRANCH  16  22
ENDBRANCH   4  16
TORSDOF 6
ENDMDL
