MODEL 1
REMARK VINA RESULT:      -8.0      0.000      0.000
REMARK  Name = 
REMARK  8 active torsions:
REMARK  status: ('A' for Active; 'I' for Inactive)
REMARK    1  A    between atoms: C_1  and  C_2
REMARK    2  A    between atoms: C_6  and  N_7
REMARK    3  A    between atoms: C_8  and  C_10
REMARK    4  A    between atoms: C_10  and  N_11
REMARK    5  A    between atoms: C_12  and  C_13
REMARK    6  A    between atoms: C_16  and  C_17
REMARK    7  A    between atoms: N_19  and  C_20
REMARK    8  A    between atoms: C_27  and  C_28
REMARK                            x       y       z     vdW  Elec       q    Type
REMARK                         _______ _______ _______ _____ _____    ______ ____
ROOT
ATOM      1  N   UNL     1       4.259   4.184  18.664  0.00  0.00    +0.000 N 
ATOM      2  C   UNL     1       3.837   3.513  17.540  0.00  0.00    +0.000 A 
ATOM      3  C   UNL     1       2.719   2.488  17.608  0.00  0.00    +0.000 C 
ATOM      4  N   UNL     1       4.364   3.703  16.372  0.00  0.00    +0.000 NA
ATOM      5  C   UNL     1       5.354   4.639  16.258  0.00  0.00    +0.000 A 
ATOM      6  C   UNL     1       5.927   5.286  17.278  0.00  0.00    +0.000 A 
ATOM      7  C   UNL     1       5.418   4.948  18.620  0.00  0.00    +0.000 A 
ATOM      8  O   UNL     1       5.999   5.334  19.638  0.00  0.00    +0.000 OA
ENDROOT
BRANCH   6   9
ATOM      9  C   UNL     1       6.968   6.312  16.997  0.00  0.00    +0.000 C 
ATOM     10  O   UNL     1       7.632   6.286  15.964  0.00  0.00    +0.000 OA
ATOM     11  N   UNL     1       7.118   7.283  17.956  0.00  0.00    +0.000 N 
ATOM     12  H   UNL     1       6.583   7.198  18.819  0.00  0.00    +0.000 HD
BRANCH  11  13
ATOM     13  C   UNL     1       8.106   8.333  17.849  0.00  0.00    +0.000 C 
ATOM     14  C   UNL     1       7.493   9.684  17.494  0.00  0.00    +0.000 C 
ATOM     15  C   UNL     1       8.588  10.678  17.856  0.00  0.00    +0.000 C 
ATOM     16  C   UNL     1       9.369  10.038  19.006  0.00  0.00    +0.000 C 
ATOM     17  C   UNL     1       8.807   8.626  19.172  0.00  0.00    +0.000 C 
ENDBRANCH  11  13
ENDBRANCH   6   9
BRANCH   1  18
ATOM     18  C   UNL     1       3.611   4.105  19.972  0.00  0.00    +0.000 C 
BRANCH  18  20
ATOM     19  N   UNL     1       2.814   6.410  20.120  0.00  0.00    +0.000 N 
ATOM     20  C   UNL     1       2.432   5.077  20.032  0.00  0.00    +0.000 C 
ATOM     21  O   UNL     1       1.292   4.634  20.092  0.00  0.00    +0.000 OA
ATOM     22  H   UNL     1       3.789   6.566  20.354  0.00  0.00    +0.000 HD
BRANCH  19  28
ATOM     23  C   UNL     1       0.799  10.588  18.138  0.00  0.00    +0.000 C 
ATOM     24  C   UNL     1       0.968   9.570  19.239  0.00  0.00    +0.000 A 
ATOM     25  C   UNL     1       0.256   9.774  20.429  0.00  0.00    +0.000 A 
ATOM     26  C   UNL     1       0.353   8.865  21.469  0.00  0.00    +0.000 A 
ATOM     27  C   UNL     1       1.175   7.750  21.340  0.00  0.00    +0.000 A 
ATOM     28  C   UNL     1       1.943   7.530  20.187  0.00  0.00    +0.000 A 
ATOM     29  C   UNL     1       1.824   8.438  19.101  0.00  0.00    +0.000 A 
ATOM     30  C   UNL     1       2.583   8.292  17.803  0.00  0.00    +0.000 C 
ENDBRANCH  19  28
ENDBRANCH  18  20
ENDBRANCH   1  18
TORSDOF 5
ENDMDL
MODEL 2
REMARK VINA RESULT:      -7.5      4.612      7.839
REMARK  Name = 
REMARK  8 active torsions:
REMARK  status: ('A' for Active; 'I' for Inactive)
REMARK    1  A    between atoms: C_1  and  C_2
REMARK    2  A    between atoms: C_6  and  N_7
REMARK    3  A    between atoms: C_8  and  C_10
REMARK    4  A    between atoms: C_10  and  N_11
REMARK    5  A    between atoms: C_12  and  C_13
REMARK    6  A    between atoms: C_16  and  C_17
REMARK    7  A    between atoms: N_19  and  C_20
REMARK    8  A    between atoms: C_27  and  C_28
REMARK                            x       y       z     vdW  Elec       q    Type
REMARK                         _______ _______ _______ _____ _____    ______ ____
ROOT
ATOM      1  N   UNL     1       0.141  10.838  19.690  0.00  0.00    +0.000 N 
ATOM      2  C   UNL     1       0.179  11.234  21.006  0.00  0.00    +0.000 A 
ATOM      3  C   UNL     1      -0.368  12.583  21.438  0.00  0.00    +0.000 C 
ATOM      4  N   UNL     1       0.686  10.499  21.945  0.00  0.00    +0.000 NA
ATOM      5  C   UNL     1       1.164   9.264  21.607  0.00  0.00    +0.000 A 
ATOM      6  C   UNL     1       1.281   8.795  20.360  0.00  0.00    +0.000 A 
ATOM      7  C   UNL     1       0.839   9.706  19.287  0.00  0.00    +0.000 A 
ATOM      8  O   UNL     1       1.078   9.460  18.102  0.00  0.00    +0.000 OA
ENDROOT
BRANCH   6   9
ATOM      9  C   UNL     1       1.783   7.410  20.146  0.00  0.00    +0.000 C 
ATOM     10  O   UNL     1       1.541   6.510  20.945  0.00  0.00    +0.000 OA
ATOM     11  N   UNL     1       2.511   7.214  18.998  0.00  0.00    +0.000 N 
ATOM     12  H   UNL     1       2.732   8.024  18.420  0.00  0.00    +0.000 HD
BRANCH  11  13
ATOM     13  C   UNL     1       3.094   5.935  18.659  0.00  0.00    +0.000 C 
ATOM     14  C   UNL     1       2.100   4.997  17.983  0.00  0.00    +0.000 C 
ATOM     15  C   UNL     1       2.988   3.940  17.341  0.00  0.00    +0.000 C 
ATOM     16  C   UNL     1       4.305   4.646  17.013  0.00  0.00    +0.000 C 
ATOM     17  C   UNL     1       4.204   6.046  17.617  0.00  0.00    +0.000 C 
ENDBRANCH  11  13
ENDBRANCH   6   9
BRANCH   1  18
ATOM     18  C   UNL     1      -0.537  11.568  18.621  0.00  0.00    +0.000 C 
BRANCH  18  20
ATOM     19  N   UNL     1      -2.888  12.160  18.929  0.00  0.00    +0.000 N 
ATOM     20  C   UNL     1      -2.008  11.153  18.554  0.00  0.00    +0.000 C 
ATOM     21  O   UNL     1      -2.291   9.994  18.283  0.00  0.00    +0.000 OA
ATOM     22  H   UNL     1      -2.464  12.952  19.402  0.00  0.00    +0.000 HD
BRANCH  19  28
ATOM     23  C   UNL     1      -7.299  12.463  21.357  0.00  0.00    +0.000 C 
ATOM     24  C   UNL     1      -6.453  12.199  20.136  0.00  0.00    +0.000 A 
ATOM     25  C   UNL     1      -7.108  11.782  18.968  0.00  0.00    +0.000 A 
ATOM     26  C   UNL     1      -6.390  11.544  17.809  0.00  0.00    +0.000 A 
ATOM     27  C   UNL     1      -5.008  11.700  17.805  0.00  0.00    +0.000 A 
ATOM     28  C   UNL     1      -4.305  12.068  18.962  0.00  0.00    +0.000 A 
ATOM     29  C   UNL     1      -5.036  12.350  20.147  0.00  0.00    +0.000 A 
ATOM     30  C   UNL     1      -4.390  12.774  21.445  0.00  0.00    +0.000 C 
ENDBRANCH  19  28
ENDBRANCH  18  20
ENDBRANCH   1  18
TORSDOF 5
ENDMDL
MODEL 3
REMARK VINA RESULT:      -7.4      3.012      3.635
REMARK  Name = 
REMARK  8 active torsions:
REMARK  status: ('A' for Active; 'I' for Inactive)
REMARK    1  A    between atoms: C_1  and  C_2
REMARK    2  A    between atoms: C_6  and  N_7
REMARK    3  A    between atoms: C_8  and  C_10
REMARK    4  A    between atoms: C_10  and  N_11
REMARK    5  A    between atoms: C_12  and  C_13
REMARK    6  A    between atoms: C_16  and  C_17
REMARK    7  A    between atoms: N_19  and  C_20
REMARK    8  A    between atoms: C_27  and  C_28
REMARK                            x       y       z     vdW  Elec       q    Type
REMARK                         _______ _______ _______ _____ _____    ______ ____
ROOT
ATOM      1  N   UNL     1       3.011   4.083  19.516  0.00  0.00    +0.000 N 
ATOM      2  C   UNL     1       2.418   2.907  19.120  0.00  0.00    +0.000 A 
ATOM      3  C   UNL     1       1.568   2.092  20.079  0.00  0.00    +0.000 C 
ATOM      4  N   UNL     1       2.552   2.421  17.927  0.00  0.00    +0.000 NA
ATOM      5  C   UNL     1       3.284   3.137  17.021  0.00  0.00    +0.000 A 
ATOM      6  C   UNL     1       3.995   4.236  17.296  0.00  0.00    +0.000 A 
ATOM      7  C   UNL     1       3.953   4.693  18.698  0.00  0.00    +0.000 A 
ATOM      8  O   UNL     1       4.717   5.573  19.105  0.00  0.00    +0.000 OA
ENDROOT
BRANCH   6   9
ATOM      9  C   UNL     1       4.713   4.935  16.195  0.00  0.00    +0.000 C 
ATOM     10  O   UNL     1       4.890   6.150  16.216  0.00  0.00    +0.000 OA
ATOM     11  N   UNL     1       5.168   4.130  15.180  0.00  0.00    +0.000 N 
ATOM     12  H   UNL     1       4.921   3.142  15.197  0.00  0.00    +0.000 HD
BRANCH  11  13
ATOM     13  C   UNL     1       5.858   4.657  14.024  0.00  0.00    +0.000 C 
ATOM     14  C   UNL     1       7.311   5.014  14.317  0.00  0.00    +0.000 C 
ATOM     15  C   UNL     1       7.939   5.117  12.934  0.00  0.00    +0.000 C 
ATOM     16  C   UNL     1       7.151   4.152  12.046  0.00  0.00    +0.000 C 
ATOM     17  C   UNL     1       5.990   3.638  12.896  0.00  0.00    +0.000 C 
ENDBRANCH  11  13
ENDBRANCH   6   9
BRANCH   1  18
ATOM     18  C   UNL     1       2.781   4.738  20.802  0.00  0.00    +0.000 C 
BRANCH  18  20
ATOM     19  N   UNL     1       2.110   7.087  20.808  0.00  0.00    +0.000 N 
ATOM     20  C   UNL     1       1.667   5.778  20.669  0.00  0.00    +0.000 C 
ATOM     21  O   UNL     1       0.508   5.403  20.551  0.00  0.00    +0.000 OA
ATOM     22  H   UNL     1       3.043   7.190  21.192  0.00  0.00    +0.000 HD
BRANCH  19  28
ATOM     23  C   UNL     1       0.331  11.087  18.303  0.00  0.00    +0.000 C 
ATOM     24  C   UNL     1       0.448  10.212  19.525  0.00  0.00    +0.000 A 
ATOM     25  C   UNL     1      -0.241  10.611  20.680  0.00  0.00    +0.000 A 
ATOM     26  C   UNL     1      -0.189   9.839  21.828  0.00  0.00    +0.000 A 
ATOM     27  C   UNL     1       0.564   8.670  21.845  0.00  0.00    +0.000 A 
ATOM     28  C   UNL     1       1.308   8.257  20.730  0.00  0.00    +0.000 A 
ATOM     29  C   UNL     1       1.234   9.022  19.535  0.00  0.00    +0.000 A 
ATOM     30  C   UNL     1       1.973   8.665  18.267  0.00  0.00    +0.000 C 
ENDBRANCH  19  28
ENDBRANCH  18  20
ENDBRANCH   1  18
TORSDOF 5
ENDMDL
MODEL 4
REMARK VINA RESULT:      -7.4      4.585      8.145
REMARK  Name = 
REMARK  8 active torsions:
REMARK  status: ('A' for Active; 'I' for Inactive)
REMARK    1  A    between atoms: C_1  and  C_2
REMARK    2  A    between atoms: C_6  and  N_7
REMARK    3  A    between atoms: C_8  and  C_10
REMARK    4  A    between atoms: C_10  and  N_11
REMARK    5  A    between atoms: C_12  and  C_13
REMARK    6  A    between atoms: C_16  and  C_17
REMARK    7  A    between atoms: N_19  and  C_20
REMARK    8  A    between atoms: C_27  and  C_28
REMARK                            x       y       z     vdW  Elec       q    Type
REMARK                         _______ _______ _______ _____ _____    ______ ____
ROOT
ATOM      1  N   UNL     1       0.251  10.713  19.961  0.00  0.00    +0.000 N 
ATOM      2  C   UNL     1       0.202  10.875  21.326  0.00  0.00    +0.000 A 
ATOM      3  C   UNL     1      -0.427  12.109  21.949  0.00  0.00    +0.000 C 
ATOM      4  N   UNL     1       0.690  10.006  22.153  0.00  0.00    +0.000 NA
ATOM      5  C   UNL     1       1.239   8.865  21.637  0.00  0.00    +0.000 A 
ATOM      6  C   UNL     1       1.443   8.625  20.337  0.00  0.00    +0.000 A 
ATOM      7  C   UNL     1       1.018   9.692  19.413  0.00  0.00    +0.000 A 
ATOM      8  O   UNL     1       1.331   9.665  18.219  0.00  0.00    +0.000 OA
ENDROOT
BRANCH   6   9
ATOM      9  C   UNL     1       2.016   7.316  19.919  0.00  0.00    +0.000 C 
ATOM     10  O   UNL     1       2.712   7.214  18.912  0.00  0.00    +0.000 OA
ATOM     11  N   UNL     1       1.726   6.254  20.738  0.00  0.00    +0.000 N 
ATOM     12  H   UNL     1       1.083   6.401  21.515  0.00  0.00    +0.000 HD
BRANCH  11  13
ATOM     13  C   UNL     1       2.181   4.910  20.456  0.00  0.00    +0.000 C 
ATOM     14  C   UNL     1       2.298   4.053  21.712  0.00  0.00    +0.000 C 
ATOM     15  C   UNL     1       2.352   2.631  21.168  0.00  0.00    +0.000 C 
ATOM     16  C   UNL     1       1.554   2.653  19.863  0.00  0.00    +0.000 C 
ATOM     17  C   UNL     1       1.195   4.116  19.604  0.00  0.00    +0.000 C 
ENDBRANCH  11  13
ENDBRANCH   6   9
BRANCH   1  18
ATOM     18  C   UNL     1      -0.401  11.594  18.995  0.00  0.00    +0.000 C 
BRANCH  18  20
ATOM     19  N   UNL     1      -2.770  12.176  19.134  0.00  0.00    +0.000 N 
ATOM     20  C   UNL     1      -1.861  11.178  18.808  0.00  0.00    +0.000 C 
ATOM     21  O   UNL     1      -2.119  10.024  18.492  0.00  0.00    +0.000 OA
ATOM     22  H   UNL     1      -2.386  12.958  19.654  0.00  0.00    +0.000 HD
BRANCH  19  28
ATOM     23  C   UNL     1      -7.353  12.403  21.229  0.00  0.00    +0.000 C 
ATOM     24  C   UNL     1      -6.417  12.175  20.069  0.00  0.00    +0.000 A 
ATOM     25  C   UNL     1      -6.980  11.791  18.844  0.00  0.00    +0.000 A 
ATOM     26  C   UNL     1      -6.176  11.586  17.736  0.00  0.00    +0.000 A 
ATOM     27  C   UNL     1      -4.798  11.745  17.841  0.00  0.00    +0.000 A 
ATOM     28  C   UNL     1      -4.186  12.081  19.057  0.00  0.00    +0.000 A 
ATOM     29  C   UNL     1      -5.004  12.328  20.191  0.00  0.00    +0.000 A 
ATOM     30  C   UNL     1      -4.460  12.716  21.546  0.00  0.00    +0.000 C 
ENDBRANCH  19  28
ENDBRANCH  18  20
ENDBRANCH   1  18
TORSDOF 5
ENDMDL
MODEL 5
REMARK VINA RESULT:      -7.3      3.032      4.062
REMARK  Name = 
REMARK  8 active torsions:
REMARK  status: ('A' for Active; 'I' for Inactive)
REMARK    1  A    between atoms: C_1  and  C_2
REMARK    2  A    between atoms: C_6  and  N_7
REMARK    3  A    between atoms: C_8  and  C_10
REMARK    4  A    between atoms: C_10  and  N_11
REMARK    5  A    between atoms: C_12  and  C_13
REMARK    6  A    between atoms: C_16  and  C_17
REMARK    7  A    between atoms: N_19  and  C_20
REMARK    8  A    between atoms: C_27  and  C_28
REMARK                            x       y       z     vdW  Elec       q    Type
REMARK                         _______ _______ _______ _____ _____    ______ ____
ROOT
ATOM      1  N   UNL     1       3.093   4.735  19.394  0.00  0.00    +0.000 N 
ATOM      2  C   UNL     1       2.170   3.797  18.991  0.00  0.00    +0.000 A 
ATOM      3  C   UNL     1       0.854   3.622  19.727  0.00  0.00    +0.000 C 
ATOM      4  N   UNL     1       2.367   3.009  17.982  0.00  0.00    +0.000 NA
ATOM      5  C   UNL     1       3.526   3.151  17.272  0.00  0.00    +0.000 A 
ATOM      6  C   UNL     1       4.547   3.946  17.609  0.00  0.00    +0.000 A 
ATOM      7  C   UNL     1       4.370   4.728  18.847  0.00  0.00    +0.000 A 
ATOM      8  O   UNL     1       5.313   5.340  19.355  0.00  0.00    +0.000 OA
ENDROOT
BRANCH   6   9
ATOM      9  C   UNL     1       5.733   4.029  16.714  0.00  0.00    +0.000 C 
ATOM     10  O   UNL     1       6.857   4.249  17.158  0.00  0.00    +0.000 OA
ATOM     11  N   UNL     1       5.484   3.829  15.379  0.00  0.00    +0.000 N 
ATOM     12  H   UNL     1       4.516   3.723  15.077  0.00  0.00    +0.000 HD
BRANCH  11  13
ATOM     13  C   UNL     1       6.523   3.906  14.376  0.00  0.00    +0.000 C 
ATOM     14  C   UNL     1       6.014   3.579  12.976  0.00  0.00    +0.000 C 
ATOM     15  C   UNL     1       7.102   4.129  12.064  0.00  0.00    +0.000 C 
ATOM     16  C   UNL     1       7.716   5.312  12.815  0.00  0.00    +0.000 C 
ATOM     17  C   UNL     1       7.078   5.316  14.204  0.00  0.00    +0.000 C 
ENDBRANCH  11  13
ENDBRANCH   6   9
BRANCH   1  18
ATOM     18  C   UNL     1       2.863   5.733  20.436  0.00  0.00    +0.000 C 
BRANCH  18  20
ATOM     19  N   UNL     1       1.659   7.835  20.759  0.00  0.00    +0.000 N 
ATOM     20  C   UNL     1       2.258   6.998  19.825  0.00  0.00    +0.000 C 
ATOM     21  O   UNL     1       2.258   7.135  18.609  0.00  0.00    +0.000 OA
ATOM     22  H   UNL     1       1.498   7.420  21.671  0.00  0.00    +0.000 HD
BRANCH  19  28
ATOM     23  C   UNL     1      -1.057  11.835  22.195  0.00  0.00    +0.000 C 
ATOM     24  C   UNL     1      -0.309  11.017  21.172  0.00  0.00    +0.000 A 
ATOM     25  C   UNL     1      -0.286  11.488  19.852  0.00  0.00    +0.000 A 
ATOM     26  C   UNL     1       0.401  10.793  18.871  0.00  0.00    +0.000 A 
ATOM     27  C   UNL     1       1.059   9.610  19.192  0.00  0.00    +0.000 A 
ATOM     28  C   UNL     1       1.023   9.075  20.488  0.00  0.00    +0.000 A 
ATOM     29  C   UNL     1       0.351   9.798  21.509  0.00  0.00    +0.000 A 
ATOM     30  C   UNL     1       0.264   9.332  22.943  0.00  0.00    +0.000 C 
ENDBRANCH  19  28
ENDBRANCH  18  20
ENDBRANCH   1  18
TORSDOF 5
ENDMDL
MODEL 6
REMARK VINA RESULT:      -7.2      3.038      3.959
REMARK  Name = 
REMARK  8 active torsions:
REMARK  status: ('A' for Active; 'I' for Inactive)
REMARK    1  A    between atoms: C_1  and  C_2
REMARK    2  A    between atoms: C_6  and  N_7
REMARK    3  A    between atoms: C_8  and  C_10
REMARK    4  A    between atoms: C_10  and  N_11
REMARK    5  A    between atoms: C_12  and  C_13
REMARK    6  A    between atoms: C_16  and  C_17
REMARK    7  A    between atoms: N_19  and  C_20
REMARK    8  A    between atoms: C_27  and  C_28
REMARK                            x       y       z     vdW  Elec       q    Type
REMARK                         _______ _______ _______ _____ _____    ______ ____
ROOT
ATOM      1  N   UNL     1       3.106   4.283  19.540  0.00  0.00    +0.000 N 
ATOM      2  C   UNL     1       2.592   3.045  19.235  0.00  0.00    +0.000 A 
ATOM      3  C   UNL     1       1.789   2.255  20.253  0.00  0.00    +0.000 C 
ATOM      4  N   UNL     1       2.765   2.478  18.084  0.00  0.00    +0.000 NA
ATOM      5  C   UNL     1       3.457   3.166  17.126  0.00  0.00    +0.000 A 
ATOM      6  C   UNL     1       4.095   4.326  17.317  0.00  0.00    +0.000 A 
ATOM      7  C   UNL     1       4.015   4.886  18.678  0.00  0.00    +0.000 A 
ATOM      8  O   UNL     1       4.718   5.841  19.018  0.00  0.00    +0.000 OA
ENDROOT
BRANCH   6   9
ATOM      9  C   UNL     1       4.776   4.981  16.167  0.00  0.00    +0.000 C 
ATOM     10  O   UNL     1       4.927   6.199  16.121  0.00  0.00    +0.000 OA
ATOM     11  N   UNL     1       5.228   4.135  15.185  0.00  0.00    +0.000 N 
ATOM     12  H   UNL     1       5.002   3.144  15.258  0.00  0.00    +0.000 HD
BRANCH  11  13
ATOM     13  C   UNL     1       5.883   4.615  13.988  0.00  0.00    +0.000 C 
ATOM     14  C   UNL     1       7.345   4.979  14.224  0.00  0.00    +0.000 C 
ATOM     15  C   UNL     1       7.931   5.027  12.820  0.00  0.00    +0.000 C 
ATOM     16  C   UNL     1       7.115   4.031  11.993  0.00  0.00    +0.000 C 
ATOM     17  C   UNL     1       5.980   3.553  12.897  0.00  0.00    +0.000 C 
ENDBRANCH  11  13
ENDBRANCH   6   9
BRANCH   1  18
ATOM     18  C   UNL     1       2.827   5.020  20.770  0.00  0.00    +0.000 C 
BRANCH  18  20
ATOM     19  N   UNL     1       2.274   7.345  20.259  0.00  0.00    +0.000 N 
ATOM     20  C   UNL     1       1.756   6.082  20.514  0.00  0.00    +0.000 C 
ATOM     21  O   UNL     1       0.575   5.784  20.639  0.00  0.00    +0.000 OA
ATOM     22  H   UNL     1       3.256   7.463  20.487  0.00  0.00    +0.000 HD
BRANCH  19  28
ATOM     23  C   UNL     1      -0.420  11.340  21.749  0.00  0.00    +0.000 C 
ATOM     24  C   UNL     1       0.203  10.457  20.696  0.00  0.00    +0.000 A 
ATOM     25  C   UNL     1      -0.018  10.791  19.353  0.00  0.00    +0.000 A 
ATOM     26  C   UNL     1       0.543  10.032  18.340  0.00  0.00    +0.000 A 
ATOM     27  C   UNL     1       1.317   8.920  18.656  0.00  0.00    +0.000 A 
ATOM     28  C   UNL     1       1.525   8.520  19.984  0.00  0.00    +0.000 A 
ATOM     29  C   UNL     1       0.984   9.312  21.031  0.00  0.00    +0.000 A 
ATOM     30  C   UNL     1       1.160   8.992  22.497  0.00  0.00    +0.000 C 
ENDBRANCH  19  28
ENDBRANCH  18  20
ENDBRANCH   1  18
TORSDOF 5
ENDMDL
MODEL 7
REMARK VINA RESULT:      -7.2      0.561      1.497
REMARK  Name = 
REMARK  8 active torsions:
REMARK  status: ('A' for Active; 'I' for Inactive)
REMARK    1  A    between atoms: C_1  and  C_2
REMARK    2  A    between atoms: C_6  and  N_7
REMARK    3  A    between atoms: C_8  and  C_10
REMARK    4  A    between atoms: C_10  and  N_11
REMARK    5  A    between atoms: C_12  and  C_13
REMARK    6  A    between atoms: C_16  and  C_17
REMARK    7  A    between atoms: N_19  and  C_20
REMARK    8  A    between atoms: C_27  and  C_28
REMARK                            x       y       z     vdW  Elec       q    Type
REMARK                         _______ _______ _______ _____ _____    ______ ____
ROOT
ATOM      1  N   UNL     1       4.213   4.435  18.651  0.00  0.00    +0.000 N 
ATOM      2  C   UNL     1       3.880   3.677  17.552  0.00  0.00    +0.000 A 
ATOM      3  C   UNL     1       2.750   2.664  17.608  0.00  0.00    +0.000 C 
ATOM      4  N   UNL     1       4.505   3.770  16.421  0.00  0.00    +0.000 NA
ATOM      5  C   UNL     1       5.510   4.691  16.316  0.00  0.00    +0.000 A 
ATOM      6  C   UNL     1       6.002   5.417  17.326  0.00  0.00    +0.000 A 
ATOM      7  C   UNL     1       5.379   5.190  18.643  0.00  0.00    +0.000 A 
ATOM      8  O   UNL     1       5.876   5.655  19.673  0.00  0.00    +0.000 OA
ENDROOT
BRANCH   6   9
ATOM      9  C   UNL     1       7.073   6.414  17.053  0.00  0.00    +0.000 C 
ATOM     10  O   UNL     1       7.810   6.310  16.076  0.00  0.00    +0.000 OA
ATOM     11  N   UNL     1       7.163   7.448  17.951  0.00  0.00    +0.000 N 
ATOM     12  H   UNL     1       6.565   7.428  18.776  0.00  0.00    +0.000 HD
BRANCH  11  13
ATOM     13  C   UNL     1       8.169   8.482  17.844  0.00  0.00    +0.000 C 
ATOM     14  C   UNL     1       7.578   9.844  17.496  0.00  0.00    +0.000 C 
ATOM     15  C   UNL     1       8.691  10.818  17.859  0.00  0.00    +0.000 C 
ATOM     16  C   UNL     1       9.464  10.160  19.004  0.00  0.00    +0.000 C 
ATOM     17  C   UNL     1       8.879   8.758  19.167  0.00  0.00    +0.000 C 
ENDBRANCH  11  13
ENDBRANCH   6   9
BRANCH   1  18
ATOM     18  C   UNL     1       3.456   4.463  19.901  0.00  0.00    +0.000 C 
BRANCH  18  20
ATOM     19  N   UNL     1       2.779   6.760  19.412  0.00  0.00    +0.000 N 
ATOM     20  C   UNL     1       2.339   5.505  19.814  0.00  0.00    +0.000 C 
ATOM     21  O   UNL     1       1.210   5.203  20.177  0.00  0.00    +0.000 OA
ATOM     22  H   UNL     1       3.784   6.896  19.440  0.00  0.00    +0.000 HD
BRANCH  19  28
ATOM     23  C   UNL     1      -0.094  10.479  21.243  0.00  0.00    +0.000 C 
ATOM     24  C   UNL     1       0.563   9.720  20.118  0.00  0.00    +0.000 A 
ATOM     25  C   UNL     1       0.317  10.155  18.808  0.00  0.00    +0.000 A 
ATOM     26  C   UNL     1       0.907   9.512  17.733  0.00  0.00    +0.000 A 
ATOM     27  C   UNL     1       1.736   8.417  17.951  0.00  0.00    +0.000 A 
ATOM     28  C   UNL     1       1.972   7.916  19.239  0.00  0.00    +0.000 A 
ATOM     29  C   UNL     1       1.400   8.590  20.351  0.00  0.00    +0.000 A 
ATOM     30  C   UNL     1       1.601   8.156  21.785  0.00  0.00    +0.000 C 
ENDBRANCH  19  28
ENDBRANCH  18  20
ENDBRANCH   1  18
TORSDOF 5
ENDMDL
MODEL 8
REMARK VINA RESULT:      -7.0      4.353      7.513
REMARK  Name = 
REMARK  8 active torsions:
REMARK  status: ('A' for Active; 'I' for Inactive)
REMARK    1  A    between atoms: C_1  and  C_2
REMARK    2  A    between atoms: C_6  and  N_7
REMARK    3  A    between atoms: C_8  and  C_10
REMARK    4  A    between atoms: C_10  and  N_11
REMARK    5  A    between atoms: C_12  and  C_13
REMARK    6  A    between atoms: C_16  and  C_17
REMARK    7  A    between atoms: N_19  and  C_20
REMARK    8  A    between atoms: C_27  and  C_28
REMARK                            x       y       z     vdW  Elec       q    Type
REMARK                         _______ _______ _______ _____ _____    ______ ____
ROOT
ATOM      1  N   UNL     1       0.590  10.310  19.435  0.00  0.00    +0.000 N 
ATOM      2  C   UNL     1       0.438  10.015  20.770  0.00  0.00    +0.000 A 
ATOM      3  C   UNL     1      -0.314  10.949  21.701  0.00  0.00    +0.000 C 
ATOM      4  N   UNL     1       0.928   8.945  21.311  0.00  0.00    +0.000 NA
ATOM      5  C   UNL     1       1.588   8.060  20.504  0.00  0.00    +0.000 A 
ATOM      6  C   UNL     1       1.894   8.267  19.218  0.00  0.00    +0.000 A 
ATOM      7  C   UNL     1       1.460   9.559  18.655  0.00  0.00    +0.000 A 
ATOM      8  O   UNL     1       1.853   9.937  17.548  0.00  0.00    +0.000 OA
ENDROOT
BRANCH   6   9
ATOM      9  C   UNL     1       2.582   7.193  18.451  0.00  0.00    +0.000 C 
ATOM     10  O   UNL     1       3.554   7.435  17.740  0.00  0.00    +0.000 OA
ATOM     11  N   UNL     1       2.067   5.930  18.608  0.00  0.00    +0.000 N 
ATOM     12  H   UNL     1       1.216   5.818  19.156  0.00  0.00    +0.000 HD
BRANCH  11  13
ATOM     13  C   UNL     1       2.602   4.783  17.908  0.00  0.00    +0.000 C 
ATOM     14  C   UNL     1       3.836   4.201  18.590  0.00  0.00    +0.000 C 
ATOM     15  C   UNL     1       3.960   2.813  17.979  0.00  0.00    +0.000 C 
ATOM     16  C   UNL     1       2.534   2.384  17.626  0.00  0.00    +0.000 C 
ATOM     17  C   UNL     1       1.643   3.596  17.894  0.00  0.00    +0.000 C 
ENDBRANCH  11  13
ENDBRANCH   6   9
BRANCH   1  18
ATOM     18  C   UNL     1      -0.055  11.430  18.753  0.00  0.00    +0.000 C 
BRANCH  18  20
ATOM     19  N   UNL     1      -2.416  12.035  18.927  0.00  0.00    +0.000 N 
ATOM     20  C   UNL     1      -1.516  11.090  18.452  0.00  0.00    +0.000 C 
ATOM     21  O   UNL     1      -1.785  10.018  17.927  0.00  0.00    +0.000 OA
ATOM     22  H   UNL     1      -2.034  12.702  19.590  0.00  0.00    +0.000 HD
BRANCH  19  28
ATOM     23  C   UNL     1      -7.068  12.562  20.804  0.00  0.00    +0.000 C 
ATOM     24  C   UNL     1      -6.095  12.229  19.700  0.00  0.00    +0.000 A 
ATOM     25  C   UNL     1      -6.622  11.795  18.476  0.00  0.00    +0.000 A 
ATOM     26  C   UNL     1      -5.782  11.494  17.418  0.00  0.00    +0.000 A 
ATOM     27  C   UNL     1      -4.404  11.606  17.574  0.00  0.00    +0.000 A 
ATOM     28  C   UNL     1      -3.830  11.990  18.794  0.00  0.00    +0.000 A 
ATOM     29  C   UNL     1      -4.684  12.335  19.875  0.00  0.00    +0.000 A 
ATOM     30  C   UNL     1      -4.181  12.782  21.228  0.00  0.00    +0.000 C 
ENDBRANCH  19  28
ENDBRANCH  18  20
ENDBRANCH   1  18
TORSDOF 5
ENDMDL
MODEL 9
REMARK VINA RESULT:      -7.0      1.015      1.101
REMARK  Name = 
REMARK  8 active torsions:
REMARK  status: ('A' for Active; 'I' for Inactive)
REMARK    1  A    between atoms: C_1  and  C_2
REMARK    2  A    between atoms: C_6  and  N_7
REMARK    3  A    between atoms: C_8  and  C_10
REMARK    4  A    between atoms: C_10  and  N_11
REMARK    5  A    between atoms: C_12  and  C_13
REMARK    6  A    between atoms: C_16  and  C_17
REMARK    7  A    between atoms: N_19  and  C_20
REMARK    8  A    between atoms: C_27  and  C_28
REMARK                            x       y       z     vdW  Elec       q    Type
REMARK                         _______ _______ _______ _____ _____    ______ ____
ROOT
ATOM      1  N   UNL     1       4.611   4.871  18.494  0.00  0.00    +0.000 N 
ATOM      2  C   UNL     1       4.300   4.742  17.161  0.00  0.00    +0.000 A 
ATOM      3  C   UNL     1       3.120   3.902  16.706  0.00  0.00    +0.000 C 
ATOM      4  N   UNL     1       4.989   5.310  16.222  0.00  0.00    +0.000 NA
ATOM      5  C   UNL     1       6.043   6.100  16.587  0.00  0.00    +0.000 A 
ATOM      6  C   UNL     1       6.516   6.232  17.831  0.00  0.00    +0.000 A 
ATOM      7  C   UNL     1       5.813   5.458  18.871  0.00  0.00    +0.000 A 
ATOM      8  O   UNL     1       6.277   5.351  20.009  0.00  0.00    +0.000 OA
ENDROOT
BRANCH   6   9
ATOM      9  C   UNL     1       7.650   7.163  18.084  0.00  0.00    +0.000 C 
ATOM     10  O   UNL     1       8.645   6.806  18.709  0.00  0.00    +0.000 OA
ATOM     11  N   UNL     1       7.508   8.425  17.563  0.00  0.00    +0.000 N 
ATOM     12  H   UNL     1       6.624   8.670  17.119  0.00  0.00    +0.000 HD
BRANCH  11  13
ATOM     13  C   UNL     1       8.506   9.456  17.747  0.00  0.00    +0.000 C 
ATOM     14  C   UNL     1       7.977  10.850  17.426  0.00  0.00    +0.000 C 
ATOM     15  C   UNL     1       8.991  11.776  18.083  0.00  0.00    +0.000 C 
ATOM     16  C   UNL     1       9.542  11.005  19.284  0.00  0.00    +0.000 C 
ATOM     17  C   UNL     1       8.951   9.598  19.199  0.00  0.00    +0.000 C 
ENDBRANCH  11  13
ENDBRANCH   6   9
BRANCH   1  18
ATOM     18  C   UNL     1       3.791   4.364  19.592  0.00  0.00    +0.000 C 
BRANCH  18  20
ATOM     19  N   UNL     1       2.845   6.582  19.984  0.00  0.00    +0.000 N 
ATOM     20  C   UNL     1       2.551   5.241  19.769  0.00  0.00    +0.000 C 
ATOM     21  O   UNL     1       1.446   4.717  19.805  0.00  0.00    +0.000 OA
ATOM     22  H   UNL     1       3.812   6.782  20.215  0.00  0.00    +0.000 HD
BRANCH  19  28
ATOM     23  C   UNL     1       0.368  10.675  18.386  0.00  0.00    +0.000 C 
ATOM     24  C   UNL     1       0.703   9.625  19.416  0.00  0.00    +0.000 A 
ATOM     25  C   UNL     1       0.080   9.719  20.668  0.00  0.00    +0.000 A 
ATOM     26  C   UNL     1       0.331   8.775  21.649  0.00  0.00    +0.000 A 
ATOM     27  C   UNL     1       1.219   7.734  21.398  0.00  0.00    +0.000 A 
ATOM     28  C   UNL     1       1.902   7.627  20.178  0.00  0.00    +0.000 A 
ATOM     29  C   UNL     1       1.626   8.570  19.152  0.00  0.00    +0.000 A 
ATOM     30  C   UNL     1       2.283   8.543  17.793  0.00  0.00    +0.000 C 
ENDBRANCH  19  28
ENDBRANCH  18  20
ENDBRANCH   1  18
TORSDOF 5
ENDMDL
