MODEL 1
REMARK VINA RESULT:      -6.8      0.000      0.000
REMARK  Name = 
REMARK  5 active torsions:
REMARK  status: ('A' for Active; 'I' for Inactive)
REMARK    1  A    between atoms: C_1  and  O_2
REMARK    2  A    between atoms: O_2  and  C_3
REMARK    3  A    between atoms: C_8  and  O_9
REMARK    4  A    between atoms: O_9  and  C_10
REMARK    5  A    between atoms: C_16  and  N_17
REMARK                            x       y       z     vdW  Elec       q    Type
REMARK                         _______ _______ _______ _____ _____    ______ ____
ROOT
ATOM      1  C   UNL     1       4.445   4.450  19.199  0.00  0.00    +0.000 A 
ATOM      2  N   UNL     1       3.922   5.695  19.151  0.00  0.00    +0.000 NA
ATOM      3  C   UNL     1       2.773   5.860  19.816  0.00  0.00    +0.000 A 
ATOM      4 CL   UNL     1       2.173   7.453  19.921  0.00  0.00    +0.000 Cl
ATOM      5  N   UNL     1       2.067   4.911  20.458  0.00  0.00    +0.000 NA
ATOM      6  C   UNL     1       2.589   3.669  20.411  0.00  0.00    +0.000 A 
ATOM      7  C   UNL     1       3.777   3.397  19.778  0.00  0.00    +0.000 A 
ENDROOT
BRANCH   7   8
ATOM      8  N   UNL     1       4.273   2.059  19.721  0.00  0.00    +0.000 N 
ATOM      9  O   UNL     1       5.100   1.720  20.579  0.00  0.00    +0.000 OA
ATOM     10  O   UNL     1       3.890   1.357  18.775  0.00  0.00    +0.000 OA
ENDBRANCH   7   8
BRANCH   1  11
ATOM     11  O   UNL     1       5.703   4.206  18.666  0.00  0.00    +0.000 OA
BRANCH  11  17
ATOM     12  C   UNL     1       6.948   5.355  16.859  0.00  0.00    +0.000 A 
ATOM     13  C   UNL     1       7.077   5.527  15.475  0.00  0.00    +0.000 A 
ATOM     14  C   UNL     1       6.308   4.772  14.585  0.00  0.00    +0.000 A 
ATOM     15  C   UNL     1       5.391   3.844  15.068  0.00  0.00    +0.000 A 
ATOM     16  C   UNL     1       5.207   3.709  16.444  0.00  0.00    +0.000 A 
ATOM     17  C   UNL     1       5.953   4.486  17.341  0.00  0.00    +0.000 A 
BRANCH  12  19
ATOM     18  C   UNL     1       7.735   7.387  17.819  0.00  0.00    +0.000 C 
ATOM     19  O   UNL     1       7.760   5.965  17.780  0.00  0.00    +0.000 OA
ENDBRANCH  12  19
ENDBRANCH  11  17
ENDBRANCH   1  11
TORSDOF 4
ENDMDL
MODEL 2
REMARK VINA RESULT:      -6.8      1.260      2.337
REMARK  Name = 
REMARK  5 active torsions:
REMARK  status: ('A' for Active; 'I' for Inactive)
REMARK    1  A    between atoms: C_1  and  O_2
REMARK    2  A    between atoms: O_2  and  C_3
REMARK    3  A    between atoms: C_8  and  O_9
REMARK    4  A    between atoms: O_9  and  C_10
REMARK    5  A    between atoms: C_16  and  N_17
REMARK                            x       y       z     vdW  Elec       q    Type
REMARK                         _______ _______ _______ _____ _____    ______ ____
ROOT
ATOM      1  C   UNL     1       3.780   4.596  19.049  0.00  0.00    +0.000 A 
ATOM      2  N   UNL     1       3.186   5.803  19.163  0.00  0.00    +0.000 NA
ATOM      3  C   UNL     1       2.301   5.915  20.161  0.00  0.00    +0.000 A 
ATOM      4 CL   UNL     1       1.660   7.470  20.443  0.00  0.00    +0.000 Cl
ATOM      5  N   UNL     1       1.905   4.942  21.002  0.00  0.00    +0.000 NA
ATOM      6  C   UNL     1       2.468   3.734  20.797  0.00  0.00    +0.000 A 
ATOM      7  C   UNL     1       3.406   3.520  19.818  0.00  0.00    +0.000 A 
ENDROOT
BRANCH   7   8
ATOM      8  N   UNL     1       3.948   2.214  19.613  0.00  0.00    +0.000 N 
ATOM      9  O   UNL     1       4.936   1.894  20.288  0.00  0.00    +0.000 OA
ATOM     10  O   UNL     1       3.429   1.523  18.725  0.00  0.00    +0.000 OA
ENDBRANCH   7   8
BRANCH   1  11
ATOM     11  O   UNL     1       4.815   4.416  18.141  0.00  0.00    +0.000 OA
BRANCH  11  17
ATOM     12  C   UNL     1       6.172   6.275  17.227  0.00  0.00    +0.000 A 
ATOM     13  C   UNL     1       7.323   7.055  17.394  0.00  0.00    +0.000 A 
ATOM     14  C   UNL     1       8.132   6.903  18.524  0.00  0.00    +0.000 A 
ATOM     15  C   UNL     1       7.806   5.962  19.495  0.00  0.00    +0.000 A 
ATOM     16  C   UNL     1       6.698   5.136  19.309  0.00  0.00    +0.000 A 
ATOM     17  C   UNL     1       5.902   5.261  18.162  0.00  0.00    +0.000 A 
BRANCH  12  19
ATOM     18  C   UNL     1       5.425   5.652  15.053  0.00  0.00    +0.000 C 
ATOM     19  O   UNL     1       5.268   6.462  16.212  0.00  0.00    +0.000 OA
ENDBRANCH  12  19
ENDBRANCH  11  17
ENDBRANCH   1  11
TORSDOF 4
ENDMDL
MODEL 3
REMARK VINA RESULT:      -6.6      1.415      1.745
REMARK  Name = 
REMARK  5 active torsions:
REMARK  status: ('A' for Active; 'I' for Inactive)
REMARK    1  A    between atoms: C_1  and  O_2
REMARK    2  A    between atoms: O_2  and  C_3
REMARK    3  A    between atoms: C_8  and  O_9
REMARK    4  A    between atoms: O_9  and  C_10
REMARK    5  A    between atoms: C_16  and  N_17
REMARK                            x       y       z     vdW  Elec       q    Type
REMARK                         _______ _______ _______ _____ _____    ______ ____
ROOT
ATOM      1  C   UNL     1       3.283   4.623  18.255  0.00  0.00    +0.000 A 
ATOM      2  N   UNL     1       3.069   5.887  17.829  0.00  0.00    +0.000 NA
ATOM      3  C   UNL     1       2.542   6.716  18.738  0.00  0.00    +0.000 A 
ATOM      4 CL   UNL     1       2.417   8.358  18.294  0.00  0.00    +0.000 Cl
ATOM      5  N   UNL     1       2.150   6.402  19.987  0.00  0.00    +0.000 NA
ATOM      6  C   UNL     1       2.311   5.110  20.337  0.00  0.00    +0.000 A 
ATOM      7  C   UNL     1       2.867   4.185  19.490  0.00  0.00    +0.000 A 
ENDROOT
BRANCH   7   8
ATOM      8  N   UNL     1       2.983   2.819  19.890  0.00  0.00    +0.000 N 
ATOM      9  O   UNL     1       2.011   2.080  19.685  0.00  0.00    +0.000 OA
ATOM     10  O   UNL     1       4.025   2.490  20.475  0.00  0.00    +0.000 OA
ENDBRANCH   7   8
BRANCH   1  11
ATOM     11  O   UNL     1       3.957   3.723  17.440  0.00  0.00    +0.000 OA
BRANCH  11  17
ATOM     12  C   UNL     1       6.322   4.438  17.270  0.00  0.00    +0.000 A 
ATOM     13  C   UNL     1       7.347   4.839  16.404  0.00  0.00    +0.000 A 
ATOM     14  C   UNL     1       7.157   4.836  15.020  0.00  0.00    +0.000 A 
ATOM     15  C   UNL     1       5.935   4.443  14.484  0.00  0.00    +0.000 A 
ATOM     16  C   UNL     1       4.886   4.104  15.338  0.00  0.00    +0.000 A 
ATOM     17  C   UNL     1       5.061   4.135  16.728  0.00  0.00    +0.000 A 
BRANCH  12  19
ATOM     18  C   UNL     1       6.706   5.480  19.377  0.00  0.00    +0.000 C 
ATOM     19  O   UNL     1       6.484   4.293  18.624  0.00  0.00    +0.000 OA
ENDBRANCH  12  19
ENDBRANCH  11  17
ENDBRANCH   1  11
TORSDOF 4
ENDMDL
MODEL 4
REMARK VINA RESULT:      -6.5      1.026      1.261
REMARK  Name = 
REMARK  5 active torsions:
REMARK  status: ('A' for Active; 'I' for Inactive)
REMARK    1  A    between atoms: C_1  and  O_2
REMARK    2  A    between atoms: O_2  and  C_3
REMARK    3  A    between atoms: C_8  and  O_9
REMARK    4  A    between atoms: O_9  and  C_10
REMARK    5  A    between atoms: C_16  and  N_17
REMARK                            x       y       z     vdW  Elec       q    Type
REMARK                         _______ _______ _______ _____ _____    ______ ____
ROOT
ATOM      1  C   UNL     1       3.868   4.761  19.599  0.00  0.00    +0.000 A 
ATOM      2  N   UNL     1       3.530   6.049  19.373  0.00  0.00    +0.000 NA
ATOM      3  C   UNL     1       2.341   6.423  19.860  0.00  0.00    +0.000 A 
ATOM      4 CL   UNL     1       1.956   8.081  19.746  0.00  0.00    +0.000 Cl
ATOM      5  N   UNL     1       1.439   5.641  20.482  0.00  0.00    +0.000 NA
ATOM      6  C   UNL     1       1.789   4.345  20.612  0.00  0.00    +0.000 A 
ATOM      7  C   UNL     1       2.997   3.864  20.172  0.00  0.00    +0.000 A 
ENDROOT
BRANCH   7   8
ATOM      8  N   UNL     1       3.309   2.476  20.297  0.00  0.00    +0.000 N 
ATOM      9  O   UNL     1       3.101   1.754  19.314  0.00  0.00    +0.000 OA
ATOM     10  O   UNL     1       3.702   2.086  21.406  0.00  0.00    +0.000 OA
ENDBRANCH   7   8
BRANCH   1  11
ATOM     11  O   UNL     1       5.136   4.309  19.263  0.00  0.00    +0.000 OA
BRANCH  11  17
ATOM     12  C   UNL     1       6.904   4.663  17.565  0.00  0.00    +0.000 A 
ATOM     13  C   UNL     1       7.193   4.731  16.196  0.00  0.00    +0.000 A 
ATOM     14  C   UNL     1       6.211   4.448  15.242  0.00  0.00    +0.000 A 
ATOM     15  C   UNL     1       4.925   4.104  15.646  0.00  0.00    +0.000 A 
ATOM     16  C   UNL     1       4.608   4.096  17.003  0.00  0.00    +0.000 A 
ATOM     17  C   UNL     1       5.580   4.410  17.963  0.00  0.00    +0.000 A 
BRANCH  12  19
ATOM     18  C   UNL     1       8.000   6.095  19.121  0.00  0.00    +0.000 C 
ATOM     19  O   UNL     1       7.849   4.801  18.549  0.00  0.00    +0.000 OA
ENDBRANCH  12  19
ENDBRANCH  11  17
ENDBRANCH   1  11
TORSDOF 4
ENDMDL
MODEL 5
REMARK VINA RESULT:      -6.5      2.869      5.365
REMARK  Name = 
REMARK  5 active torsions:
REMARK  status: ('A' for Active; 'I' for Inactive)
REMARK    1  A    between atoms: C_1  and  O_2
REMARK    2  A    between atoms: O_2  and  C_3
REMARK    3  A    between atoms: C_8  and  O_9
REMARK    4  A    between atoms: O_9  and  C_10
REMARK    5  A    between atoms: C_16  and  N_17
REMARK                            x       y       z     vdW  Elec       q    Type
REMARK                         _______ _______ _______ _____ _____    ______ ____
ROOT
ATOM      1  C   UNL     1       5.454   5.042  17.250  0.00  0.00    +0.000 A 
ATOM      2  N   UNL     1       5.015   4.717  16.014  0.00  0.00    +0.000 NA
ATOM      3  C   UNL     1       5.972   4.471  15.112  0.00  0.00    +0.000 A 
ATOM      4 CL   UNL     1       5.459   3.892  13.592  0.00  0.00    +0.000 Cl
ATOM      5  N   UNL     1       7.301   4.577  15.294  0.00  0.00    +0.000 NA
ATOM      6  C   UNL     1       7.687   4.982  16.521  0.00  0.00    +0.000 A 
ATOM      7  C   UNL     1       6.787   5.234  17.526  0.00  0.00    +0.000 A 
ENDROOT
BRANCH   7   8
ATOM      8  N   UNL     1       7.239   5.697  18.800  0.00  0.00    +0.000 N 
ATOM      9  O   UNL     1       6.862   5.073  19.800  0.00  0.00    +0.000 OA
ATOM     10  O   UNL     1       7.923   6.731  18.813  0.00  0.00    +0.000 OA
ENDBRANCH   7   8
BRANCH   1  11
ATOM     11  O   UNL     1       4.549   5.176  18.293  0.00  0.00    +0.000 OA
BRANCH  11  17
ATOM     12  C   UNL     1       3.642   3.032  19.139  0.00  0.00    +0.000 A 
ATOM     13  C   UNL     1       2.514   2.205  19.212  0.00  0.00    +0.000 A 
ATOM     14  C   UNL     1       1.282   2.628  18.706  0.00  0.00    +0.000 A 
ATOM     15  C   UNL     1       1.165   3.879  18.110  0.00  0.00    +0.000 A 
ATOM     16  C   UNL     1       2.294   4.685  17.973  0.00  0.00    +0.000 A 
ATOM     17  C   UNL     1       3.539   4.254  18.450  0.00  0.00    +0.000 A 
BRANCH  12  19
ATOM     18  C   UNL     1       4.851   1.665  20.668  0.00  0.00    +0.000 C 
ATOM     19  O   UNL     1       4.843   2.734  19.729  0.00  0.00    +0.000 OA
ENDBRANCH  12  19
ENDBRANCH  11  17
ENDBRANCH   1  11
TORSDOF 4
ENDMDL
MODEL 6
REMARK VINA RESULT:      -6.5      2.595      5.580
REMARK  Name = 
REMARK  5 active torsions:
REMARK  status: ('A' for Active; 'I' for Inactive)
REMARK    1  A    between atoms: C_1  and  O_2
REMARK    2  A    between atoms: O_2  and  C_3
REMARK    3  A    between atoms: C_8  and  O_9
REMARK    4  A    between atoms: O_9  and  C_10
REMARK    5  A    between atoms: C_16  and  N_17
REMARK                            x       y       z     vdW  Elec       q    Type
REMARK                         _______ _______ _______ _____ _____    ______ ____
ROOT
ATOM      1  C   UNL     1       5.989   4.634  17.775  0.00  0.00    +0.000 A 
ATOM      2  N   UNL     1       5.386   4.231  16.636  0.00  0.00    +0.000 NA
ATOM      3  C   UNL     1       5.971   4.638  15.503  0.00  0.00    +0.000 A 
ATOM      4 CL   UNL     1       5.340   4.008  14.049  0.00  0.00    +0.000 Cl
ATOM      5  N   UNL     1       7.039   5.447  15.391  0.00  0.00    +0.000 NA
ATOM      6  C   UNL     1       7.557   5.888  16.555  0.00  0.00    +0.000 A 
ATOM      7  C   UNL     1       7.050   5.508  17.773  0.00  0.00    +0.000 A 
ENDROOT
BRANCH   7   8
ATOM      8  N   UNL     1       7.607   6.030  18.980  0.00  0.00    +0.000 N 
ATOM      9  O   UNL     1       8.261   7.078  18.900  0.00  0.00    +0.000 OA
ATOM     10  O   UNL     1       7.452   5.356  20.009  0.00  0.00    +0.000 OA
ENDBRANCH   7   8
BRANCH   1  11
ATOM     11  O   UNL     1       5.549   4.151  19.000  0.00  0.00    +0.000 OA
BRANCH  11  17
ATOM     12  C   UNL     1       3.344   3.223  19.641  0.00  0.00    +0.000 A 
ATOM     13  C   UNL     1       2.023   3.526  19.994  0.00  0.00    +0.000 A 
ATOM     14  C   UNL     1       1.613   4.852  20.162  0.00  0.00    +0.000 A 
ATOM     15  C   UNL     1       2.516   5.892  19.968  0.00  0.00    +0.000 A 
ATOM     16  C   UNL     1       3.817   5.607  19.555  0.00  0.00    +0.000 A 
ATOM     17  C   UNL     1       4.225   4.281  19.354  0.00  0.00    +0.000 A 
BRANCH  12  19
ATOM     18  C   UNL     1       3.687   1.245  18.361  0.00  0.00    +0.000 C 
ATOM     19  O   UNL     1       3.843   1.947  19.588  0.00  0.00    +0.000 OA
ENDBRANCH  12  19
ENDBRANCH  11  17
ENDBRANCH   1  11
TORSDOF 4
ENDMDL
MODEL 7
REMARK VINA RESULT:      -6.5      3.216      5.350
REMARK  Name = 
REMARK  5 active torsions:
REMARK  status: ('A' for Active; 'I' for Inactive)
REMARK    1  A    between atoms: C_1  and  O_2
REMARK    2  A    between atoms: O_2  and  C_3
REMARK    3  A    between atoms: C_8  and  O_9
REMARK    4  A    between atoms: O_9  and  C_10
REMARK    5  A    between atoms: C_16  and  N_17
REMARK                            x       y       z     vdW  Elec       q    Type
REMARK                         _______ _______ _______ _____ _____    ______ ____
ROOT
ATOM      1  C   UNL     1       5.949   4.309  16.729  0.00  0.00    +0.000 A 
ATOM      2  N   UNL     1       5.443   3.900  15.546  0.00  0.00    +0.000 NA
ATOM      3  C   UNL     1       6.152   4.252  14.467  0.00  0.00    +0.000 A 
ATOM      4 CL   UNL     1       5.641   3.609  12.972  0.00  0.00    +0.000 Cl
ATOM      5  N   UNL     1       7.260   5.016  14.442  0.00  0.00    +0.000 NA
ATOM      6  C   UNL     1       7.680   5.467  15.641  0.00  0.00    +0.000 A 
ATOM      7  C   UNL     1       7.041   5.141  16.811  0.00  0.00    +0.000 A 
ENDROOT
BRANCH   7   8
ATOM      8  N   UNL     1       7.499   5.672  18.055  0.00  0.00    +0.000 N 
ATOM      9  O   UNL     1       7.380   6.892  18.233  0.00  0.00    +0.000 OA
ATOM     10  O   UNL     1       8.044   4.882  18.839  0.00  0.00    +0.000 OA
ENDBRANCH   7   8
BRANCH   1  11
ATOM     11  O   UNL     1       5.372   3.877  17.915  0.00  0.00    +0.000 OA
BRANCH  11  17
ATOM     12  C   UNL     1       3.120   4.903  18.013  0.00  0.00    +0.000 A 
ATOM     13  C   UNL     1       1.745   4.662  18.133  0.00  0.00    +0.000 A 
ATOM     14  C   UNL     1       1.248   3.355  18.157  0.00  0.00    +0.000 A 
ATOM     15  C   UNL     1       2.120   2.275  18.074  0.00  0.00    +0.000 A 
ATOM     16  C   UNL     1       3.494   2.501  18.020  0.00  0.00    +0.000 A 
ATOM     17  C   UNL     1       4.001   3.808  18.027  0.00  0.00    +0.000 A 
BRANCH  12  19
ATOM     18  C   UNL     1       2.840   7.260  18.207  0.00  0.00    +0.000 C 
ATOM     19  O   UNL     1       3.661   6.153  17.853  0.00  0.00    +0.000 OA
ENDBRANCH  12  19
ENDBRANCH  11  17
ENDBRANCH   1  11
TORSDOF 4
ENDMDL
MODEL 8
REMARK VINA RESULT:      -6.4      3.027      5.309
REMARK  Name = 
REMARK  5 active torsions:
REMARK  status: ('A' for Active; 'I' for Inactive)
REMARK    1  A    between atoms: C_1  and  O_2
REMARK    2  A    between atoms: O_2  and  C_3
REMARK    3  A    between atoms: C_8  and  O_9
REMARK    4  A    between atoms: O_9  and  C_10
REMARK    5  A    between atoms: C_16  and  N_17
REMARK                            x       y       z     vdW  Elec       q    Type
REMARK                         _______ _______ _______ _____ _____    ______ ____
ROOT
ATOM      1  C   UNL     1       5.092   4.578  16.801  0.00  0.00    +0.000 A 
ATOM      2  N   UNL     1       5.307   4.703  15.473  0.00  0.00    +0.000 NA
ATOM      3  C   UNL     1       6.589   4.650  15.093  0.00  0.00    +0.000 A 
ATOM      4 CL   UNL     1       6.888   4.631  13.414  0.00  0.00    +0.000 Cl
ATOM      5  N   UNL     1       7.666   4.555  15.894  0.00  0.00    +0.000 NA
ATOM      6  C   UNL     1       7.404   4.514  17.216  0.00  0.00    +0.000 A 
ATOM      7  C   UNL     1       6.123   4.534  17.709  0.00  0.00    +0.000 A 
ENDROOT
BRANCH   7   8
ATOM      8  N   UNL     1       5.893   4.527  19.119  0.00  0.00    +0.000 N 
ATOM      9  O   UNL     1       6.168   5.558  19.747  0.00  0.00    +0.000 OA
ATOM     10  O   UNL     1       5.498   3.464  19.619  0.00  0.00    +0.000 OA
ENDBRANCH   7   8
BRANCH   1  11
ATOM     11  O   UNL     1       3.795   4.475  17.285  0.00  0.00    +0.000 OA
BRANCH  11  17
ATOM     12  C   UNL     1       2.496   5.508  19.123  0.00  0.00    +0.000 A 
ATOM     13  C   UNL     1       1.964   6.699  19.633  0.00  0.00    +0.000 A 
ATOM     14  C   UNL     1       2.224   7.923  19.011  0.00  0.00    +0.000 A 
ATOM     15  C   UNL     1       3.010   7.970  17.865  0.00  0.00    +0.000 A 
ATOM     16  C   UNL     1       3.492   6.785  17.311  0.00  0.00    +0.000 A 
ATOM     17  C   UNL     1       3.209   5.551  17.912  0.00  0.00    +0.000 A 
BRANCH  12  19
ATOM     18  C   UNL     1       1.155   4.015  20.405  0.00  0.00    +0.000 C 
ATOM     19  O   UNL     1       2.389   4.296  19.755  0.00  0.00    +0.000 OA
ENDBRANCH  12  19
ENDBRANCH  11  17
ENDBRANCH   1  11
TORSDOF 4
ENDMDL
MODEL 9
REMARK VINA RESULT:      -6.4      3.425      5.813
REMARK  Name = 
REMARK  5 active torsions:
REMARK  status: ('A' for Active; 'I' for Inactive)
REMARK    1  A    between atoms: C_1  and  O_2
REMARK    2  A    between atoms: O_2  and  C_3
REMARK    3  A    between atoms: C_8  and  O_9
REMARK    4  A    between atoms: O_9  and  C_10
REMARK    5  A    between atoms: C_16  and  N_17
REMARK                            x       y       z     vdW  Elec       q    Type
REMARK                         _______ _______ _______ _____ _____    ______ ____
ROOT
ATOM      1  C   UNL     1       5.749   4.105  16.010  0.00  0.00    +0.000 A 
ATOM      2  N   UNL     1       5.190   3.761  14.829  0.00  0.00    +0.000 NA
ATOM      3  C   UNL     1       5.928   4.030  13.746  0.00  0.00    +0.000 A 
ATOM      4 CL   UNL     1       5.333   3.454  12.254  0.00  0.00    +0.000 Cl
ATOM      5  N   UNL     1       7.117   4.658  13.713  0.00  0.00    +0.000 NA
ATOM      6  C   UNL     1       7.596   5.054  14.910  0.00  0.00    +0.000 A 
ATOM      7  C   UNL     1       6.932   4.803  16.085  0.00  0.00    +0.000 A 
ENDROOT
BRANCH   7   8
ATOM      8  N   UNL     1       7.459   5.274  17.326  0.00  0.00    +0.000 N 
ATOM      9  O   UNL     1       7.984   4.440  18.075  0.00  0.00    +0.000 OA
ATOM     10  O   UNL     1       7.290   6.473  17.590  0.00  0.00    +0.000 OA
ENDBRANCH   7   8
BRANCH   1  11
ATOM     11  O   UNL     1       5.135   3.742  17.199  0.00  0.00    +0.000 OA
BRANCH  11  17
ATOM     12  C   UNL     1       2.723   3.408  17.654  0.00  0.00    +0.000 A 
ATOM     13  C   UNL     1       1.507   4.036  17.953  0.00  0.00    +0.000 A 
ATOM     14  C   UNL     1       1.451   5.413  18.189  0.00  0.00    +0.000 A 
ATOM     15  C   UNL     1       2.609   6.180  18.118  0.00  0.00    +0.000 A 
ATOM     16  C   UNL     1       3.814   5.578  17.758  0.00  0.00    +0.000 A 
ATOM     17  C   UNL     1       3.870   4.204  17.489  0.00  0.00    +0.000 A 
BRANCH  12  19
ATOM     18  C   UNL     1       3.465   1.372  18.641  0.00  0.00    +0.000 C 
ATOM     19  O   UNL     1       2.869   2.050  17.541  0.00  0.00    +0.000 OA
ENDBRANCH  12  19
ENDBRANCH  11  17
ENDBRANCH   1  11
TORSDOF 4
ENDMDL
