MODEL 1
REMARK VINA RESULT:      -8.3      0.000      0.000
REMARK  Name = 
REMARK  7 active torsions:
REMARK  status: ('A' for Active; 'I' for Inactive)
REMARK    1  A    between atoms: C_1  and  N_2
REMARK    2  A    between atoms: N_2  and  C_3
REMARK    3  A    between atoms: N_2  and  C_4
REMARK    4  A    between atoms: C_4  and  C_5
REMARK    5  A    between atoms: C_4  and  C_23
REMARK    6  A    between atoms: C_9  and  N_10
REMARK    7  A    between atoms: N_10  and  C_11
REMARK                            x       y       z     vdW  Elec       q    Type
REMARK                         _______ _______ _______ _____ _____    ______ ____
ROOT
ATOM      1  C   UNL     1       3.149   5.341  18.966  0.00  0.00    +0.000 A 
ATOM      2  C   UNL     1       2.673   4.858  20.190  0.00  0.00    +0.000 A 
ATOM      3  C   UNL     1       1.866   5.656  21.019  0.00  0.00    +0.000 A 
ATOM      4  C   UNL     1       1.536   6.975  20.678  0.00  0.00    +0.000 A 
ATOM      5  C   UNL     1       2.002   7.519  19.493  0.00  0.00    +0.000 A 
ATOM      6  C   UNL     1       2.803   6.686  18.644  0.00  0.00    +0.000 A 
ENDROOT
BRANCH   5   7
ATOM      7  N   UNL     1       1.929   8.913  19.168  0.00  0.00    +0.000 N 
ATOM      8  H   UNL     1       1.454   9.270  20.016  0.00  0.00    +0.000 HD
BRANCH   7   9
ATOM      9  C   UNL     1       1.223   9.744  18.102  0.00  0.00    +0.000 A 
ATOM     10  C   UNL     1       2.060  10.831  17.851  0.00  0.00    +0.000 A 
ATOM     11  C   UNL     1       1.856  11.914  18.689  0.00  0.00    +0.000 A 
ATOM     12  N   UNL     1       0.745  12.050  19.454  0.00  0.00    +0.000 NA
ATOM     13  C   UNL     1      -0.291  11.273  19.122  0.00  0.00    +0.000 A 
ATOM     14  C   UNL     1      -1.574  11.719  19.394  0.00  0.00    +0.000 A 
ATOM     15  C   UNL     1      -2.645  11.273  18.627  0.00  0.00    +0.000 A 
ATOM     16 CL   UNL     1      -4.209  11.953  18.875  0.00  0.00    +0.000 Cl
ATOM     17  C   UNL     1      -2.437  10.370  17.591  0.00  0.00    +0.000 A 
ATOM     18  C   UNL     1      -1.173   9.787  17.440  0.00  0.00    +0.000 A 
ATOM     19  C   UNL     1      -0.107  10.157  18.292  0.00  0.00    +0.000 A 
ENDBRANCH   7   9
ENDBRANCH   5   7
BRANCH   1  20
ATOM     20  C   UNL     1       4.139   4.522  18.100  0.00  0.00    +0.000 C 
BRANCH  20  21
ATOM     21  C   UNL     1       5.573   4.693  18.529  0.00  0.00    +0.000 A 
ATOM     22  N   UNL     1       6.087   5.218  19.622  0.00  0.00    +0.000 NA
ATOM     23  N   UNL     1       7.455   5.102  19.513  0.00  0.00    +0.000 NA
ATOM     24  N   UNL     1       7.785   4.533  18.367  0.00  0.00    +0.000 NA
ATOM     25  N   UNL     1       6.620   4.301  17.738  0.00  0.00    +0.000 N 
ATOM     26  H   UNL     1       6.610   3.828  16.849  0.00  0.00    +0.000 HD
ENDBRANCH  20  21
BRANCH  20  28
ATOM     27  C   UNL     1       4.127   2.125  18.907  0.00  0.00    +0.000 C 
ATOM     28  N   UNL     1       3.844   3.078  17.835  0.00  0.00    +0.000 NA
ATOM     29  C   UNL     1       2.513   2.852  17.283  0.00  0.00    +0.000 C 
ENDBRANCH  20  28
ENDBRANCH   1  20
TORSDOF 5
ENDMDL
MODEL 2
REMARK VINA RESULT:      -8.0      1.318      1.450
REMARK  Name = 
REMARK  7 active torsions:
REMARK  status: ('A' for Active; 'I' for Inactive)
REMARK    1  A    between atoms: C_1  and  N_2
REMARK    2  A    between atoms: N_2  and  C_3
REMARK    3  A    between atoms: N_2  and  C_4
REMARK    4  A    between atoms: C_4  and  C_5
REMARK    5  A    between atoms: C_4  and  C_23
REMARK    6  A    between atoms: C_9  and  N_10
REMARK    7  A    between atoms: N_10  and  C_11
REMARK                            x       y       z     vdW  Elec       q    Type
REMARK                         _______ _______ _______ _____ _____    ______ ____
ROOT
ATOM      1  C   UNL     1       3.486   5.950  18.491  0.00  0.00    +0.000 A 
ATOM      2  C   UNL     1       3.298   5.185  19.648  0.00  0.00    +0.000 A 
ATOM      3  C   UNL     1       2.429   5.613  20.665  0.00  0.00    +0.000 A 
ATOM      4  C   UNL     1       1.746   6.835  20.586  0.00  0.00    +0.000 A 
ATOM      5  C   UNL     1       1.913   7.650  19.479  0.00  0.00    +0.000 A 
ATOM      6  C   UNL     1       2.783   7.188  18.436  0.00  0.00    +0.000 A 
ENDROOT
BRANCH   5   7
ATOM      7  N   UNL     1       1.461   9.007  19.407  0.00  0.00    +0.000 N 
ATOM      8  H   UNL     1       0.653   8.961  20.053  0.00  0.00    +0.000 HD
BRANCH   7   9
ATOM      9  C   UNL     1       0.876   9.902  18.319  0.00  0.00    +0.000 A 
ATOM     10  C   UNL     1       1.726  11.004  18.235  0.00  0.00    +0.000 A 
ATOM     11  C   UNL     1       1.416  12.032  19.109  0.00  0.00    +0.000 A 
ATOM     12  N   UNL     1       0.222  12.118  19.745  0.00  0.00    +0.000 NA
ATOM     13  C   UNL     1      -0.761  11.361  19.247  0.00  0.00    +0.000 A 
ATOM     14  C   UNL     1      -2.072  11.786  19.395  0.00  0.00    +0.000 A 
ATOM     15  C   UNL     1      -3.041  11.386  18.481  0.00  0.00    +0.000 A 
ATOM     16 CL   UNL     1      -4.630  12.046  18.585  0.00  0.00    +0.000 Cl
ATOM     17  C   UNL     1      -2.706  10.549  17.423  0.00  0.00    +0.000 A 
ATOM     18  C   UNL     1      -1.427   9.980  17.386  0.00  0.00    +0.000 A 
ATOM     19  C   UNL     1      -0.471  10.298  18.378  0.00  0.00    +0.000 A 
ENDBRANCH   7   9
ENDBRANCH   5   7
BRANCH   1  20
ATOM     20  C   UNL     1       4.531   5.555  17.418  0.00  0.00    +0.000 C 
BRANCH  20  21
ATOM     21  C   UNL     1       5.877   6.191  17.649  0.00  0.00    +0.000 A 
ATOM     22  N   UNL     1       6.787   5.966  18.574  0.00  0.00    +0.000 NA
ATOM     23  N   UNL     1       7.841   6.813  18.310  0.00  0.00    +0.000 NA
ATOM     24  N   UNL     1       7.583   7.562  17.251  0.00  0.00    +0.000 NA
ATOM     25  N   UNL     1       6.352   7.198  16.851  0.00  0.00    +0.000 N 
ATOM     26  H   UNL     1       5.947   7.607  16.025  0.00  0.00    +0.000 HD
ENDBRANCH  20  21
BRANCH  20  28
ATOM     27  C   UNL     1       3.477   3.307  16.937  0.00  0.00    +0.000 C 
ATOM     28  N   UNL     1       4.693   4.109  17.063  0.00  0.00    +0.000 NA
ATOM     29  C   UNL     1       5.575   3.889  15.923  0.00  0.00    +0.000 C 
ENDBRANCH  20  28
ENDBRANCH   1  20
TORSDOF 5
ENDMDL
MODEL 3
REMARK VINA RESULT:      -8.0      0.923      1.200
REMARK  Name = 
REMARK  7 active torsions:
REMARK  status: ('A' for Active; 'I' for Inactive)
REMARK    1  A    between atoms: C_1  and  N_2
REMARK    2  A    between atoms: N_2  and  C_3
REMARK    3  A    between atoms: N_2  and  C_4
REMARK    4  A    between atoms: C_4  and  C_5
REMARK    5  A    between atoms: C_4  and  C_23
REMARK    6  A    between atoms: C_9  and  N_10
REMARK    7  A    between atoms: N_10  and  C_11
REMARK                            x       y       z     vdW  Elec       q    Type
REMARK                         _______ _______ _______ _____ _____    ______ ____
ROOT
ATOM      1  C   UNL     1       3.411   5.866  18.798  0.00  0.00    +0.000 A 
ATOM      2  C   UNL     1       2.998   5.114  19.905  0.00  0.00    +0.000 A 
ATOM      3  C   UNL     1       2.047   5.619  20.808  0.00  0.00    +0.000 A 
ATOM      4  C   UNL     1       1.503   6.903  20.665  0.00  0.00    +0.000 A 
ATOM      5  C   UNL     1       1.895   7.706  19.606  0.00  0.00    +0.000 A 
ATOM      6  C   UNL     1       2.845   7.168  18.677  0.00  0.00    +0.000 A 
ENDROOT
BRANCH   5   7
ATOM      7  N   UNL     1       1.590   9.101  19.504  0.00  0.00    +0.000 N 
ATOM      8  H   UNL     1       0.851   9.177  20.225  0.00  0.00    +0.000 HD
BRANCH   7   9
ATOM      9  C   UNL     1       1.002  10.009  18.429  0.00  0.00    +0.000 A 
ATOM     10  C   UNL     1       1.801  11.152  18.416  0.00  0.00    +0.000 A 
ATOM     11  C   UNL     1       1.413  12.130  19.315  0.00  0.00    +0.000 A 
ATOM     12  N   UNL     1       0.195  12.137  19.910  0.00  0.00    +0.000 NA
ATOM     13  C   UNL     1      -0.734  11.355  19.350  0.00  0.00    +0.000 A 
ATOM     14  C   UNL     1      -2.067  11.714  19.465  0.00  0.00    +0.000 A 
ATOM     15  C   UNL     1      -2.985  11.305  18.503  0.00  0.00    +0.000 A 
ATOM     16 CL   UNL     1      -4.605  11.887  18.574  0.00  0.00    +0.000 Cl
ATOM     17  C   UNL     1      -2.574  10.526  17.429  0.00  0.00    +0.000 A 
ATOM     18  C   UNL     1      -1.269  10.018  17.416  0.00  0.00    +0.000 A 
ATOM     19  C   UNL     1      -0.364  10.341  18.453  0.00  0.00    +0.000 A 
ENDBRANCH   7   9
ENDBRANCH   5   7
BRANCH   1  20
ATOM     20  C   UNL     1       4.546   5.376  17.863  0.00  0.00    +0.000 C 
BRANCH  20  21
ATOM     21  C   UNL     1       5.919   5.635  18.425  0.00  0.00    +0.000 A 
ATOM     22  N   UNL     1       6.880   6.435  18.014  0.00  0.00    +0.000 NA
ATOM     23  N   UNL     1       7.921   6.299  18.908  0.00  0.00    +0.000 NA
ATOM     24  N   UNL     1       7.618   5.418  19.845  0.00  0.00    +0.000 NA
ATOM     25  N   UNL     1       6.384   4.981  19.536  0.00  0.00    +0.000 N 
ATOM     26  H   UNL     1       5.915   4.324  20.138  0.00  0.00    +0.000 HD
ENDBRANCH  20  21
BRANCH  20  28
ATOM     27  C   UNL     1       3.155   3.516  16.862  0.00  0.00    +0.000 C 
ATOM     28  N   UNL     1       4.468   3.994  17.293  0.00  0.00    +0.000 NA
ATOM     29  C   UNL     1       5.473   3.734  16.269  0.00  0.00    +0.000 C 
ENDBRANCH  20  28
ENDBRANCH   1  20
TORSDOF 5
ENDMDL
MODEL 4
REMARK VINA RESULT:      -7.7      3.556      8.592
REMARK  Name = 
REMARK  7 active torsions:
REMARK  status: ('A' for Active; 'I' for Inactive)
REMARK    1  A    between atoms: C_1  and  N_2
REMARK    2  A    between atoms: N_2  and  C_3
REMARK    3  A    between atoms: N_2  and  C_4
REMARK    4  A    between atoms: C_4  and  C_5
REMARK    5  A    between atoms: C_4  and  C_23
REMARK    6  A    between atoms: C_9  and  N_10
REMARK    7  A    between atoms: N_10  and  C_11
REMARK                            x       y       z     vdW  Elec       q    Type
REMARK                         _______ _______ _______ _____ _____    ______ ____
ROOT
ATOM      1  C   UNL     1       0.170  10.383  20.060  0.00  0.00    +0.000 A 
ATOM      2  C   UNL     1      -0.507  10.260  21.279  0.00  0.00    +0.000 A 
ATOM      3  C   UNL     1      -0.205   9.218  22.172  0.00  0.00    +0.000 A 
ATOM      4  C   UNL     1       0.750   8.239  21.867  0.00  0.00    +0.000 A 
ATOM      5  C   UNL     1       1.432   8.290  20.662  0.00  0.00    +0.000 A 
ATOM      6  C   UNL     1       1.134   9.374  19.772  0.00  0.00    +0.000 A 
ENDROOT
BRANCH   5   7
ATOM      7  N   UNL     1       2.240   7.222  20.153  0.00  0.00    +0.000 N 
ATOM      8  H   UNL     1       3.182   7.581  20.391  0.00  0.00    +0.000 HD
BRANCH   7   9
ATOM      9  C   UNL     1       2.523   6.635  18.774  0.00  0.00    +0.000 A 
ATOM     10  C   UNL     1       1.607   5.597  18.607  0.00  0.00    +0.000 A 
ATOM     11  C   UNL     1       2.031   4.377  19.105  0.00  0.00    +0.000 A 
ATOM     12  N   UNL     1       3.326   4.123  19.418  0.00  0.00    +0.000 NA
ATOM     13  C   UNL     1       4.226   4.978  18.921  0.00  0.00    +0.000 A 
ATOM     14  C   UNL     1       5.508   4.521  18.663  0.00  0.00    +0.000 A 
ATOM     15  C   UNL     1       6.285   5.138  17.688  0.00  0.00    +0.000 A 
ATOM     16 CL   UNL     1       7.815   4.465  17.268  0.00  0.00    +0.000 Cl
ATOM     17  C   UNL     1       5.785   6.221  16.975  0.00  0.00    +0.000 A 
ATOM     18  C   UNL     1       4.565   6.788  17.365  0.00  0.00    +0.000 A 
ATOM     19  C   UNL     1       3.824   6.230  18.432  0.00  0.00    +0.000 A 
ENDBRANCH   7   9
ENDBRANCH   5   7
BRANCH   1  20
ATOM     20  C   UNL     1      -0.235  11.451  19.012  0.00  0.00    +0.000 C 
BRANCH  20  21
ATOM     21  C   UNL     1      -1.334  10.984  18.094  0.00  0.00    +0.000 A 
ATOM     22  N   UNL     1      -2.136   9.942  18.173  0.00  0.00    +0.000 NA
ATOM     23  N   UNL     1      -2.970   9.999  17.077  0.00  0.00    +0.000 NA
ATOM     24  N   UNL     1      -2.680  11.046  16.324  0.00  0.00    +0.000 NA
ATOM     25  N   UNL     1      -1.645  11.648  16.937  0.00  0.00    +0.000 N 
ATOM     26  H   UNL     1      -1.268  12.505  16.568  0.00  0.00    +0.000 HD
ENDBRANCH  20  21
BRANCH  20  28
ATOM     27  C   UNL     1       0.011  13.941  18.641  0.00  0.00    +0.000 C 
ATOM     28  N   UNL     1      -0.500  12.851  19.472  0.00  0.00    +0.000 NA
ATOM     29  C   UNL     1      -1.893  13.087  19.831  0.00  0.00    +0.000 C 
ENDBRANCH  20  28
ENDBRANCH   1  20
TORSDOF 5
ENDMDL
MODEL 5
REMARK VINA RESULT:      -7.7      5.085      9.840
REMARK  Name = 
REMARK  7 active torsions:
REMARK  status: ('A' for Active; 'I' for Inactive)
REMARK    1  A    between atoms: C_1  and  N_2
REMARK    2  A    between atoms: N_2  and  C_3
REMARK    3  A    between atoms: N_2  and  C_4
REMARK    4  A    between atoms: C_4  and  C_5
REMARK    5  A    between atoms: C_4  and  C_23
REMARK    6  A    between atoms: C_9  and  N_10
REMARK    7  A    between atoms: N_10  and  C_11
REMARK                            x       y       z     vdW  Elec       q    Type
REMARK                         _______ _______ _______ _____ _____    ______ ____
ROOT
ATOM      1  C   UNL     1      -4.982  11.326  17.981  0.00  0.00    +0.000 A 
ATOM      2  C   UNL     1      -4.463  11.002  16.722  0.00  0.00    +0.000 A 
ATOM      3  C   UNL     1      -3.081  11.052  16.475  0.00  0.00    +0.000 A 
ATOM      4  C   UNL     1      -2.170  11.463  17.458  0.00  0.00    +0.000 A 
ATOM      5  C   UNL     1      -2.626  11.824  18.715  0.00  0.00    +0.000 A 
ATOM      6  C   UNL     1      -4.036  11.743  18.962  0.00  0.00    +0.000 A 
ENDROOT
BRANCH   5   7
ATOM      7  N   UNL     1      -1.821  12.480  19.701  0.00  0.00    +0.000 N 
ATOM      8  H   UNL     1      -1.351  13.187  19.108  0.00  0.00    +0.000 HD
BRANCH   7   9
ATOM      9  C   UNL     1      -0.657  12.075  20.599  0.00  0.00    +0.000 A 
ATOM     10  C   UNL     1       0.312  13.065  20.437  0.00  0.00    +0.000 A 
ATOM     11  C   UNL     1       1.179  12.847  19.381  0.00  0.00    +0.000 A 
ATOM     12  N   UNL     1       1.303  11.643  18.770  0.00  0.00    +0.000 NA
ATOM     13  C   UNL     1       0.802  10.596  19.435  0.00  0.00    +0.000 A 
ATOM     14  C   UNL     1       1.367   9.347  19.236  0.00  0.00    +0.000 A 
ATOM     15  C   UNL     1       1.293   8.382  20.235  0.00  0.00    +0.000 A 
ATOM     16 CL   UNL     1       2.133   6.890  20.038  0.00  0.00    +0.000 Cl
ATOM     17  C   UNL     1       0.644   8.660  21.432  0.00  0.00    +0.000 A 
ATOM     18  C   UNL     1      -0.078   9.854  21.553  0.00  0.00    +0.000 A 
ATOM     19  C   UNL     1      -0.097  10.790  20.494  0.00  0.00    +0.000 A 
ENDBRANCH   7   9
ENDBRANCH   5   7
BRANCH   1  20
ATOM     20  C   UNL     1      -6.509  11.395  18.235  0.00  0.00    +0.000 C 
BRANCH  20  21
ATOM     21  C   UNL     1      -6.953  10.520  19.378  0.00  0.00    +0.000 A 
ATOM     22  N   UNL     1      -7.046  10.771  20.667  0.00  0.00    +0.000 NA
ATOM     23  N   UNL     1      -7.526   9.625  21.262  0.00  0.00    +0.000 NA
ATOM     24  N   UNL     1      -7.711   8.675  20.362  0.00  0.00    +0.000 NA
ATOM     25  N   UNL     1      -7.331   9.217  19.192  0.00  0.00    +0.000 N 
ATOM     26  H   UNL     1      -7.421   8.690  18.338  0.00  0.00    +0.000 HD
ENDBRANCH  20  21
BRANCH  20  28
ATOM     27  C   UNL     1      -6.694  13.656  19.353  0.00  0.00    +0.000 C 
ATOM     28  N   UNL     1      -7.168  12.737  18.320  0.00  0.00    +0.000 NA
ATOM     29  C   UNL     1      -7.265  13.415  17.032  0.00  0.00    +0.000 C 
ENDBRANCH  20  28
ENDBRANCH   1  20
TORSDOF 5
ENDMDL
MODEL 6
REMARK VINA RESULT:      -7.7      5.996      8.376
REMARK  Name = 
REMARK  7 active torsions:
REMARK  status: ('A' for Active; 'I' for Inactive)
REMARK    1  A    between atoms: C_1  and  N_2
REMARK    2  A    between atoms: N_2  and  C_3
REMARK    3  A    between atoms: N_2  and  C_4
REMARK    4  A    between atoms: C_4  and  C_5
REMARK    5  A    between atoms: C_4  and  C_23
REMARK    6  A    between atoms: C_9  and  N_10
REMARK    7  A    between atoms: N_10  and  C_11
REMARK                            x       y       z     vdW  Elec       q    Type
REMARK                         _______ _______ _______ _____ _____    ______ ____
ROOT
ATOM      1  C   UNL     1      -1.749  11.582  19.733  0.00  0.00    +0.000 A 
ATOM      2  C   UNL     1      -1.104  10.469  19.183  0.00  0.00    +0.000 A 
ATOM      3  C   UNL     1      -1.480   9.962  17.928  0.00  0.00    +0.000 A 
ATOM      4  C   UNL     1      -2.536  10.518  17.194  0.00  0.00    +0.000 A 
ATOM      5  C   UNL     1      -3.232  11.604  17.699  0.00  0.00    +0.000 A 
ATOM      6  C   UNL     1      -2.821  12.128  18.969  0.00  0.00    +0.000 A 
ENDROOT
BRANCH   5   7
ATOM      7  N   UNL     1      -4.464  12.090  17.153  0.00  0.00    +0.000 N 
ATOM      8  H   UNL     1      -4.352  13.104  17.331  0.00  0.00    +0.000 HD
BRANCH   7   9
ATOM      9  C   UNL     1      -5.943  11.926  17.492  0.00  0.00    +0.000 A 
ATOM     10  C   UNL     1      -6.591  13.008  16.896  0.00  0.00    +0.000 A 
ATOM     11  C   UNL     1      -6.639  14.147  17.681  0.00  0.00    +0.000 A 
ATOM     12  N   UNL     1      -6.389  14.131  19.013  0.00  0.00    +0.000 NA
ATOM     13  C   UNL     1      -6.419  12.929  19.598  0.00  0.00    +0.000 A 
ATOM     14  C   UNL     1      -6.771  12.847  20.936  0.00  0.00    +0.000 A 
ATOM     15  C   UNL     1      -7.341  11.680  21.436  0.00  0.00    +0.000 A 
ATOM     16 CL   UNL     1      -7.916  11.645  23.060  0.00  0.00    +0.000 Cl
ATOM     17  C   UNL     1      -7.550  10.589  20.602  0.00  0.00    +0.000 A 
ATOM     18  C   UNL     1      -7.028  10.615  19.303  0.00  0.00    +0.000 A 
ATOM     19  C   UNL     1      -6.348  11.759  18.827  0.00  0.00    +0.000 A 
ENDBRANCH   7   9
ENDBRANCH   5   7
BRANCH   1  20
ATOM     20  C   UNL     1      -1.431  12.078  21.167  0.00  0.00    +0.000 C 
BRANCH  20  21
ATOM     21  C   UNL     1      -0.540  11.133  21.928  0.00  0.00    +0.000 A 
ATOM     22  N   UNL     1       0.725  10.811  21.750  0.00  0.00    +0.000 NA
ATOM     23  N   UNL     1       1.051   9.915  22.744  0.00  0.00    +0.000 NA
ATOM     24  N   UNL     1       0.005   9.672  23.514  0.00  0.00    +0.000 NA
ATOM     25  N   UNL     1      -0.995  10.406  22.996  0.00  0.00    +0.000 N 
ATOM     26  H   UNL     1      -1.897  10.419  23.443  0.00  0.00    +0.000 HD
ENDBRANCH  20  21
BRANCH  20  28
ATOM     27  C   UNL     1      -0.597  13.899  22.711  0.00  0.00    +0.000 C 
ATOM     28  N   UNL     1      -0.977  13.492  21.359  0.00  0.00    +0.000 NA
ATOM     29  C   UNL     1       0.031  13.911  20.392  0.00  0.00    +0.000 C 
ENDBRANCH  20  28
ENDBRANCH   1  20
TORSDOF 5
ENDMDL
MODEL 7
REMARK VINA RESULT:      -7.7      1.967      2.745
REMARK  Name = 
REMARK  7 active torsions:
REMARK  status: ('A' for Active; 'I' for Inactive)
REMARK    1  A    between atoms: C_1  and  N_2
REMARK    2  A    between atoms: N_2  and  C_3
REMARK    3  A    between atoms: N_2  and  C_4
REMARK    4  A    between atoms: C_4  and  C_5
REMARK    5  A    between atoms: C_4  and  C_23
REMARK    6  A    between atoms: C_9  and  N_10
REMARK    7  A    between atoms: N_10  and  C_11
REMARK                            x       y       z     vdW  Elec       q    Type
REMARK                         _______ _______ _______ _____ _____    ______ ____
ROOT
ATOM      1  C   UNL     1       3.493   5.359  18.499  0.00  0.00    +0.000 A 
ATOM      2  C   UNL     1       2.961   4.073  18.647  0.00  0.00    +0.000 A 
ATOM      3  C   UNL     1       1.885   3.831  19.518  0.00  0.00    +0.000 A 
ATOM      4  C   UNL     1       1.326   4.850  20.300  0.00  0.00    +0.000 A 
ATOM      5  C   UNL     1       1.829   6.138  20.219  0.00  0.00    +0.000 A 
ATOM      6  C   UNL     1       2.909   6.377  19.307  0.00  0.00    +0.000 A 
ENDROOT
BRANCH   5   7
ATOM      7  N   UNL     1       1.498   7.187  21.137  0.00  0.00    +0.000 N 
ATOM      8  H   UNL     1       0.465   7.110  21.134  0.00  0.00    +0.000 HD
BRANCH   7   9
ATOM      9  C   UNL     1       1.647   8.705  21.154  0.00  0.00    +0.000 A 
ATOM     10  C   UNL     1       1.416   9.095  22.473  0.00  0.00    +0.000 A 
ATOM     11  C   UNL     1       0.085   9.322  22.776  0.00  0.00    +0.000 A 
ATOM     12  N   UNL     1      -0.867   9.481  21.824  0.00  0.00    +0.000 NA
ATOM     13  C   UNL     1      -0.421   9.740  20.590  0.00  0.00    +0.000 A 
ATOM     14  C   UNL     1      -1.222  10.478  19.733  0.00  0.00    +0.000 A 
ATOM     15  C   UNL     1      -0.645  11.225  18.711  0.00  0.00    +0.000 A 
ATOM     16 CL   UNL     1      -1.635  12.259  17.751  0.00  0.00    +0.000 Cl
ATOM     17  C   UNL     1       0.734  11.227  18.536  0.00  0.00    +0.000 A 
ATOM     18  C   UNL     1       1.516  10.340  19.287  0.00  0.00    +0.000 A 
ATOM     19  C   UNL     1       0.918   9.497  20.251  0.00  0.00    +0.000 A 
ENDBRANCH   7   9
ENDBRANCH   5   7
BRANCH   1  20
ATOM     20  C   UNL     1       4.755   5.621  17.639  0.00  0.00    +0.000 C 
BRANCH  20  21
ATOM     21  C   UNL     1       6.021   5.657  18.453  0.00  0.00    +0.000 A 
ATOM     22  N   UNL     1       6.331   5.066  19.589  0.00  0.00    +0.000 NA
ATOM     23  N   UNL     1       7.629   5.423  19.882  0.00  0.00    +0.000 NA
ATOM     24  N   UNL     1       8.110   6.234  18.956  0.00  0.00    +0.000 NA
ATOM     25  N   UNL     1       7.106   6.406  18.078  0.00  0.00    +0.000 N 
ATOM     26  H   UNL     1       7.248   6.959  17.250  0.00  0.00    +0.000 HD
ENDBRANCH  20  21
BRANCH  20  28
ATOM     27  C   UNL     1       5.370   5.536  15.187  0.00  0.00    +0.000 C 
ATOM     28  N   UNL     1       4.961   4.817  16.392  0.00  0.00    +0.000 NA
ATOM     29  C   UNL     1       5.795   3.638  16.596  0.00  0.00    +0.000 C 
ENDBRANCH  20  28
ENDBRANCH   1  20
TORSDOF 5
ENDMDL
MODEL 8
REMARK VINA RESULT:      -7.6      1.783      2.334
REMARK  Name = 
REMARK  7 active torsions:
REMARK  status: ('A' for Active; 'I' for Inactive)
REMARK    1  A    between atoms: C_1  and  N_2
REMARK    2  A    between atoms: N_2  and  C_3
REMARK    3  A    between atoms: N_2  and  C_4
REMARK    4  A    between atoms: C_4  and  C_5
REMARK    5  A    between atoms: C_4  and  C_23
REMARK    6  A    between atoms: C_9  and  N_10
REMARK    7  A    between atoms: N_10  and  C_11
REMARK                            x       y       z     vdW  Elec       q    Type
REMARK                         _______ _______ _______ _____ _____    ______ ____
ROOT
ATOM      1  C   UNL     1       2.552   6.855  18.731  0.00  0.00    +0.000 A 
ATOM      2  C   UNL     1       2.193   6.654  20.070  0.00  0.00    +0.000 A 
ATOM      3  C   UNL     1       1.531   7.656  20.799  0.00  0.00    +0.000 A 
ATOM      4  C   UNL     1       1.238   8.905  20.237  0.00  0.00    +0.000 A 
ATOM      5  C   UNL     1       1.594   9.175  18.926  0.00  0.00    +0.000 A 
ATOM      6  C   UNL     1       2.245   8.134  18.185  0.00  0.00    +0.000 A 
ENDROOT
BRANCH   5   7
ATOM      7  N   UNL     1       1.560  10.481  18.339  0.00  0.00    +0.000 N 
ATOM      8  H   UNL     1       2.497  10.826  18.614  0.00  0.00    +0.000 HD
BRANCH   7   9
ATOM      9  C   UNL     1       0.740  11.749  18.554  0.00  0.00    +0.000 A 
ATOM     10  C   UNL     1       1.662  12.794  18.609  0.00  0.00    +0.000 A 
ATOM     11  C   UNL     1       2.180  13.032  19.871  0.00  0.00    +0.000 A 
ATOM     12  N   UNL     1       1.614  12.540  21.000  0.00  0.00    +0.000 NA
ATOM     13  C   UNL     1       0.359  12.095  20.879  0.00  0.00    +0.000 A 
ATOM     14  C   UNL     1      -0.476  12.145  21.983  0.00  0.00    +0.000 A 
ATOM     15  C   UNL     1      -1.854  12.231  21.812  0.00  0.00    +0.000 A 
ATOM     16 CL   UNL     1      -2.870  12.450  23.187  0.00  0.00    +0.000 Cl
ATOM     17  C   UNL     1      -2.401  12.257  20.534  0.00  0.00    +0.000 A 
ATOM     18  C   UNL     1      -1.569  12.024  19.433  0.00  0.00    +0.000 A 
ATOM     19  C   UNL     1      -0.181  11.824  19.613  0.00  0.00    +0.000 A 
ENDBRANCH   7   9
ENDBRANCH   5   7
BRANCH   1  20
ATOM     20  C   UNL     1       3.389   5.811  17.951  0.00  0.00    +0.000 C 
BRANCH  20  21
ATOM     21  C   UNL     1       4.847   5.829  18.328  0.00  0.00    +0.000 A 
ATOM     22  N   UNL     1       5.885   6.369  17.723  0.00  0.00    +0.000 NA
ATOM     23  N   UNL     1       6.985   6.105  18.510  0.00  0.00    +0.000 NA
ATOM     24  N   UNL     1       6.639   5.399  19.573  0.00  0.00    +0.000 NA
ATOM     25  N   UNL     1       5.315   5.202  19.452  0.00  0.00    +0.000 N 
ATOM     26  H   UNL     1       4.808   4.717  20.175  0.00  0.00    +0.000 HD
ENDBRANCH  20  21
BRANCH  20  28
ATOM     27  C   UNL     1       1.458   4.204  17.653  0.00  0.00    +0.000 C 
ATOM     28  N   UNL     1       2.891   4.401  17.866  0.00  0.00    +0.000 NA
ATOM     29  C   UNL     1       3.667   3.568  16.953  0.00  0.00    +0.000 C 
ENDBRANCH  20  28
ENDBRANCH   1  20
TORSDOF 5
ENDMDL
MODEL 9
REMARK VINA RESULT:      -7.6      3.441      8.466
REMARK  Name = 
REMARK  7 active torsions:
REMARK  status: ('A' for Active; 'I' for Inactive)
REMARK    1  A    between atoms: C_1  and  N_2
REMARK    2  A    between atoms: N_2  and  C_3
REMARK    3  A    between atoms: N_2  and  C_4
REMARK    4  A    between atoms: C_4  and  C_5
REMARK    5  A    between atoms: C_4  and  C_23
REMARK    6  A    between atoms: C_9  and  N_10
REMARK    7  A    between atoms: N_10  and  C_11
REMARK                            x       y       z     vdW  Elec       q    Type
REMARK                         _______ _______ _______ _____ _____    ______ ____
ROOT
ATOM      1  C   UNL     1       0.658  10.121  19.812  0.00  0.00    +0.000 A 
ATOM      2  C   UNL     1      -0.028  10.308  21.017  0.00  0.00    +0.000 A 
ATOM      3  C   UNL     1       0.057   9.363  22.053  0.00  0.00    +0.000 A 
ATOM      4  C   UNL     1       0.795   8.179  21.912  0.00  0.00    +0.000 A 
ATOM      5  C   UNL     1       1.472   7.924  20.731  0.00  0.00    +0.000 A 
ATOM      6  C   UNL     1       1.399   8.910  19.692  0.00  0.00    +0.000 A 
ENDROOT
BRANCH   5   7
ATOM      7  N   UNL     1       2.048   6.656  20.396  0.00  0.00    +0.000 N 
ATOM      8  H   UNL     1       3.028   6.820  20.688  0.00  0.00    +0.000 HD
BRANCH   7   9
ATOM      9  C   UNL     1       2.286   5.877  19.106  0.00  0.00    +0.000 A 
ATOM     10  C   UNL     1       1.600   4.672  19.257  0.00  0.00    +0.000 A 
ATOM     11  C   UNL     1       2.331   3.674  19.878  0.00  0.00    +0.000 A 
ATOM     12  N   UNL     1       3.677   3.734  20.026  0.00  0.00    +0.000 NA
ATOM     13  C   UNL     1       4.309   4.630  19.261  0.00  0.00    +0.000 A 
ATOM     14  C   UNL     1       5.620   4.383  18.888  0.00  0.00    +0.000 A 
ATOM     15  C   UNL     1       6.127   4.934  17.716  0.00  0.00    +0.000 A 
ATOM     16 CL   UNL     1       7.706   4.494  17.183  0.00  0.00    +0.000 Cl
ATOM     17  C   UNL     1       5.327   5.744  16.919  0.00  0.00    +0.000 A 
ATOM     18  C   UNL     1       4.069   6.135  17.393  0.00  0.00    +0.000 A 
ATOM     19  C   UNL     1       3.595   5.665  18.639  0.00  0.00    +0.000 A 
ENDBRANCH   7   9
ENDBRANCH   5   7
BRANCH   1  20
ATOM     20  C   UNL     1       0.477  11.091  18.617  0.00  0.00    +0.000 C 
BRANCH  20  21
ATOM     21  C   UNL     1      -0.932  11.109  18.086  0.00  0.00    +0.000 A 
ATOM     22  N   UNL     1      -1.927  11.942  18.314  0.00  0.00    +0.000 NA
ATOM     23  N   UNL     1      -2.992  11.507  17.556  0.00  0.00    +0.000 NA
ATOM     24  N   UNL     1      -2.671  10.415  16.884  0.00  0.00    +0.000 NA
ATOM     25  N   UNL     1      -1.399  10.147  17.230  0.00  0.00    +0.000 N 
ATOM     26  H   UNL     1      -0.913   9.373  16.808  0.00  0.00    +0.000 HD
ENDBRANCH  20  21
BRANCH  20  28
ATOM     27  C   UNL     1       0.839  13.170  20.011  0.00  0.00    +0.000 C 
ATOM     28  N   UNL     1       1.009  12.486  18.730  0.00  0.00    +0.000 NA
ATOM     29  C   UNL     1       2.380  12.622  18.252  0.00  0.00    +0.000 C 
ENDBRANCH  20  28
ENDBRANCH   1  20
TORSDOF 5
ENDMDL
