MODEL 1
REMARK VINA RESULT:      -7.9      0.000      0.000
REMARK  Name = 
REMARK  6 active torsions:
REMARK  status: ('A' for Active; 'I' for Inactive)
REMARK    1  A    between atoms: C_1  and  S_2
REMARK    2  A    between atoms: S_2  and  C_5
REMARK    3  A    between atoms: C_8  and  C_9
REMARK    4  A    between atoms: C_11  and  C_12
REMARK    5  A    between atoms: C_14  and  O_15
REMARK    6  A    between atoms: C_16  and  N_17
REMARK                            x       y       z     vdW  Elec       q    Type
REMARK                         _______ _______ _______ _____ _____    ______ ____
ROOT
ATOM      1  C   UNL     1       3.239   6.295  17.855  0.00  0.00    +0.000 A 
ATOM      2  C   UNL     1       2.768   4.967  17.876  0.00  0.00    +0.000 A 
ATOM      3  C   UNL     1       3.546   3.900  17.400  0.00  0.00    +0.000 A 
ATOM      4  C   UNL     1       4.802   4.133  16.836  0.00  0.00    +0.000 A 
ATOM      5  C   UNL     1       5.258   5.446  16.781  0.00  0.00    +0.000 A 
ATOM      6  C   UNL     1       4.499   6.521  17.280  0.00  0.00    +0.000 A 
ENDROOT
BRANCH   1  10
ATOM      7  C   UNL     1       1.136   9.506  19.796  0.00  0.00    +0.000 A 
ATOM      8  C   UNL     1       1.462   8.355  20.511  0.00  0.00    +0.000 A 
ATOM      9  C   UNL     1       2.131   7.318  19.863  0.00  0.00    +0.000 A 
ATOM     10  C   UNL     1       2.465   7.387  18.493  0.00  0.00    +0.000 A 
ATOM     11  C   UNL     1       2.075   8.542  17.792  0.00  0.00    +0.000 A 
ATOM     12  C   UNL     1       1.417   9.598  18.434  0.00  0.00    +0.000 A 
BRANCH   7  14
ATOM     13  C   UNL     1       1.274  12.262  20.033  0.00  0.00    +0.000 C 
ATOM     14  S   UNL     1       0.369  10.862  20.646  0.00  0.00    +0.000 S 
ATOM     15  O   UNL     1       0.661  10.714  22.058  0.00  0.00    +0.000 OA
ATOM     16  O   UNL     1      -0.998  10.957  20.170  0.00  0.00    +0.000 OA
ENDBRANCH   7  14
ENDBRANCH   1  10
BRANCH   5  17
ATOM     17  N   UNL     1       6.574   5.745  16.250  0.00  0.00    +0.000 N 
ATOM     18  O   UNL     1       6.744   5.598  15.033  0.00  0.00    +0.000 OA
ATOM     19  O   UNL     1       7.453   6.029  17.075  0.00  0.00    +0.000 OA
ENDBRANCH   5  17
BRANCH   3  20
ATOM     20  C   UNL     1       3.013   2.534  17.562  0.00  0.00    +0.000 C 
ATOM     21  O   UNL     1       3.662   1.680  18.155  0.00  0.00    +0.000 OA
ENDBRANCH   3  20
BRANCH   4  22
ATOM     22  O   UNL     1       5.569   3.117  16.339  0.00  0.00    +0.000 OA
ATOM     23  H   UNL     1       6.510   3.265  16.594  0.00  0.00    +0.000 HD
ENDBRANCH   4  22
TORSDOF 5
ENDMDL
MODEL 2
REMARK VINA RESULT:      -7.9      0.751      1.312
REMARK  Name = 
REMARK  6 active torsions:
REMARK  status: ('A' for Active; 'I' for Inactive)
REMARK    1  A    between atoms: C_1  and  S_2
REMARK    2  A    between atoms: S_2  and  C_5
REMARK    3  A    between atoms: C_8  and  C_9
REMARK    4  A    between atoms: C_11  and  C_12
REMARK    5  A    between atoms: C_14  and  O_15
REMARK    6  A    between atoms: C_16  and  N_17
REMARK                            x       y       z     vdW  Elec       q    Type
REMARK                         _______ _______ _______ _____ _____    ______ ____
ROOT
ATOM      1  C   UNL     1       3.259   6.239  17.931  0.00  0.00    +0.000 A 
ATOM      2  C   UNL     1       2.895   4.880  18.001  0.00  0.00    +0.000 A 
ATOM      3  C   UNL     1       3.713   3.869  17.473  0.00  0.00    +0.000 A 
ATOM      4  C   UNL     1       4.900   4.188  16.810  0.00  0.00    +0.000 A 
ATOM      5  C   UNL     1       5.247   5.532  16.707  0.00  0.00    +0.000 A 
ATOM      6  C   UNL     1       4.449   6.552  17.255  0.00  0.00    +0.000 A 
ENDROOT
BRANCH   1  10
ATOM      7  C   UNL     1       1.069   9.297  20.017  0.00  0.00    +0.000 A 
ATOM      8  C   UNL     1       1.434   8.128  20.680  0.00  0.00    +0.000 A 
ATOM      9  C   UNL     1       2.131   7.141  19.985  0.00  0.00    +0.000 A 
ATOM     10  C   UNL     1       2.455   7.279  18.618  0.00  0.00    +0.000 A 
ATOM     11  C   UNL     1       2.026   8.450  17.968  0.00  0.00    +0.000 A 
ATOM     12  C   UNL     1       1.339   9.457  18.659  0.00  0.00    +0.000 A 
BRANCH   7  14
ATOM     13  C   UNL     1      -0.205   9.771  22.430  0.00  0.00    +0.000 C 
ATOM     14  S   UNL     1       0.265  10.592  20.927  0.00  0.00    +0.000 S 
ATOM     15  O   UNL     1      -0.941  10.949  20.207  0.00  0.00    +0.000 OA
ATOM     16  O   UNL     1       1.270  11.589  21.245  0.00  0.00    +0.000 OA
ENDBRANCH   7  14
ENDBRANCH   1  10
BRANCH   5  17
ATOM     17  N   UNL     1       6.490   5.922  16.070  0.00  0.00    +0.000 N 
ATOM     18  O   UNL     1       7.251   6.660  16.709  0.00  0.00    +0.000 OA
ATOM     19  O   UNL     1       6.646   5.563  14.895  0.00  0.00    +0.000 OA
ENDBRANCH   5  17
BRANCH   3  20
ATOM     20  C   UNL     1       3.302   2.469  17.689  0.00  0.00    +0.000 C 
ATOM     21  O   UNL     1       3.660   1.863  18.693  0.00  0.00    +0.000 OA
ENDBRANCH   3  20
BRANCH   4  22
ATOM     22  O   UNL     1       5.701   3.227  16.262  0.00  0.00    +0.000 OA
ATOM     23  H   UNL     1       5.174   2.683  15.631  0.00  0.00    +0.000 HD
ENDBRANCH   4  22
TORSDOF 5
ENDMDL
MODEL 3
REMARK VINA RESULT:      -7.8      0.924      1.428
REMARK  Name = 
REMARK  6 active torsions:
REMARK  status: ('A' for Active; 'I' for Inactive)
REMARK    1  A    between atoms: C_1  and  S_2
REMARK    2  A    between atoms: S_2  and  C_5
REMARK    3  A    between atoms: C_8  and  C_9
REMARK    4  A    between atoms: C_11  and  C_12
REMARK    5  A    between atoms: C_14  and  O_15
REMARK    6  A    between atoms: C_16  and  N_17
REMARK                            x       y       z     vdW  Elec       q    Type
REMARK                         _______ _______ _______ _____ _____    ______ ____
ROOT
ATOM      1  C   UNL     1       3.405   6.329  17.784  0.00  0.00    +0.000 A 
ATOM      2  C   UNL     1       3.001   4.985  17.917  0.00  0.00    +0.000 A 
ATOM      3  C   UNL     1       3.780   3.928  17.422  0.00  0.00    +0.000 A 
ATOM      4  C   UNL     1       4.965   4.181  16.729  0.00  0.00    +0.000 A 
ATOM      5  C   UNL     1       5.352   5.508  16.563  0.00  0.00    +0.000 A 
ATOM      6  C   UNL     1       4.594   6.575  17.078  0.00  0.00    +0.000 A 
ENDROOT
BRANCH   1  10
ATOM      7  C   UNL     1       1.063   9.456  19.583  0.00  0.00    +0.000 A 
ATOM      8  C   UNL     1       1.506   9.587  18.269  0.00  0.00    +0.000 A 
ATOM      9  C   UNL     1       2.277   8.571  17.705  0.00  0.00    +0.000 A 
ATOM     10  C   UNL     1       2.645   7.421  18.437  0.00  0.00    +0.000 A 
ATOM     11  C   UNL     1       2.223   7.347  19.777  0.00  0.00    +0.000 A 
ATOM     12  C   UNL     1       1.435   8.353  20.350  0.00  0.00    +0.000 A 
BRANCH   7  14
ATOM     13  C   UNL     1      -1.296  10.810  19.062  0.00  0.00    +0.000 C 
ATOM     14  S   UNL     1       0.005  10.706  20.266  0.00  0.00    +0.000 S 
ATOM     15  O   UNL     1       0.740  11.955  20.252  0.00  0.00    +0.000 OA
ATOM     16  O   UNL     1      -0.552  10.179  21.498  0.00  0.00    +0.000 OA
ENDBRANCH   7  14
ENDBRANCH   1  10
BRANCH   5  17
ATOM     17  N   UNL     1       6.596   5.831  15.893  0.00  0.00    +0.000 N 
ATOM     18  O   UNL     1       6.718   5.475  14.715  0.00  0.00    +0.000 OA
ATOM     19  O   UNL     1       7.479   6.354  16.587  0.00  0.00    +0.000 OA
ENDBRANCH   5  17
BRANCH   3  20
ATOM     20  C   UNL     1       3.330   2.552  17.704  0.00  0.00    +0.000 C 
ATOM     21  O   UNL     1       2.177   2.213  17.461  0.00  0.00    +0.000 OA
ENDBRANCH   3  20
BRANCH   4  22
ATOM     22  O   UNL     1       5.729   3.173  16.212  0.00  0.00    +0.000 OA
ATOM     23  H   UNL     1       5.349   2.887  15.348  0.00  0.00    +0.000 HD
ENDBRANCH   4  22
TORSDOF 5
ENDMDL
MODEL 4
REMARK VINA RESULT:      -7.8      0.776      1.498
REMARK  Name = 
REMARK  6 active torsions:
REMARK  status: ('A' for Active; 'I' for Inactive)
REMARK    1  A    between atoms: C_1  and  S_2
REMARK    2  A    between atoms: S_2  and  C_5
REMARK    3  A    between atoms: C_8  and  C_9
REMARK    4  A    between atoms: C_11  and  C_12
REMARK    5  A    between atoms: C_14  and  O_15
REMARK    6  A    between atoms: C_16  and  N_17
REMARK                            x       y       z     vdW  Elec       q    Type
REMARK                         _______ _______ _______ _____ _____    ______ ____
ROOT
ATOM      1  C   UNL     1       3.321   6.352  17.812  0.00  0.00    +0.000 A 
ATOM      2  C   UNL     1       2.876   5.019  17.919  0.00  0.00    +0.000 A 
ATOM      3  C   UNL     1       3.630   3.947  17.416  0.00  0.00    +0.000 A 
ATOM      4  C   UNL     1       4.830   4.176  16.740  0.00  0.00    +0.000 A 
ATOM      5  C   UNL     1       5.257   5.494  16.601  0.00  0.00    +0.000 A 
ATOM      6  C   UNL     1       4.524   6.574  17.124  0.00  0.00    +0.000 A 
ENDROOT
BRANCH   1  10
ATOM      7  C   UNL     1       1.048   9.514  19.638  0.00  0.00    +0.000 A 
ATOM      8  C   UNL     1       1.484   9.642  18.321  0.00  0.00    +0.000 A 
ATOM      9  C   UNL     1       2.232   8.614  17.749  0.00  0.00    +0.000 A 
ATOM     10  C   UNL     1       2.585   7.456  18.475  0.00  0.00    +0.000 A 
ATOM     11  C   UNL     1       2.171   7.384  19.817  0.00  0.00    +0.000 A 
ATOM     12  C   UNL     1       1.406   8.403  20.399  0.00  0.00    +0.000 A 
BRANCH   7  14
ATOM     13  C   UNL     1      -0.356  10.132  21.944  0.00  0.00    +0.000 C 
ATOM     14  S   UNL     1       0.017  10.781  20.333  0.00  0.00    +0.000 S 
ATOM     15  O   UNL     1      -1.209  10.818  19.562  0.00  0.00    +0.000 OA
ATOM     16  O   UNL     1       0.836  11.968  20.496  0.00  0.00    +0.000 OA
ENDBRANCH   7  14
ENDBRANCH   1  10
BRANCH   5  17
ATOM     17  N   UNL     1       6.518   5.791  15.951  0.00  0.00    +0.000 N 
ATOM     18  O   UNL     1       6.642   5.457  14.766  0.00  0.00    +0.000 OA
ATOM     19  O   UNL     1       7.410   6.270  16.665  0.00  0.00    +0.000 OA
ENDBRANCH   5  17
BRANCH   3  20
ATOM     20  C   UNL     1       3.136   2.581  17.669  0.00  0.00    +0.000 C 
ATOM     21  O   UNL     1       3.807   1.787  18.320  0.00  0.00    +0.000 OA
ENDBRANCH   3  20
BRANCH   4  22
ATOM     22  O   UNL     1       5.570   3.155  16.216  0.00  0.00    +0.000 OA
ATOM     23  H   UNL     1       6.188   3.515  15.537  0.00  0.00    +0.000 HD
ENDBRANCH   4  22
TORSDOF 5
ENDMDL
MODEL 5
REMARK VINA RESULT:      -7.8      2.454      3.832
REMARK  Name = 
REMARK  6 active torsions:
REMARK  status: ('A' for Active; 'I' for Inactive)
REMARK    1  A    between atoms: C_1  and  S_2
REMARK    2  A    between atoms: S_2  and  C_5
REMARK    3  A    between atoms: C_8  and  C_9
REMARK    4  A    between atoms: C_11  and  C_12
REMARK    5  A    between atoms: C_14  and  O_15
REMARK    6  A    between atoms: C_16  and  N_17
REMARK                            x       y       z     vdW  Elec       q    Type
REMARK                         _______ _______ _______ _____ _____    ______ ____
ROOT
ATOM      1  C   UNL     1       3.026   6.172  19.423  0.00  0.00    +0.000 A 
ATOM      2  C   UNL     1       4.251   5.988  18.751  0.00  0.00    +0.000 A 
ATOM      3  C   UNL     1       4.893   4.740  18.715  0.00  0.00    +0.000 A 
ATOM      4  C   UNL     1       4.358   3.645  19.396  0.00  0.00    +0.000 A 
ATOM      5  C   UNL     1       3.166   3.829  20.091  0.00  0.00    +0.000 A 
ATOM      6  C   UNL     1       2.500   5.068  20.112  0.00  0.00    +0.000 A 
ENDROOT
BRANCH   1  10
ATOM      7  C   UNL     1       0.774   9.818  19.058  0.00  0.00    +0.000 A 
ATOM      8  C   UNL     1       1.459   9.310  17.956  0.00  0.00    +0.000 A 
ATOM      9  C   UNL     1       2.196   8.135  18.095  0.00  0.00    +0.000 A 
ATOM     10  C   UNL     1       2.291   7.456  19.330  0.00  0.00    +0.000 A 
ATOM     11  C   UNL     1       1.628   8.026  20.432  0.00  0.00    +0.000 A 
ATOM     12  C   UNL     1       0.872   9.197  20.302  0.00  0.00    +0.000 A 
BRANCH   7  14
ATOM     13  C   UNL     1      -0.942  11.468  20.472  0.00  0.00    +0.000 C 
ATOM     14  S   UNL     1      -0.239  11.261  18.855  0.00  0.00    +0.000 S 
ATOM     15  O   UNL     1      -1.306  10.920  17.934  0.00  0.00    +0.000 OA
ATOM     16  O   UNL     1       0.646  12.381  18.593  0.00  0.00    +0.000 OA
ENDBRANCH   7  14
ENDBRANCH   1  10
BRANCH   5  17
ATOM     17  N   UNL     1       2.538   2.718  20.778  0.00  0.00    +0.000 N 
ATOM     18  O   UNL     1       1.865   1.934  20.098  0.00  0.00    +0.000 OA
ATOM     19  O   UNL     1       2.647   2.697  22.012  0.00  0.00    +0.000 OA
ENDBRANCH   5  17
BRANCH   3  20
ATOM     20  C   UNL     1       6.114   4.619  17.897  0.00  0.00    +0.000 C 
ATOM     21  O   UNL     1       7.191   4.360  18.422  0.00  0.00    +0.000 OA
ENDBRANCH   3  20
BRANCH   4  22
ATOM     22  O   UNL     1       4.976   2.427  19.402  0.00  0.00    +0.000 OA
ATOM     23  H   UNL     1       5.815   2.489  19.916  0.00  0.00    +0.000 HD
ENDBRANCH   4  22
TORSDOF 5
ENDMDL
MODEL 6
REMARK VINA RESULT:      -7.8      0.378      1.282
REMARK  Name = 
REMARK  6 active torsions:
REMARK  status: ('A' for Active; 'I' for Inactive)
REMARK    1  A    between atoms: C_1  and  S_2
REMARK    2  A    between atoms: S_2  and  C_5
REMARK    3  A    between atoms: C_8  and  C_9
REMARK    4  A    between atoms: C_11  and  C_12
REMARK    5  A    between atoms: C_14  and  O_15
REMARK    6  A    between atoms: C_16  and  N_17
REMARK                            x       y       z     vdW  Elec       q    Type
REMARK                         _______ _______ _______ _____ _____    ______ ____
ROOT
ATOM      1  C   UNL     1       3.283   6.330  17.869  0.00  0.00    +0.000 A 
ATOM      2  C   UNL     1       2.794   5.008  17.910  0.00  0.00    +0.000 A 
ATOM      3  C   UNL     1       3.550   3.927  17.430  0.00  0.00    +0.000 A 
ATOM      4  C   UNL     1       4.799   4.138  16.843  0.00  0.00    +0.000 A 
ATOM      5  C   UNL     1       5.272   5.445  16.768  0.00  0.00    +0.000 A 
ATOM      6  C   UNL     1       4.536   6.533  17.270  0.00  0.00    +0.000 A 
ENDROOT
BRANCH   1  10
ATOM      7  C   UNL     1       0.975   9.499  19.638  0.00  0.00    +0.000 A 
ATOM      8  C   UNL     1       1.378   9.591  18.308  0.00  0.00    +0.000 A 
ATOM      9  C   UNL     1       2.138   8.562  17.754  0.00  0.00    +0.000 A 
ATOM     10  C   UNL     1       2.535   7.438  18.511  0.00  0.00    +0.000 A 
ATOM     11  C   UNL     1       2.153   7.404  19.864  0.00  0.00    +0.000 A 
ATOM     12  C   UNL     1       1.376   8.423  20.428  0.00  0.00    +0.000 A 
BRANCH   7  14
ATOM     13  C   UNL     1       1.047  12.133  20.491  0.00  0.00    +0.000 C 
ATOM     14  S   UNL     1      -0.071  10.764  20.313  0.00  0.00    +0.000 S 
ATOM     15  O   UNL     1      -0.478  10.334  21.637  0.00  0.00    +0.000 OA
ATOM     16  O   UNL     1      -1.053  11.103  19.301  0.00  0.00    +0.000 OA
ENDBRANCH   7  14
ENDBRANCH   1  10
BRANCH   5  17
ATOM     17  N   UNL     1       6.582   5.720  16.212  0.00  0.00    +0.000 N 
ATOM     18  O   UNL     1       7.446   6.163  16.979  0.00  0.00    +0.000 OA
ATOM     19  O   UNL     1       6.704   5.582  14.987  0.00  0.00    +0.000 OA
ENDBRANCH   5  17
BRANCH   3  20
ATOM     20  C   UNL     1       3.002   2.570  17.613  0.00  0.00    +0.000 C 
ATOM     21  O   UNL     1       3.690   1.683  18.104  0.00  0.00    +0.000 OA
ENDBRANCH   3  20
BRANCH   4  22
ATOM     22  O   UNL     1       5.544   3.108  16.341  0.00  0.00    +0.000 OA
ATOM     23  H   UNL     1       4.977   2.549  15.760  0.00  0.00    +0.000 HD
ENDBRANCH   4  22
TORSDOF 5
ENDMDL
MODEL 7
REMARK VINA RESULT:      -7.8      2.428      3.729
REMARK  Name = 
REMARK  6 active torsions:
REMARK  status: ('A' for Active; 'I' for Inactive)
REMARK    1  A    between atoms: C_1  and  S_2
REMARK    2  A    between atoms: S_2  and  C_5
REMARK    3  A    between atoms: C_8  and  C_9
REMARK    4  A    between atoms: C_11  and  C_12
REMARK    5  A    between atoms: C_14  and  O_15
REMARK    6  A    between atoms: C_16  and  N_17
REMARK                            x       y       z     vdW  Elec       q    Type
REMARK                         _______ _______ _______ _____ _____    ______ ____
ROOT
ATOM      1  C   UNL     1       3.048   6.161  19.335  0.00  0.00    +0.000 A 
ATOM      2  C   UNL     1       4.293   5.971  18.703  0.00  0.00    +0.000 A 
ATOM      3  C   UNL     1       4.940   4.725  18.708  0.00  0.00    +0.000 A 
ATOM      4  C   UNL     1       4.389   3.639  19.391  0.00  0.00    +0.000 A 
ATOM      5  C   UNL     1       3.176   3.831  20.047  0.00  0.00    +0.000 A 
ATOM      6  C   UNL     1       2.505   5.067  20.027  0.00  0.00    +0.000 A 
ENDROOT
BRANCH   1  10
ATOM      7  C   UNL     1       1.033   9.949  19.037  0.00  0.00    +0.000 A 
ATOM      8  C   UNL     1       0.997   9.234  20.232  0.00  0.00    +0.000 A 
ATOM      9  C   UNL     1       1.643   8.001  20.308  0.00  0.00    +0.000 A 
ATOM     10  C   UNL     1       2.312   7.441  19.198  0.00  0.00    +0.000 A 
ATOM     11  C   UNL     1       2.285   8.168  17.993  0.00  0.00    +0.000 A 
ATOM     12  C   UNL     1       1.653   9.414  17.909  0.00  0.00    +0.000 A 
BRANCH   7  14
ATOM     13  C   UNL     1      -0.060  11.893  20.680  0.00  0.00    +0.000 C 
ATOM     14  S   UNL     1       0.290  11.560  18.971  0.00  0.00    +0.000 S 
ATOM     15  O   UNL     1      -0.969  11.431  18.265  0.00  0.00    +0.000 OA
ATOM     16  O   UNL     1       1.309  12.491  18.523  0.00  0.00    +0.000 OA
ENDBRANCH   7  14
ENDBRANCH   1  10
BRANCH   5  17
ATOM     17  N   UNL     1       2.532   2.729  20.733  0.00  0.00    +0.000 N 
ATOM     18  O   UNL     1       2.754   2.603  21.944  0.00  0.00    +0.000 OA
ATOM     19  O   UNL     1       1.885   1.940  20.030  0.00  0.00    +0.000 OA
ENDBRANCH   5  17
BRANCH   3  20
ATOM     20  C   UNL     1       6.186   4.595  17.929  0.00  0.00    +0.000 C 
ATOM     21  O   UNL     1       7.250   4.362  18.491  0.00  0.00    +0.000 OA
ENDBRANCH   3  20
BRANCH   4  22
ATOM     22  O   UNL     1       5.010   2.424  19.436  0.00  0.00    +0.000 OA
ATOM     23  H   UNL     1       5.104   2.072  18.519  0.00  0.00    +0.000 HD
ENDBRANCH   4  22
TORSDOF 5
ENDMDL
MODEL 8
REMARK VINA RESULT:      -7.8      2.015      2.625
REMARK  Name = 
REMARK  6 active torsions:
REMARK  status: ('A' for Active; 'I' for Inactive)
REMARK    1  A    between atoms: C_1  and  S_2
REMARK    2  A    between atoms: S_2  and  C_5
REMARK    3  A    between atoms: C_8  and  C_9
REMARK    4  A    between atoms: C_11  and  C_12
REMARK    5  A    between atoms: C_14  and  O_15
REMARK    6  A    between atoms: C_16  and  N_17
REMARK                            x       y       z     vdW  Elec       q    Type
REMARK                         _______ _______ _______ _____ _____    ______ ____
ROOT
ATOM      1  C   UNL     1       2.886   6.121  19.250  0.00  0.00    +0.000 A 
ATOM      2  C   UNL     1       2.319   5.055  19.976  0.00  0.00    +0.000 A 
ATOM      3  C   UNL     1       2.977   3.822  20.111  0.00  0.00    +0.000 A 
ATOM      4  C   UNL     1       4.202   3.596  19.481  0.00  0.00    +0.000 A 
ATOM      5  C   UNL     1       4.751   4.634  18.734  0.00  0.00    +0.000 A 
ATOM      6  C   UNL     1       4.114   5.883  18.612  0.00  0.00    +0.000 A 
ENDROOT
BRANCH   1  10
ATOM      7  C   UNL     1       0.907   9.937  19.113  0.00  0.00    +0.000 A 
ATOM      8  C   UNL     1       1.573   9.458  17.987  0.00  0.00    +0.000 A 
ATOM      9  C   UNL     1       2.221   8.226  18.052  0.00  0.00    +0.000 A 
ATOM     10  C   UNL     1       2.247   7.459  19.237  0.00  0.00    +0.000 A 
ATOM     11  C   UNL     1       1.608   7.998  20.369  0.00  0.00    +0.000 A 
ATOM     12  C   UNL     1       0.940   9.227  20.312  0.00  0.00    +0.000 A 
BRANCH   7  14
ATOM     13  C   UNL     1      -0.460  11.761  20.687  0.00  0.00    +0.000 C 
ATOM     14  S   UNL     1       0.004  11.461  18.999  0.00  0.00    +0.000 S 
ATOM     15  O   UNL     1      -1.200  11.198  18.236  0.00  0.00    +0.000 OA
ATOM     16  O   UNL     1       0.939  12.492  18.591  0.00  0.00    +0.000 OA
ENDBRANCH   7  14
ENDBRANCH   1  10
BRANCH   5  17
ATOM     17  N   UNL     1       6.042   4.475  18.095  0.00  0.00    +0.000 N 
ATOM     18  O   UNL     1       7.043   4.483  18.823  0.00  0.00    +0.000 OA
ATOM     19  O   UNL     1       6.047   4.442  16.857  0.00  0.00    +0.000 OA
ENDBRANCH   5  17
BRANCH   3  20
ATOM     20  C   UNL     1       2.355   2.803  20.978  0.00  0.00    +0.000 C 
ATOM     21  O   UNL     1       2.954   2.370  21.957  0.00  0.00    +0.000 OA
ENDBRANCH   3  20
BRANCH   4  22
ATOM     22  O   UNL     1       4.850   2.398  19.573  0.00  0.00    +0.000 OA
ATOM     23  H   UNL     1       4.448   1.760  18.938  0.00  0.00    +0.000 HD
ENDBRANCH   4  22
TORSDOF 5
ENDMDL
MODEL 9
REMARK VINA RESULT:      -7.8      2.002      2.400
REMARK  Name = 
REMARK  6 active torsions:
REMARK  status: ('A' for Active; 'I' for Inactive)
REMARK    1  A    between atoms: C_1  and  S_2
REMARK    2  A    between atoms: S_2  and  C_5
REMARK    3  A    between atoms: C_8  and  C_9
REMARK    4  A    between atoms: C_11  and  C_12
REMARK    5  A    between atoms: C_14  and  O_15
REMARK    6  A    between atoms: C_16  and  N_17
REMARK                            x       y       z     vdW  Elec       q    Type
REMARK                         _______ _______ _______ _____ _____    ______ ____
ROOT
ATOM      1  C   UNL     1       2.938   6.080  19.137  0.00  0.00    +0.000 A 
ATOM      2  C   UNL     1       2.369   5.021  19.873  0.00  0.00    +0.000 A 
ATOM      3  C   UNL     1       3.043   3.803  20.055  0.00  0.00    +0.000 A 
ATOM      4  C   UNL     1       4.289   3.585  19.464  0.00  0.00    +0.000 A 
ATOM      5  C   UNL     1       4.841   4.615  18.708  0.00  0.00    +0.000 A 
ATOM      6  C   UNL     1       4.187   5.849  18.540  0.00  0.00    +0.000 A 
ENDROOT
BRANCH   1  10
ATOM      7  C   UNL     1       1.144   9.988  19.062  0.00  0.00    +0.000 A 
ATOM      8  C   UNL     1       1.077   9.214  20.218  0.00  0.00    +0.000 A 
ATOM      9  C   UNL     1       1.650   7.944  20.221  0.00  0.00    +0.000 A 
ATOM     10  C   UNL     1       2.277   7.406  19.076  0.00  0.00    +0.000 A 
ATOM     11  C   UNL     1       2.281   8.196  17.912  0.00  0.00    +0.000 A 
ATOM     12  C   UNL     1       1.722   9.479  17.900  0.00  0.00    +0.000 A 
BRANCH   7  14
ATOM     13  C   UNL     1       0.340  11.964  20.829  0.00  0.00    +0.000 C 
ATOM     14  S   UNL     1       0.496  11.640  19.090  0.00  0.00    +0.000 S 
ATOM     15  O   UNL     1      -0.833  11.597  18.513  0.00  0.00    +0.000 OA
ATOM     16  O   UNL     1       1.518  12.518  18.551  0.00  0.00    +0.000 OA
ENDBRANCH   7  14
ENDBRANCH   1  10
BRANCH   5  17
ATOM     17  N   UNL     1       6.153   4.464  18.109  0.00  0.00    +0.000 N 
ATOM     18  O   UNL     1       7.134   4.528  18.860  0.00  0.00    +0.000 OA
ATOM     19  O   UNL     1       6.190   4.380  16.873  0.00  0.00    +0.000 OA
ENDBRANCH   5  17
BRANCH   3  20
ATOM     20  C   UNL     1       2.416   2.794  20.929  0.00  0.00    +0.000 C 
ATOM     21  O   UNL     1       2.981   2.416  21.949  0.00  0.00    +0.000 OA
ENDBRANCH   3  20
BRANCH   4  22
ATOM     22  O   UNL     1       4.956   2.400  19.602  0.00  0.00    +0.000 OA
ATOM     23  H   UNL     1       5.885   2.511  19.293  0.00  0.00    +0.000 HD
ENDBRANCH   4  22
TORSDOF 5
ENDMDL
