MODEL 1
REMARK VINA RESULT:      -6.8      0.000      0.000
REMARK  Name = 
REMARK  6 active torsions:
REMARK  status: ('A' for Active; 'I' for Inactive)
REMARK    1  A    between atoms: C_1  and  C_2
REMARK    2  A    between atoms: C_6  and  N_7
REMARK    3  A    between atoms: N_8  and  C_9
REMARK    4  A    between atoms: C_12  and  N_13
REMARK    5  A    between atoms: N_13  and  C_14
REMARK    6  A    between atoms: N_13  and  C_15
REMARK                            x       y       z     vdW  Elec       q    Type
REMARK                         _______ _______ _______ _____ _____    ______ ____
ROOT
ATOM      1  N   UNL     1       8.561   9.486  18.255  0.00  0.00    +0.000 NA
ATOM      2  N   UNL     1       8.719   8.419  18.892  0.00  0.00    +0.000 NA
ENDROOT
BRANCH   1   8
ATOM      3  C   UNL     1      11.782  13.223  17.429  0.00  0.00    +0.000 C 
ATOM      4  C   UNL     1      10.994  12.364  18.369  0.00  0.00    +0.000 A 
ATOM      5  C   UNL     1      11.046  12.563  19.750  0.00  0.00    +0.000 A 
ATOM      6  C   UNL     1      10.306  11.754  20.607  0.00  0.00    +0.000 A 
ATOM      7  C   UNL     1       9.498  10.735  20.086  0.00  0.00    +0.000 A 
ATOM      8  C   UNL     1       9.410  10.522  18.705  0.00  0.00    +0.000 A 
ATOM      9  C   UNL     1      10.176  11.336  17.858  0.00  0.00    +0.000 A 
ENDBRANCH   1   8
BRANCH   2  10
ATOM     10  C   UNL     1       7.956   7.355  18.364  0.00  0.00    +0.000 A 
ATOM     11  C   UNL     1       7.169   7.603  17.239  0.00  0.00    +0.000 A 
ATOM     12  C   UNL     1       6.357   6.595  16.677  0.00  0.00    +0.000 A 
ATOM     13  C   UNL     1       6.297   5.290  17.199  0.00  0.00    +0.000 A 
ATOM     14  C   UNL     1       7.100   5.069  18.331  0.00  0.00    +0.000 A 
ATOM     15  C   UNL     1       7.919   6.069  18.895  0.00  0.00    +0.000 A 
BRANCH  13  16
ATOM     16  N   UNL     1       5.470   4.312  16.661  0.00  0.00    +0.000 N 
ATOM     17  C   UNL     1       5.774   3.624  15.404  0.00  0.00    +0.000 C 
ATOM     18  C   UNL     1       4.418   3.648  17.432  0.00  0.00    +0.000 C 
ENDBRANCH  13  16
ENDBRANCH   2  10
TORSDOF 3
ENDMDL
MODEL 2
REMARK VINA RESULT:      -6.8      0.165      1.129
REMARK  Name = 
REMARK  6 active torsions:
REMARK  status: ('A' for Active; 'I' for Inactive)
REMARK    1  A    between atoms: C_1  and  C_2
REMARK    2  A    between atoms: C_6  and  N_7
REMARK    3  A    between atoms: N_8  and  C_9
REMARK    4  A    between atoms: C_12  and  N_13
REMARK    5  A    between atoms: N_13  and  C_14
REMARK    6  A    between atoms: N_13  and  C_15
REMARK                            x       y       z     vdW  Elec       q    Type
REMARK                         _______ _______ _______ _____ _____    ______ ____
ROOT
ATOM      1  N   UNL     1       8.472   9.593  18.340  0.00  0.00    +0.000 NA
ATOM      2  N   UNL     1       8.744   8.445  18.761  0.00  0.00    +0.000 NA
ENDROOT
BRANCH   1   8
ATOM      3  C   UNL     1      12.013  12.997  17.393  0.00  0.00    +0.000 C 
ATOM      4  C   UNL     1      11.152  12.244  18.360  0.00  0.00    +0.000 A 
ATOM      5  C   UNL     1      11.223  12.485  19.734  0.00  0.00    +0.000 A 
ATOM      6  C   UNL     1      10.415  11.775  20.616  0.00  0.00    +0.000 A 
ATOM      7  C   UNL     1       9.519  10.815  20.129  0.00  0.00    +0.000 A 
ATOM      8  C   UNL     1       9.411  10.564  18.756  0.00  0.00    +0.000 A 
ATOM      9  C   UNL     1      10.246  11.277  17.883  0.00  0.00    +0.000 A 
ENDBRANCH   1   8
BRANCH   2  10
ATOM     10  C   UNL     1       7.873   7.459  18.248  0.00  0.00    +0.000 A 
ATOM     11  C   UNL     1       7.926   6.180  18.803  0.00  0.00    +0.000 A 
ATOM     12  C   UNL     1       7.107   5.138  18.319  0.00  0.00    +0.000 A 
ATOM     13  C   UNL     1       6.190   5.319  17.269  0.00  0.00    +0.000 A 
ATOM     14  C   UNL     1       6.158   6.616  16.729  0.00  0.00    +0.000 A 
ATOM     15  C   UNL     1       6.968   7.665  17.212  0.00  0.00    +0.000 A 
BRANCH  13  16
ATOM     16  N   UNL     1       5.411   4.280  16.775  0.00  0.00    +0.000 N 
ATOM     17  C   UNL     1       5.738   3.565  15.540  0.00  0.00    +0.000 C 
ATOM     18  C   UNL     1       4.404   3.588  17.582  0.00  0.00    +0.000 C 
ENDBRANCH  13  16
ENDBRANCH   2  10
TORSDOF 3
ENDMDL
MODEL 3
REMARK VINA RESULT:      -6.5      5.207      7.884
REMARK  Name = 
REMARK  6 active torsions:
REMARK  status: ('A' for Active; 'I' for Inactive)
REMARK    1  A    between atoms: C_1  and  C_2
REMARK    2  A    between atoms: C_6  and  N_7
REMARK    3  A    between atoms: N_8  and  C_9
REMARK    4  A    between atoms: C_12  and  N_13
REMARK    5  A    between atoms: N_13  and  C_14
REMARK    6  A    between atoms: N_13  and  C_15
REMARK                            x       y       z     vdW  Elec       q    Type
REMARK                         _______ _______ _______ _____ _____    ______ ____
ROOT
ATOM      1  N   UNL     1       4.361   7.131  17.427  0.00  0.00    +0.000 NA
ATOM      2  N   UNL     1       3.556   6.663  18.265  0.00  0.00    +0.000 NA
ENDROOT
BRANCH   1   8
ATOM      3  C   UNL     1       5.979   4.046  13.838  0.00  0.00    +0.000 C 
ATOM      4  C   UNL     1       6.103   4.626  15.213  0.00  0.00    +0.000 A 
ATOM      5  C   UNL     1       7.137   4.245  16.071  0.00  0.00    +0.000 A 
ATOM      6  C   UNL     1       7.235   4.795  17.345  0.00  0.00    +0.000 A 
ATOM      7  C   UNL     1       6.296   5.742  17.774  0.00  0.00    +0.000 A 
ATOM      8  C   UNL     1       5.259   6.160  16.930  0.00  0.00    +0.000 A 
ATOM      9  C   UNL     1       5.166   5.581  15.656  0.00  0.00    +0.000 A 
ENDBRANCH   1   8
BRANCH   2  10
ATOM     10  C   UNL     1       2.587   7.605  18.672  0.00  0.00    +0.000 A 
ATOM     11  C   UNL     1       2.154   8.549  17.739  0.00  0.00    +0.000 A 
ATOM     12  C   UNL     1       1.211   9.540  18.084  0.00  0.00    +0.000 A 
ATOM     13  C   UNL     1       0.644   9.634  19.368  0.00  0.00    +0.000 A 
ATOM     14  C   UNL     1       1.099   8.671  20.286  0.00  0.00    +0.000 A 
ATOM     15  C   UNL     1       2.036   7.674  19.947  0.00  0.00    +0.000 A 
BRANCH  13  16
ATOM     16  N   UNL     1      -0.259  10.633  19.710  0.00  0.00    +0.000 N 
ATOM     17  C   UNL     1      -1.243  11.166  18.766  0.00  0.00    +0.000 C 
ATOM     18  C   UNL     1      -0.539  11.009  21.097  0.00  0.00    +0.000 C 
ENDBRANCH  13  16
ENDBRANCH   2  10
TORSDOF 3
ENDMDL
MODEL 4
REMARK VINA RESULT:      -6.4      1.871      7.958
REMARK  Name = 
REMARK  6 active torsions:
REMARK  status: ('A' for Active; 'I' for Inactive)
REMARK    1  A    between atoms: C_1  and  C_2
REMARK    2  A    between atoms: C_6  and  N_7
REMARK    3  A    between atoms: N_8  and  C_9
REMARK    4  A    between atoms: C_12  and  N_13
REMARK    5  A    between atoms: N_13  and  C_14
REMARK    6  A    between atoms: N_13  and  C_15
REMARK                            x       y       z     vdW  Elec       q    Type
REMARK                         _______ _______ _______ _____ _____    ______ ____
ROOT
ATOM      1  N   UNL     1       8.088   8.925  17.859  0.00  0.00    +0.000 NA
ATOM      2  N   UNL     1       8.841   9.117  18.841  0.00  0.00    +0.000 NA
ENDROOT
BRANCH   1   8
ATOM      3  C   UNL     1       5.396   5.316  15.681  0.00  0.00    +0.000 C 
ATOM      4  C   UNL     1       6.334   5.777  16.753  0.00  0.00    +0.000 A 
ATOM      5  C   UNL     1       6.823   4.893  17.718  0.00  0.00    +0.000 A 
ATOM      6  C   UNL     1       7.693   5.341  18.706  0.00  0.00    +0.000 A 
ATOM      7  C   UNL     1       8.089   6.685  18.737  0.00  0.00    +0.000 A 
ATOM      8  C   UNL     1       7.631   7.591  17.773  0.00  0.00    +0.000 A 
ATOM      9  C   UNL     1       6.741   7.125  16.794  0.00  0.00    +0.000 A 
ENDBRANCH   1   8
BRANCH   2  10
ATOM     10  C   UNL     1       9.200  10.474  18.993  0.00  0.00    +0.000 A 
ATOM     11  C   UNL     1       9.647  10.902  20.243  0.00  0.00    +0.000 A 
ATOM     12  C   UNL     1       9.993  12.250  20.475  0.00  0.00    +0.000 A 
ATOM     13  C   UNL     1       9.923  13.234  19.473  0.00  0.00    +0.000 A 
ATOM     14  C   UNL     1       9.470  12.775  18.224  0.00  0.00    +0.000 A 
ATOM     15  C   UNL     1       9.129  11.428  17.983  0.00  0.00    +0.000 A 
BRANCH  13  16
ATOM     16  N   UNL     1      10.233  14.566  19.717  0.00  0.00    +0.000 N 
ATOM     17  C   UNL     1      11.603  15.029  19.952  0.00  0.00    +0.000 C 
ATOM     18  C   UNL     1       9.303  15.662  19.442  0.00  0.00    +0.000 C 
ENDBRANCH  13  16
ENDBRANCH   2  10
TORSDOF 3
ENDMDL
MODEL 5
REMARK VINA RESULT:      -6.2      6.533      9.638
REMARK  Name = 
REMARK  6 active torsions:
REMARK  status: ('A' for Active; 'I' for Inactive)
REMARK    1  A    between atoms: C_1  and  C_2
REMARK    2  A    between atoms: C_6  and  N_7
REMARK    3  A    between atoms: N_8  and  C_9
REMARK    4  A    between atoms: C_12  and  N_13
REMARK    5  A    between atoms: N_13  and  C_14
REMARK    6  A    between atoms: N_13  and  C_15
REMARK                            x       y       z     vdW  Elec       q    Type
REMARK                         _______ _______ _______ _____ _____    ______ ____
ROOT
ATOM      1  N   UNL     1       2.179   7.135  18.412  0.00  0.00    +0.000 NA
ATOM      2  N   UNL     1       2.337   7.357  19.635  0.00  0.00    +0.000 NA
ENDROOT
BRANCH   1   8
ATOM      3  C   UNL     1       2.658   2.213  17.660  0.00  0.00    +0.000 C 
ATOM      4  C   UNL     1       3.201   3.606  17.569  0.00  0.00    +0.000 A 
ATOM      5  C   UNL     1       4.456   3.860  17.010  0.00  0.00    +0.000 A 
ATOM      6  C   UNL     1       4.943   5.160  16.935  0.00  0.00    +0.000 A 
ATOM      7  C   UNL     1       4.172   6.227  17.416  0.00  0.00    +0.000 A 
ATOM      8  C   UNL     1       2.903   6.007  17.964  0.00  0.00    +0.000 A 
ATOM      9  C   UNL     1       2.436   4.687  18.048  0.00  0.00    +0.000 A 
ENDBRANCH   1   8
BRANCH   2  10
ATOM     10  C   UNL     1       1.522   8.410  20.104  0.00  0.00    +0.000 A 
ATOM     11  C   UNL     1       1.089   8.368  21.430  0.00  0.00    +0.000 A 
ATOM     12  C   UNL     1       0.247   9.370  21.958  0.00  0.00    +0.000 A 
ATOM     13  C   UNL     1      -0.195  10.467  21.198  0.00  0.00    +0.000 A 
ATOM     14  C   UNL     1       0.256  10.484  19.867  0.00  0.00    +0.000 A 
ATOM     15  C   UNL     1       1.103   9.490  19.333  0.00  0.00    +0.000 A 
BRANCH  13  16
ATOM     16  N   UNL     1      -1.051  11.432  21.714  0.00  0.00    +0.000 N 
ATOM     17  C   UNL     1      -1.775  12.381  20.866  0.00  0.00    +0.000 C 
ATOM     18  C   UNL     1      -1.563  11.388  23.085  0.00  0.00    +0.000 C 
ENDBRANCH  13  16
ENDBRANCH   2  10
TORSDOF 3
ENDMDL
MODEL 6
REMARK VINA RESULT:      -6.2      5.855      8.431
REMARK  Name = 
REMARK  6 active torsions:
REMARK  status: ('A' for Active; 'I' for Inactive)
REMARK    1  A    between atoms: C_1  and  C_2
REMARK    2  A    between atoms: C_6  and  N_7
REMARK    3  A    between atoms: N_8  and  C_9
REMARK    4  A    between atoms: C_12  and  N_13
REMARK    5  A    between atoms: N_13  and  C_14
REMARK    6  A    between atoms: N_13  and  C_15
REMARK                            x       y       z     vdW  Elec       q    Type
REMARK                         _______ _______ _______ _____ _____    ______ ____
ROOT
ATOM      1  N   UNL     1       3.849   7.084  17.493  0.00  0.00    +0.000 NA
ATOM      2  N   UNL     1       2.866   6.768  18.202  0.00  0.00    +0.000 NA
ENDROOT
BRANCH   1   8
ATOM      3  C   UNL     1       6.998   5.014  14.204  0.00  0.00    +0.000 C 
ATOM      4  C   UNL     1       6.015   4.887  15.327  0.00  0.00    +0.000 A 
ATOM      5  C   UNL     1       5.695   3.643  15.873  0.00  0.00    +0.000 A 
ATOM      6  C   UNL     1       4.779   3.546  16.915  0.00  0.00    +0.000 A 
ATOM      7  C   UNL     1       4.174   4.701  17.428  0.00  0.00    +0.000 A 
ATOM      8  C   UNL     1       4.488   5.965  16.914  0.00  0.00    +0.000 A 
ATOM      9  C   UNL     1       5.400   6.041  15.852  0.00  0.00    +0.000 A 
ENDBRANCH   1   8
BRANCH   2  10
ATOM     10  C   UNL     1       2.161   7.893  18.684  0.00  0.00    +0.000 A 
ATOM     11  C   UNL     1       1.796   7.914  20.030  0.00  0.00    +0.000 A 
ATOM     12  C   UNL     1       1.062   8.991  20.572  0.00  0.00    +0.000 A 
ATOM     13  C   UNL     1       0.667  10.102  19.806  0.00  0.00    +0.000 A 
ATOM     14  C   UNL     1       1.048  10.053  18.454  0.00  0.00    +0.000 A 
ATOM     15  C   UNL     1       1.787   8.984  17.906  0.00  0.00    +0.000 A 
BRANCH  13  16
ATOM     16  N   UNL     1      -0.084  11.143  20.338  0.00  0.00    +0.000 N 
ATOM     17  C   UNL     1      -1.056  11.901  19.548  0.00  0.00    +0.000 C 
ATOM     18  C   UNL     1      -0.225  11.365  21.778  0.00  0.00    +0.000 C 
ENDBRANCH  13  16
ENDBRANCH   2  10
TORSDOF 3
ENDMDL
MODEL 7
REMARK VINA RESULT:      -6.2      5.650      7.517
REMARK  Name = 
REMARK  6 active torsions:
REMARK  status: ('A' for Active; 'I' for Inactive)
REMARK    1  A    between atoms: C_1  and  C_2
REMARK    2  A    between atoms: C_6  and  N_7
REMARK    3  A    between atoms: N_8  and  C_9
REMARK    4  A    between atoms: C_12  and  N_13
REMARK    5  A    between atoms: N_13  and  C_14
REMARK    6  A    between atoms: N_13  and  C_15
REMARK                            x       y       z     vdW  Elec       q    Type
REMARK                         _______ _______ _______ _____ _____    ______ ____
ROOT
ATOM      1  N   UNL     1       1.929   8.501  18.725  0.00  0.00    +0.000 NA
ATOM      2  N   UNL     1       2.052   7.315  19.108  0.00  0.00    +0.000 NA
ENDROOT
BRANCH   1   8
ATOM      3  C   UNL     1      -0.057   9.527  23.200  0.00  0.00    +0.000 C 
ATOM      4  C   UNL     1       0.089   9.821  21.739  0.00  0.00    +0.000 A 
ATOM      5  C   UNL     1      -0.584  10.891  21.144  0.00  0.00    +0.000 A 
ATOM      6  C   UNL     1      -0.436  11.147  19.785  0.00  0.00    +0.000 A 
ATOM      7  C   UNL     1       0.395  10.334  19.003  0.00  0.00    +0.000 A 
ATOM      8  C   UNL     1       1.098   9.266  19.574  0.00  0.00    +0.000 A 
ATOM      9  C   UNL     1       0.922   9.012  20.942  0.00  0.00    +0.000 A 
ENDBRANCH   1   8
BRANCH   2  10
ATOM     10  C   UNL     1       2.976   6.586  18.327  0.00  0.00    +0.000 A 
ATOM     11  C   UNL     1       3.898   7.299  17.561  0.00  0.00    +0.000 A 
ATOM     12  C   UNL     1       4.829   6.637  16.733  0.00  0.00    +0.000 A 
ATOM     13  C   UNL     1       4.896   5.236  16.636  0.00  0.00    +0.000 A 
ATOM     14  C   UNL     1       3.956   4.544  17.418  0.00  0.00    +0.000 A 
ATOM     15  C   UNL     1       3.026   5.198  18.253  0.00  0.00    +0.000 A 
BRANCH  13  16
ATOM     16  N   UNL     1       5.793   4.591  15.793  0.00  0.00    +0.000 N 
ATOM     17  C   UNL     1       5.503   4.328  14.382  0.00  0.00    +0.000 C 
ATOM     18  C   UNL     1       7.208   4.414  16.125  0.00  0.00    +0.000 C 
ENDBRANCH  13  16
ENDBRANCH   2  10
TORSDOF 3
ENDMDL
MODEL 8
REMARK VINA RESULT:      -6.2      6.909      8.384
REMARK  Name = 
REMARK  6 active torsions:
REMARK  status: ('A' for Active; 'I' for Inactive)
REMARK    1  A    between atoms: C_1  and  C_2
REMARK    2  A    between atoms: C_6  and  N_7
REMARK    3  A    between atoms: N_8  and  C_9
REMARK    4  A    between atoms: C_12  and  N_13
REMARK    5  A    between atoms: N_13  and  C_14
REMARK    6  A    between atoms: N_13  and  C_15
REMARK                            x       y       z     vdW  Elec       q    Type
REMARK                         _______ _______ _______ _____ _____    ______ ____
ROOT
ATOM      1  N   UNL     1       0.546   7.981  21.173  0.00  0.00    +0.000 NA
ATOM      2  N   UNL     1       1.578   8.048  20.466  0.00  0.00    +0.000 NA
ENDROOT
BRANCH   1   8
ATOM      3  C   UNL     1      -0.940  12.554  19.797  0.00  0.00    +0.000 C 
ATOM      4  C   UNL     1      -0.751  11.506  20.849  0.00  0.00    +0.000 A 
ATOM      5  C   UNL     1      -1.133  11.730  22.174  0.00  0.00    +0.000 A 
ATOM      6  C   UNL     1      -0.948  10.743  23.137  0.00  0.00    +0.000 A 
ATOM      7  C   UNL     1      -0.380   9.513  22.781  0.00  0.00    +0.000 A 
ATOM      8  C   UNL     1      -0.004   9.251  21.458  0.00  0.00    +0.000 A 
ATOM      9  C   UNL     1      -0.182  10.264  20.504  0.00  0.00    +0.000 A 
ENDBRANCH   1   8
BRANCH   2  10
ATOM     10  C   UNL     1       2.058   6.776  20.084  0.00  0.00    +0.000 A 
ATOM     11  C   UNL     1       1.670   5.671  20.842  0.00  0.00    +0.000 A 
ATOM     12  C   UNL     1       2.136   4.375  20.539  0.00  0.00    +0.000 A 
ATOM     13  C   UNL     1       3.000   4.112  19.461  0.00  0.00    +0.000 A 
ATOM     14  C   UNL     1       3.375   5.243  18.715  0.00  0.00    +0.000 A 
ATOM     15  C   UNL     1       2.908   6.541  19.008  0.00  0.00    +0.000 A 
BRANCH  13  16
ATOM     16  N   UNL     1       3.482   2.838  19.188  0.00  0.00    +0.000 N 
ATOM     17  C   UNL     1       3.305   2.188  17.888  0.00  0.00    +0.000 C 
ATOM     18  C   UNL     1       4.475   2.167  20.028  0.00  0.00    +0.000 C 
ENDBRANCH  13  16
ENDBRANCH   2  10
TORSDOF 3
ENDMDL
MODEL 9
REMARK VINA RESULT:      -6.2      5.856      8.397
REMARK  Name = 
REMARK  6 active torsions:
REMARK  status: ('A' for Active; 'I' for Inactive)
REMARK    1  A    between atoms: C_1  and  C_2
REMARK    2  A    between atoms: C_6  and  N_7
REMARK    3  A    between atoms: N_8  and  C_9
REMARK    4  A    between atoms: C_12  and  N_13
REMARK    5  A    between atoms: N_13  and  C_14
REMARK    6  A    between atoms: N_13  and  C_15
REMARK                            x       y       z     vdW  Elec       q    Type
REMARK                         _______ _______ _______ _____ _____    ______ ____
ROOT
ATOM      1  N   UNL     1       3.660   7.159  17.497  0.00  0.00    +0.000 NA
ATOM      2  N   UNL     1       2.914   6.855  18.456  0.00  0.00    +0.000 NA
ENDROOT
BRANCH   1   8
ATOM      3  C   UNL     1       6.995   5.106  14.386  0.00  0.00    +0.000 C 
ATOM      4  C   UNL     1       5.958   4.975  15.458  0.00  0.00    +0.000 A 
ATOM      5  C   UNL     1       5.626   3.730  15.997  0.00  0.00    +0.000 A 
ATOM      6  C   UNL     1       4.659   3.629  16.992  0.00  0.00    +0.000 A 
ATOM      7  C   UNL     1       4.015   4.780  17.464  0.00  0.00    +0.000 A 
ATOM      8  C   UNL     1       4.340   6.044  16.958  0.00  0.00    +0.000 A 
ATOM      9  C   UNL     1       5.304   6.124  15.943  0.00  0.00    +0.000 A 
ENDBRANCH   1   8
BRANCH   2  10
ATOM     10  C   UNL     1       2.148   7.949  18.915  0.00  0.00    +0.000 A 
ATOM     11  C   UNL     1       1.850   8.970  18.012  0.00  0.00    +0.000 A 
ATOM     12  C   UNL     1       1.116  10.108  18.409  0.00  0.00    +0.000 A 
ATOM     13  C   UNL     1       0.633  10.279  19.718  0.00  0.00    +0.000 A 
ATOM     14  C   UNL     1       0.947   9.236  20.606  0.00  0.00    +0.000 A 
ATOM     15  C   UNL     1       1.675   8.093  20.215  0.00  0.00    +0.000 A 
BRANCH  13  16
ATOM     16  N   UNL     1      -0.061  11.417  20.111  0.00  0.00    +0.000 N 
ATOM     17  C   UNL     1      -1.240  11.911  19.396  0.00  0.00    +0.000 C 
ATOM     18  C   UNL     1       0.103  12.032  21.430  0.00  0.00    +0.000 C 
ENDBRANCH  13  16
ENDBRANCH   2  10
TORSDOF 3
ENDMDL
