MODEL 1
REMARK VINA RESULT:      -8.3      0.000      0.000
REMARK  Name = 
REMARK  8 active torsions:
REMARK  status: ('A' for Active; 'I' for Inactive)
REMARK    1  A    between atoms: C_1  and  C_2
REMARK    2  A    between atoms: C_2  and  N_3
REMARK    3  A    between atoms: N_3  and  C_27
REMARK    4  A    between atoms: C_4  and  C_6
REMARK    5  A    between atoms: C_6  and  O_7
REMARK    6  A    between atoms: O_7  and  C_8
REMARK    7  A    between atoms: C_8  and  C_10
REMARK    8  A    between atoms: C_13  and  N_14
REMARK                            x       y       z     vdW  Elec       q    Type
REMARK                         _______ _______ _______ _____ _____    ______ ____
ROOT
ATOM      1  C   UNL     1       8.336   9.310  18.199  0.00  0.00    +0.000 A 
ATOM      2  C   UNL     1       8.177  10.518  17.525  0.00  0.00    +0.000 A 
ATOM      3  C   UNL     1       8.761  11.688  18.033  0.00  0.00    +0.000 A 
ATOM      4  C   UNL     1       9.519  11.690  19.219  0.00  0.00    +0.000 A 
ATOM      5  C   UNL     1       9.662  10.463  19.879  0.00  0.00    +0.000 A 
ATOM      6  C   UNL     1       9.086   9.285  19.375  0.00  0.00    +0.000 A 
ENDROOT
BRANCH   4   7
ATOM      7  N   UNL     1      10.135  12.893  19.701  0.00  0.00    +0.000 N 
ATOM      8  C   UNL     1       9.700  13.612  20.798  0.00  0.00    +0.000 C 
ATOM      9  O   UNL     1       8.795  13.429  21.595  0.00  0.00    +0.000 OA
ATOM     10  C   UNL     1      10.538  14.794  20.904  0.00  0.00    +0.000 A 
ATOM     11  C   UNL     1      10.478  15.835  21.812  0.00  0.00    +0.000 A 
ATOM     12  C   UNL     1      11.363  16.898  21.626  0.00  0.00    +0.000 A 
ATOM     13  C   UNL     1      12.275  16.891  20.552  0.00  0.00    +0.000 A 
ATOM     14  C   UNL     1      12.330  15.810  19.661  0.00  0.00    +0.000 A 
ATOM     15  C   UNL     1      11.443  14.767  19.869  0.00  0.00    +0.000 A 
ATOM     16  C   UNL     1      11.219  13.530  19.122  0.00  0.00    +0.000 C 
ATOM     17  O   UNL     1      11.928  13.234  18.176  0.00  0.00    +0.000 OA
ENDBRANCH   4   7
BRANCH   1  18
ATOM     18  C   UNL     1       7.719   8.050  17.720  0.00  0.00    +0.000 C 
ATOM     19  O   UNL     1       6.924   7.985  16.799  0.00  0.00    +0.000 OA
BRANCH  18  20
ATOM     20  O   UNL     1       8.254   7.008  18.393  0.00  0.00    +0.000 OA
BRANCH  20  21
ATOM     21  C   UNL     1       7.343   5.978  18.803  0.00  0.00    +0.000 C 
BRANCH  21  23
ATOM     22  N   UNL     1       5.830   4.639  17.261  0.00  0.00    +0.000 N 
ATOM     23  C   UNL     1       7.143   5.009  17.622  0.00  0.00    +0.000 C 
ATOM     24  O   UNL     1       8.139   4.593  17.028  0.00  0.00    +0.000 OA
BRANCH  22  25
ATOM     25  C   UNL     1       4.636   5.247  17.912  0.00  0.00    +0.000 C 
ATOM     26  C   UNL     1       4.481   5.048  19.434  0.00  0.00    +0.000 C 
ATOM     27  C   UNL     1       3.725   3.755  19.691  0.00  0.00    +0.000 C 
ATOM     28  S   UNL     1       2.591   3.588  18.329  0.00  0.00    +0.000 S 
ATOM     29  O   UNL     1       1.296   4.071  18.758  0.00  0.00    +0.000 OA
ATOM     30  O   UNL     1       2.771   2.279  17.739  0.00  0.00    +0.000 OA
ATOM     31  C   UNL     1       3.318   4.814  17.260  0.00  0.00    +0.000 C 
ENDBRANCH  22  25
BRANCH  22  33
ATOM     32  C   UNL     1       5.550   4.260  14.686  0.00  0.00    +0.000 C 
ATOM     33  C   UNL     1       5.595   3.737  16.114  0.00  0.00    +0.000 C 
ENDBRANCH  22  33
ENDBRANCH  21  23
ENDBRANCH  20  21
ENDBRANCH  18  20
ENDBRANCH   1  18
TORSDOF 7
ENDMDL
MODEL 2
REMARK VINA RESULT:      -8.2      1.327      1.471
REMARK  Name = 
REMARK  8 active torsions:
REMARK  status: ('A' for Active; 'I' for Inactive)
REMARK    1  A    between atoms: C_1  and  C_2
REMARK    2  A    between atoms: C_2  and  N_3
REMARK    3  A    between atoms: N_3  and  C_27
REMARK    4  A    between atoms: C_4  and  C_6
REMARK    5  A    between atoms: C_6  and  O_7
REMARK    6  A    between atoms: O_7  and  C_8
REMARK    7  A    between atoms: C_8  and  C_10
REMARK    8  A    between atoms: C_13  and  N_14
REMARK                            x       y       z     vdW  Elec       q    Type
REMARK                         _______ _______ _______ _____ _____    ______ ____
ROOT
ATOM      1  C   UNL     1       8.625   9.687  18.383  0.00  0.00    +0.000 A 
ATOM      2  C   UNL     1       8.165  10.702  17.549  0.00  0.00    +0.000 A 
ATOM      3  C   UNL     1       8.543  12.032  17.787  0.00  0.00    +0.000 A 
ATOM      4  C   UNL     1       9.389  12.388  18.855  0.00  0.00    +0.000 A 
ATOM      5  C   UNL     1       9.836  11.349  19.680  0.00  0.00    +0.000 A 
ATOM      6  C   UNL     1       9.467  10.013  19.446  0.00  0.00    +0.000 A 
ENDROOT
BRANCH   4   7
ATOM      7  N   UNL     1       9.789  13.751  19.058  0.00  0.00    +0.000 N 
ATOM      8  C   UNL     1       8.960  14.750  19.529  0.00  0.00    +0.000 C 
ATOM      9  O   UNL     1       7.798  14.749  19.896  0.00  0.00    +0.000 OA
ATOM     10  C   UNL     1       9.720  15.989  19.517  0.00  0.00    +0.000 A 
ATOM     11  C   UNL     1       9.323  17.267  19.862  0.00  0.00    +0.000 A 
ATOM     12  C   UNL     1      10.244  18.297  19.670  0.00  0.00    +0.000 A 
ATOM     13  C   UNL     1      11.523  18.025  19.146  0.00  0.00    +0.000 A 
ATOM     14  C   UNL     1      11.907  16.715  18.827  0.00  0.00    +0.000 A 
ATOM     15  C   UNL     1      10.976  15.711  19.029  0.00  0.00    +0.000 A 
ATOM     16  C   UNL     1      11.041  14.272  18.777  0.00  0.00    +0.000 C 
ATOM     17  O   UNL     1      12.071  13.752  18.384  0.00  0.00    +0.000 OA
ENDBRANCH   4   7
BRANCH   1  18
ATOM     18  C   UNL     1       8.236   8.269  18.192  0.00  0.00    +0.000 C 
ATOM     19  O   UNL     1       8.566   7.363  18.938  0.00  0.00    +0.000 OA
BRANCH  18  20
ATOM     20  O   UNL     1       7.394   8.175  17.140  0.00  0.00    +0.000 OA
BRANCH  20  21
ATOM     21  C   UNL     1       6.254   7.320  17.309  0.00  0.00    +0.000 C 
BRANCH  21  23
ATOM     22  N   UNL     1       5.560   4.977  16.611  0.00  0.00    +0.000 N 
ATOM     23  C   UNL     1       6.485   6.036  16.492  0.00  0.00    +0.000 C 
ATOM     24  O   UNL     1       7.471   5.977  15.754  0.00  0.00    +0.000 OA
BRANCH  22  25
ATOM     25  C   UNL     1       4.311   5.113  17.412  0.00  0.00    +0.000 C 
ATOM     26  C   UNL     1       4.450   5.098  18.948  0.00  0.00    +0.000 C 
ATOM     27  C   UNL     1       4.381   3.662  19.439  0.00  0.00    +0.000 C 
ATOM     28  S   UNL     1       3.278   2.828  18.317  0.00  0.00    +0.000 S 
ATOM     29  O   UNL     1       1.967   2.776  18.929  0.00  0.00    +0.000 OA
ATOM     30  O   UNL     1       3.942   1.646  17.812  0.00  0.00    +0.000 OA
ATOM     31  C   UNL     1       3.251   4.071  17.040  0.00  0.00    +0.000 C 
ENDBRANCH  22  25
BRANCH  22  33
ATOM     32  C   UNL     1       5.891   3.779  14.307  0.00  0.00    +0.000 C 
ATOM     33  C   UNL     1       5.730   3.740  15.820  0.00  0.00    +0.000 C 
ENDBRANCH  22  33
ENDBRANCH  21  23
ENDBRANCH  20  21
ENDBRANCH  18  20
ENDBRANCH   1  18
TORSDOF 7
ENDMDL
MODEL 3
REMARK VINA RESULT:      -8.1      7.907      9.823
REMARK  Name = 
REMARK  8 active torsions:
REMARK  status: ('A' for Active; 'I' for Inactive)
REMARK    1  A    between atoms: C_1  and  C_2
REMARK    2  A    between atoms: C_2  and  N_3
REMARK    3  A    between atoms: N_3  and  C_27
REMARK    4  A    between atoms: C_4  and  C_6
REMARK    5  A    between atoms: C_6  and  O_7
REMARK    6  A    between atoms: O_7  and  C_8
REMARK    7  A    between atoms: C_8  and  C_10
REMARK    8  A    between atoms: C_13  and  N_14
REMARK                            x       y       z     vdW  Elec       q    Type
REMARK                         _______ _______ _______ _____ _____    ______ ____
ROOT
ATOM      1  C   UNL     1       0.865  10.060  19.219  0.00  0.00    +0.000 A 
ATOM      2  C   UNL     1       0.227   9.585  20.362  0.00  0.00    +0.000 A 
ATOM      3  C   UNL     1      -0.615  10.431  21.099  0.00  0.00    +0.000 A 
ATOM      4  C   UNL     1      -0.851  11.766  20.720  0.00  0.00    +0.000 A 
ATOM      5  C   UNL     1      -0.196  12.220  19.567  0.00  0.00    +0.000 A 
ATOM      6  C   UNL     1       0.645  11.379  18.819  0.00  0.00    +0.000 A 
ENDROOT
BRANCH   4   7
ATOM      7  N   UNL     1      -1.743  12.602  21.470  0.00  0.00    +0.000 N 
ATOM      8  C   UNL     1      -1.418  13.229  22.658  0.00  0.00    +0.000 C 
ATOM      9  O   UNL     1      -0.389  13.274  23.309  0.00  0.00    +0.000 OA
ATOM     10  C   UNL     1      -2.612  13.911  23.131  0.00  0.00    +0.000 A 
ATOM     11  C   UNL     1      -2.804  14.645  24.285  0.00  0.00    +0.000 A 
ATOM     12  C   UNL     1      -4.092  15.120  24.534  0.00  0.00    +0.000 A 
ATOM     13  C   UNL     1      -5.141  14.853  23.632  0.00  0.00    +0.000 A 
ATOM     14  C   UNL     1      -4.911  14.125  22.456  0.00  0.00    +0.000 A 
ATOM     15  C   UNL     1      -3.624  13.667  22.231  0.00  0.00    +0.000 A 
ATOM     16  C   UNL     1      -3.062  12.868  21.143  0.00  0.00    +0.000 C 
ATOM     17  O   UNL     1      -3.742  12.555  20.182  0.00  0.00    +0.000 OA
ENDBRANCH   4   7
BRANCH   1  18
ATOM     18  C   UNL     1       1.785   9.218  18.418  0.00  0.00    +0.000 C 
ATOM     19  O   UNL     1       2.308   9.576  17.376  0.00  0.00    +0.000 OA
BRANCH  18  20
ATOM     20  O   UNL     1       2.015   8.060  19.074  0.00  0.00    +0.000 OA
BRANCH  20  21
ATOM     21  C   UNL     1       2.262   6.903  18.261  0.00  0.00    +0.000 C 
BRANCH  21  23
ATOM     22  N   UNL     1       4.187   5.253  18.428  0.00  0.00    +0.000 N 
ATOM     23  C   UNL     1       3.122   5.916  19.073  0.00  0.00    +0.000 C 
ATOM     24  O   UNL     1       2.853   5.742  20.263  0.00  0.00    +0.000 OA
BRANCH  22  25
ATOM     25  C   UNL     1       4.573   5.567  17.023  0.00  0.00    +0.000 C 
ATOM     26  C   UNL     1       4.535   4.410  16.003  0.00  0.00    +0.000 C 
ATOM     27  C   UNL     1       5.877   3.698  16.010  0.00  0.00    +0.000 C 
ATOM     28  S   UNL     1       7.083   4.960  16.362  0.00  0.00    +0.000 S 
ATOM     29  O   UNL     1       7.664   5.391  15.109  0.00  0.00    +0.000 OA
ATOM     30  O   UNL     1       7.892   4.523  17.480  0.00  0.00    +0.000 OA
ATOM     31  C   UNL     1       5.954   6.221  16.918  0.00  0.00    +0.000 C 
ENDBRANCH  22  25
BRANCH  22  33
ATOM     32  C   UNL     1       4.621   2.893  19.474  0.00  0.00    +0.000 C 
ATOM     33  C   UNL     1       5.055   4.321  19.180  0.00  0.00    +0.000 C 
ENDBRANCH  22  33
ENDBRANCH  21  23
ENDBRANCH  20  21
ENDBRANCH  18  20
ENDBRANCH   1  18
TORSDOF 7
ENDMDL
MODEL 4
REMARK VINA RESULT:      -7.9      7.345      9.601
REMARK  Name = 
REMARK  8 active torsions:
REMARK  status: ('A' for Active; 'I' for Inactive)
REMARK    1  A    between atoms: C_1  and  C_2
REMARK    2  A    between atoms: C_2  and  N_3
REMARK    3  A    between atoms: N_3  and  C_27
REMARK    4  A    between atoms: C_4  and  C_6
REMARK    5  A    between atoms: C_6  and  O_7
REMARK    6  A    between atoms: O_7  and  C_8
REMARK    7  A    between atoms: C_8  and  C_10
REMARK    8  A    between atoms: C_13  and  N_14
REMARK                            x       y       z     vdW  Elec       q    Type
REMARK                         _______ _______ _______ _____ _____    ______ ____
ROOT
ATOM      1  C   UNL     1       1.292   9.162  19.143  0.00  0.00    +0.000 A 
ATOM      2  C   UNL     1       0.706  10.176  18.389  0.00  0.00    +0.000 A 
ATOM      3  C   UNL     1      -0.223  11.044  18.981  0.00  0.00    +0.000 A 
ATOM      4  C   UNL     1      -0.594  10.932  20.334  0.00  0.00    +0.000 A 
ATOM      5  C   UNL     1       0.007   9.902  21.070  0.00  0.00    +0.000 A 
ATOM      6  C   UNL     1       0.944   9.032  20.488  0.00  0.00    +0.000 A 
ENDROOT
BRANCH   4   7
ATOM      7  N   UNL     1      -1.522  11.852  20.926  0.00  0.00    +0.000 N 
ATOM      8  C   UNL     1      -1.408  12.369  22.203  0.00  0.00    +0.000 C 
ATOM      9  O   UNL     1      -0.565  12.232  23.073  0.00  0.00    +0.000 OA
ATOM     10  C   UNL     1      -2.581  13.193  22.445  0.00  0.00    +0.000 A 
ATOM     11  C   UNL     1      -2.943  13.892  23.580  0.00  0.00    +0.000 A 
ATOM     12  C   UNL     1      -4.180  14.537  23.567  0.00  0.00    +0.000 A 
ATOM     13  C   UNL     1      -5.011  14.468  22.431  0.00  0.00    +0.000 A 
ATOM     14  C   UNL     1      -4.607  13.771  21.284  0.00  0.00    +0.000 A 
ATOM     15  C   UNL     1      -3.374  13.142  21.322  0.00  0.00    +0.000 A 
ATOM     16  C   UNL     1      -2.680  12.322  20.330  0.00  0.00    +0.000 C 
ATOM     17  O   UNL     1      -3.148  12.157  19.217  0.00  0.00    +0.000 OA
ENDBRANCH   4   7
BRANCH   1  18
ATOM     18  C   UNL     1       2.260   8.202  18.561  0.00  0.00    +0.000 C 
ATOM     19  O   UNL     1       2.847   8.377  17.507  0.00  0.00    +0.000 OA
BRANCH  18  20
ATOM     20  O   UNL     1       2.450   7.181  19.425  0.00  0.00    +0.000 OA
BRANCH  20  21
ATOM     21  C   UNL     1       1.902   5.911  19.043  0.00  0.00    +0.000 C 
BRANCH  21  23
ATOM     22  N   UNL     1       3.937   4.401  18.854  0.00  0.00    +0.000 N 
ATOM     23  C   UNL     1       2.812   4.802  19.604  0.00  0.00    +0.000 C 
ATOM     24  O   UNL     1       2.529   4.305  20.695  0.00  0.00    +0.000 OA
BRANCH  22  25
ATOM     25  C   UNL     1       4.331   5.097  17.596  0.00  0.00    +0.000 C 
ATOM     26  C   UNL     1       4.546   4.226  16.342  0.00  0.00    +0.000 C 
ATOM     27  C   UNL     1       5.990   3.754  16.307  0.00  0.00    +0.000 C 
ATOM     28  S   UNL     1       6.939   5.070  17.041  0.00  0.00    +0.000 S 
ATOM     29  O   UNL     1       7.497   5.873  15.974  0.00  0.00    +0.000 OA
ATOM     30  O   UNL     1       7.755   4.514  18.098  0.00  0.00    +0.000 OA
ATOM     31  C   UNL     1       5.581   5.968  17.765  0.00  0.00    +0.000 C 
ENDBRANCH  22  25
BRANCH  22  33
ATOM     32  C   UNL     1       4.433   1.902  19.451  0.00  0.00    +0.000 C 
ATOM     33  C   UNL     1       4.852   3.362  19.371  0.00  0.00    +0.000 C 
ENDBRANCH  22  33
ENDBRANCH  21  23
ENDBRANCH  20  21
ENDBRANCH  18  20
ENDBRANCH   1  18
TORSDOF 7
ENDMDL
MODEL 5
REMARK VINA RESULT:      -7.9      1.453      2.263
REMARK  Name = 
REMARK  8 active torsions:
REMARK  status: ('A' for Active; 'I' for Inactive)
REMARK    1  A    between atoms: C_1  and  C_2
REMARK    2  A    between atoms: C_2  and  N_3
REMARK    3  A    between atoms: N_3  and  C_27
REMARK    4  A    between atoms: C_4  and  C_6
REMARK    5  A    between atoms: C_6  and  O_7
REMARK    6  A    between atoms: O_7  and  C_8
REMARK    7  A    between atoms: C_8  and  C_10
REMARK    8  A    between atoms: C_13  and  N_14
REMARK                            x       y       z     vdW  Elec       q    Type
REMARK                         _______ _______ _______ _____ _____    ______ ____
ROOT
ATOM      1  C   UNL     1       8.643   9.826  18.227  0.00  0.00    +0.000 A 
ATOM      2  C   UNL     1       8.026  10.827  17.481  0.00  0.00    +0.000 A 
ATOM      3  C   UNL     1       8.435  12.161  17.622  0.00  0.00    +0.000 A 
ATOM      4  C   UNL     1       9.469  12.537  18.501  0.00  0.00    +0.000 A 
ATOM      5  C   UNL     1      10.072  11.512  19.240  0.00  0.00    +0.000 A 
ATOM      6  C   UNL     1       9.673  10.172  19.102  0.00  0.00    +0.000 A 
ENDROOT
BRANCH   4   7
ATOM      7  N   UNL     1       9.893  13.903  18.602  0.00  0.00    +0.000 N 
ATOM      8  C   UNL     1      10.805  14.507  17.758  0.00  0.00    +0.000 C 
ATOM      9  O   UNL     1      11.410  14.105  16.779  0.00  0.00    +0.000 OA
ATOM     10  C   UNL     1      11.018  15.861  18.243  0.00  0.00    +0.000 A 
ATOM     11  C   UNL     1      11.860  16.844  17.760  0.00  0.00    +0.000 A 
ATOM     12  C   UNL     1      11.930  18.037  18.480  0.00  0.00    +0.000 A 
ATOM     13  C   UNL     1      11.163  18.213  19.649  0.00  0.00    +0.000 A 
ATOM     14  C   UNL     1      10.299  17.207  20.102  0.00  0.00    +0.000 A 
ATOM     15  C   UNL     1      10.246  16.035  19.368  0.00  0.00    +0.000 A 
ATOM     16  C   UNL     1       9.489  14.800  19.577  0.00  0.00    +0.000 C 
ATOM     17  O   UNL     1       8.684  14.708  20.487  0.00  0.00    +0.000 OA
ENDBRANCH   4   7
BRANCH   1  18
ATOM     18  C   UNL     1       8.233   8.404  18.136  0.00  0.00    +0.000 C 
ATOM     19  O   UNL     1       8.558   7.546  18.939  0.00  0.00    +0.000 OA
BRANCH  18  20
ATOM     20  O   UNL     1       7.381   8.251  17.100  0.00  0.00    +0.000 OA
BRANCH  20  21
ATOM     21  C   UNL     1       6.306   7.319  17.289  0.00  0.00    +0.000 C 
BRANCH  21  23
ATOM     22  N   UNL     1       5.656   5.018  16.430  0.00  0.00    +0.000 N 
ATOM     23  C   UNL     1       6.620   6.046  16.481  0.00  0.00    +0.000 C 
ATOM     24  O   UNL     1       7.704   5.971  15.899  0.00  0.00    +0.000 OA
BRANCH  22  25
ATOM     25  C   UNL     1       4.304   5.178  17.037  0.00  0.00    +0.000 C 
ATOM     26  C   UNL     1       4.188   6.088  18.277  0.00  0.00    +0.000 C 
ATOM     27  C   UNL     1       4.440   5.261  19.526  0.00  0.00    +0.000 C 
ATOM     28  S   UNL     1       3.811   3.636  19.156  0.00  0.00    +0.000 S 
ATOM     29  O   UNL     1       2.484   3.527  19.724  0.00  0.00    +0.000 OA
ATOM     30  O   UNL     1       4.851   2.668  19.428  0.00  0.00    +0.000 OA
ATOM     31  C   UNL     1       3.650   3.838  17.393  0.00  0.00    +0.000 C 
ENDBRANCH  22  25
BRANCH  22  33
ATOM     32  C   UNL     1       5.923   3.819  14.118  0.00  0.00    +0.000 C 
ATOM     33  C   UNL     1       5.906   3.794  15.640  0.00  0.00    +0.000 C 
ENDBRANCH  22  33
ENDBRANCH  21  23
ENDBRANCH  20  21
ENDBRANCH  18  20
ENDBRANCH   1  18
TORSDOF 7
ENDMDL
MODEL 6
REMARK VINA RESULT:      -7.9      7.722      9.705
REMARK  Name = 
REMARK  8 active torsions:
REMARK  status: ('A' for Active; 'I' for Inactive)
REMARK    1  A    between atoms: C_1  and  C_2
REMARK    2  A    between atoms: C_2  and  N_3
REMARK    3  A    between atoms: N_3  and  C_27
REMARK    4  A    between atoms: C_4  and  C_6
REMARK    5  A    between atoms: C_6  and  O_7
REMARK    6  A    between atoms: O_7  and  C_8
REMARK    7  A    between atoms: C_8  and  C_10
REMARK    8  A    between atoms: C_13  and  N_14
REMARK                            x       y       z     vdW  Elec       q    Type
REMARK                         _______ _______ _______ _____ _____    ______ ____
ROOT
ATOM      1  C   UNL     1       0.957   9.454  19.477  0.00  0.00    +0.000 A 
ATOM      2  C   UNL     1       0.441   9.218  20.749  0.00  0.00    +0.000 A 
ATOM      3  C   UNL     1      -0.399  10.164  21.353  0.00  0.00    +0.000 A 
ATOM      4  C   UNL     1      -0.753  11.367  20.712  0.00  0.00    +0.000 A 
ATOM      5  C   UNL     1      -0.220  11.582  19.434  0.00  0.00    +0.000 A 
ATOM      6  C   UNL     1       0.618  10.636  18.818  0.00  0.00    +0.000 A 
ENDROOT
BRANCH   4   7
ATOM      7  N   UNL     1      -1.641  12.304  21.336  0.00  0.00    +0.000 N 
ATOM      8  C   UNL     1      -1.381  12.960  22.524  0.00  0.00    +0.000 C 
ATOM      9  O   UNL     1      -0.419  12.955  23.272  0.00  0.00    +0.000 OA
ATOM     10  C   UNL     1      -2.555  13.755  22.848  0.00  0.00    +0.000 A 
ATOM     11  C   UNL     1      -2.796  14.556  23.948  0.00  0.00    +0.000 A 
ATOM     12  C   UNL     1      -4.058  15.142  24.049  0.00  0.00    +0.000 A 
ATOM     13  C   UNL     1      -5.033  14.914  23.058  0.00  0.00    +0.000 A 
ATOM     14  C   UNL     1      -4.753  14.115  21.941  0.00  0.00    +0.000 A 
ATOM     15  C   UNL     1      -3.492  13.549  21.863  0.00  0.00    +0.000 A 
ATOM     16  C   UNL     1      -2.896  12.656  20.869  0.00  0.00    +0.000 C 
ATOM     17  O   UNL     1      -3.505  12.352  19.858  0.00  0.00    +0.000 OA
ENDBRANCH   4   7
BRANCH   1  18
ATOM     18  C   UNL     1       1.869   8.499  18.803  0.00  0.00    +0.000 C 
ATOM     19  O   UNL     1       2.512   8.761  17.800  0.00  0.00    +0.000 OA
BRANCH  18  20
ATOM     20  O   UNL     1       1.941   7.363  19.528  0.00  0.00    +0.000 OA
BRANCH  20  21
ATOM     21  C   UNL     1       3.147   6.597  19.398  0.00  0.00    +0.000 C 
BRANCH  21  23
ATOM     22  N   UNL     1       3.750   4.693  17.826  0.00  0.00    +0.000 N 
ATOM     23  C   UNL     1       2.805   5.266  18.702  0.00  0.00    +0.000 C 
ATOM     24  O   UNL     1       1.715   4.742  18.939  0.00  0.00    +0.000 OA
BRANCH  22  25
ATOM     25  C   UNL     1       5.110   5.278  17.647  0.00  0.00    +0.000 C 
ATOM     26  C   UNL     1       5.199   6.679  17.007  0.00  0.00    +0.000 C 
ATOM     27  C   UNL     1       5.273   6.530  15.496  0.00  0.00    +0.000 C 
ATOM     28  S   UNL     1       6.157   5.012  15.210  0.00  0.00    +0.000 S 
ATOM     29  O   UNL     1       7.541   5.340  14.937  0.00  0.00    +0.000 OA
ATOM     30  O   UNL     1       5.371   4.182  14.323  0.00  0.00    +0.000 OA
ATOM     31  C   UNL     1       6.053   4.359  16.864  0.00  0.00    +0.000 C 
ENDBRANCH  22  25
BRANCH  22  33
ATOM     32  C   UNL     1       3.466   2.094  17.940  0.00  0.00    +0.000 C 
ATOM     33  C   UNL     1       3.472   3.402  17.163  0.00  0.00    +0.000 C 
ENDBRANCH  22  33
ENDBRANCH  21  23
ENDBRANCH  20  21
ENDBRANCH  18  20
ENDBRANCH   1  18
TORSDOF 7
ENDMDL
MODEL 7
REMARK VINA RESULT:      -7.8      8.688     10.312
REMARK  Name = 
REMARK  8 active torsions:
REMARK  status: ('A' for Active; 'I' for Inactive)
REMARK    1  A    between atoms: C_1  and  C_2
REMARK    2  A    between atoms: C_2  and  N_3
REMARK    3  A    between atoms: N_3  and  C_27
REMARK    4  A    between atoms: C_4  and  C_6
REMARK    5  A    between atoms: C_6  and  O_7
REMARK    6  A    between atoms: O_7  and  C_8
REMARK    7  A    between atoms: C_8  and  C_10
REMARK    8  A    between atoms: C_13  and  N_14
REMARK                            x       y       z     vdW  Elec       q    Type
REMARK                         _______ _______ _______ _____ _____    ______ ____
ROOT
ATOM      1  C   UNL     1       0.096  10.008  21.336  0.00  0.00    +0.000 A 
ATOM      2  C   UNL     1      -0.421   9.864  22.621  0.00  0.00    +0.000 A 
ATOM      3  C   UNL     1      -1.237  10.866  23.166  0.00  0.00    +0.000 A 
ATOM      4  C   UNL     1      -1.564  12.034  22.451  0.00  0.00    +0.000 A 
ATOM      5  C   UNL     1      -1.030  12.156  21.162  0.00  0.00    +0.000 A 
ATOM      6  C   UNL     1      -0.216  11.154  20.605  0.00  0.00    +0.000 A 
ENDROOT
BRANCH   4   7
ATOM      7  N   UNL     1      -2.428  13.030  23.016  0.00  0.00    +0.000 N 
ATOM      8  C   UNL     1      -3.798  13.073  22.839  0.00  0.00    +0.000 C 
ATOM      9  O   UNL     1      -4.573  12.340  22.250  0.00  0.00    +0.000 OA
ATOM     10  C   UNL     1      -4.286  14.269  23.505  0.00  0.00    +0.000 A 
ATOM     11  C   UNL     1      -5.572  14.769  23.582  0.00  0.00    +0.000 A 
ATOM     12  C   UNL     1      -5.744  15.998  24.219  0.00  0.00    +0.000 A 
ATOM     13  C   UNL     1      -4.639  16.686  24.757  0.00  0.00    +0.000 A 
ATOM     14  C   UNL     1      -3.348  16.143  24.686  0.00  0.00    +0.000 A 
ATOM     15  C   UNL     1      -3.205  14.922  24.051  0.00  0.00    +0.000 A 
ATOM     16  C   UNL     1      -2.019  14.110  23.780  0.00  0.00    +0.000 C 
ATOM     17  O   UNL     1      -0.925  14.440  24.204  0.00  0.00    +0.000 OA
ENDBRANCH   4   7
BRANCH   1  18
ATOM     18  C   UNL     1       0.984   8.991  20.722  0.00  0.00    +0.000 C 
ATOM     19  O   UNL     1       1.306   7.948  21.264  0.00  0.00    +0.000 OA
BRANCH  18  20
ATOM     20  O   UNL     1       1.281   9.364  19.458  0.00  0.00    +0.000 OA
BRANCH  20  21
ATOM     21  C   UNL     1       1.227   8.334  18.460  0.00  0.00    +0.000 C 
BRANCH  21  23
ATOM     22  N   UNL     1       3.215   6.771  18.205  0.00  0.00    +0.000 N 
ATOM     23  C   UNL     1       2.663   8.049  17.979  0.00  0.00    +0.000 C 
ATOM     24  O   UNL     1       3.281   8.949  17.407  0.00  0.00    +0.000 OA
BRANCH  22  25
ATOM     25  C   UNL     1       2.410   5.660  18.788  0.00  0.00    +0.000 C 
ATOM     26  C   UNL     1       2.976   4.957  20.039  0.00  0.00    +0.000 C 
ATOM     27  C   UNL     1       3.880   3.817  19.602  0.00  0.00    +0.000 C 
ATOM     28  S   UNL     1       3.173   3.204  18.087  0.00  0.00    +0.000 S 
ATOM     29  O   UNL     1       2.371   2.040  18.402  0.00  0.00    +0.000 OA
ATOM     30  O   UNL     1       4.206   3.180  17.074  0.00  0.00    +0.000 OA
ATOM     31  C   UNL     1       2.074   4.569  17.766  0.00  0.00    +0.000 C 
ENDBRANCH  22  25
BRANCH  22  33
ATOM     32  C   UNL     1       4.921   6.429  16.250  0.00  0.00    +0.000 C 
ATOM     33  C   UNL     1       4.578   6.448  17.732  0.00  0.00    +0.000 C 
ENDBRANCH  22  33
ENDBRANCH  21  23
ENDBRANCH  20  21
ENDBRANCH  18  20
ENDBRANCH   1  18
TORSDOF 7
ENDMDL
MODEL 8
REMARK VINA RESULT:      -7.7      7.203      9.523
REMARK  Name = 
REMARK  8 active torsions:
REMARK  status: ('A' for Active; 'I' for Inactive)
REMARK    1  A    between atoms: C_1  and  C_2
REMARK    2  A    between atoms: C_2  and  N_3
REMARK    3  A    between atoms: N_3  and  C_27
REMARK    4  A    between atoms: C_4  and  C_6
REMARK    5  A    between atoms: C_6  and  O_7
REMARK    6  A    between atoms: O_7  and  C_8
REMARK    7  A    between atoms: C_8  and  C_10
REMARK    8  A    between atoms: C_13  and  N_14
REMARK                            x       y       z     vdW  Elec       q    Type
REMARK                         _______ _______ _______ _____ _____    ______ ____
ROOT
ATOM      1  C   UNL     1       1.276   9.013  18.922  0.00  0.00    +0.000 A 
ATOM      2  C   UNL     1       1.132   8.930  20.305  0.00  0.00    +0.000 A 
ATOM      3  C   UNL     1       0.255   9.798  20.972  0.00  0.00    +0.000 A 
ATOM      4  C   UNL     1      -0.503  10.766  20.288  0.00  0.00    +0.000 A 
ATOM      5  C   UNL     1      -0.338  10.831  18.898  0.00  0.00    +0.000 A 
ATOM      6  C   UNL     1       0.534   9.962  18.220  0.00  0.00    +0.000 A 
ENDROOT
BRANCH   4   7
ATOM      7  N   UNL     1      -1.419  11.620  20.988  0.00  0.00    +0.000 N 
ATOM      8  C   UNL     1      -2.485  12.275  20.403  0.00  0.00    +0.000 C 
ATOM      9  O   UNL     1      -2.920  12.283  19.264  0.00  0.00    +0.000 OA
ATOM     10  C   UNL     1      -3.111  13.092  21.429  0.00  0.00    +0.000 A 
ATOM     11  C   UNL     1      -4.188  13.953  21.332  0.00  0.00    +0.000 A 
ATOM     12  C   UNL     1      -4.527  14.685  22.469  0.00  0.00    +0.000 A 
ATOM     13  C   UNL     1      -3.791  14.537  23.661  0.00  0.00    +0.000 A 
ATOM     14  C   UNL     1      -2.718  13.639  23.738  0.00  0.00    +0.000 A 
ATOM     15  C   UNL     1      -2.403  12.922  22.597  0.00  0.00    +0.000 A 
ATOM     16  C   UNL     1      -1.346  11.947  22.332  0.00  0.00    +0.000 C 
ATOM     17  O   UNL     1      -0.600  11.577  23.222  0.00  0.00    +0.000 OA
ENDBRANCH   4   7
BRANCH   1  18
ATOM     18  C   UNL     1       2.207   8.137  18.170  0.00  0.00    +0.000 C 
ATOM     19  O   UNL     1       2.993   8.539  17.329  0.00  0.00    +0.000 OA
BRANCH  18  20
ATOM     20  O   UNL     1       2.108   6.874  18.637  0.00  0.00    +0.000 OA
BRANCH  20  21
ATOM     21  C   UNL     1       3.156   6.433  19.512  0.00  0.00    +0.000 C 
BRANCH  21  23
ATOM     22  N   UNL     1       3.785   4.330  18.231  0.00  0.00    +0.000 N 
ATOM     23  C   UNL     1       3.259   4.899  19.410  0.00  0.00    +0.000 C 
ATOM     24  O   UNL     1       2.882   4.219  20.366  0.00  0.00    +0.000 OA
BRANCH  22  25
ATOM     25  C   UNL     1       4.348   5.170  17.137  0.00  0.00    +0.000 C 
ATOM     26  C   UNL     1       4.720   4.459  15.819  0.00  0.00    +0.000 C 
ATOM     27  C   UNL     1       6.153   3.960  15.912  0.00  0.00    +0.000 C 
ATOM     28  S   UNL     1       7.006   5.148  16.928  0.00  0.00    +0.000 S 
ATOM     29  O   UNL     1       7.707   6.066  16.056  0.00  0.00    +0.000 OA
ATOM     30  O   UNL     1       7.670   4.442  18.002  0.00  0.00    +0.000 OA
ATOM     31  C   UNL     1       5.571   5.981  17.578  0.00  0.00    +0.000 C 
ENDBRANCH  22  25
BRANCH  22  33
ATOM     32  C   UNL     1       2.723   1.962  17.887  0.00  0.00    +0.000 C 
ATOM     33  C   UNL     1       3.929   2.864  18.106  0.00  0.00    +0.000 C 
ENDBRANCH  22  33
ENDBRANCH  21  23
ENDBRANCH  20  21
ENDBRANCH  18  20
ENDBRANCH   1  18
TORSDOF 7
ENDMDL
MODEL 9
REMARK VINA RESULT:      -7.7      7.471      9.159
REMARK  Name = 
REMARK  8 active torsions:
REMARK  status: ('A' for Active; 'I' for Inactive)
REMARK    1  A    between atoms: C_1  and  C_2
REMARK    2  A    between atoms: C_2  and  N_3
REMARK    3  A    between atoms: N_3  and  C_27
REMARK    4  A    between atoms: C_4  and  C_6
REMARK    5  A    between atoms: C_6  and  O_7
REMARK    6  A    between atoms: O_7  and  C_8
REMARK    7  A    between atoms: C_8  and  C_10
REMARK    8  A    between atoms: C_13  and  N_14
REMARK                            x       y       z     vdW  Elec       q    Type
REMARK                         _______ _______ _______ _____ _____    ______ ____
ROOT
ATOM      1  C   UNL     1       0.960   9.812  19.528  0.00  0.00    +0.000 A 
ATOM      2  C   UNL     1       0.408  10.981  19.010  0.00  0.00    +0.000 A 
ATOM      3  C   UNL     1      -0.199  11.911  19.867  0.00  0.00    +0.000 A 
ATOM      4  C   UNL     1      -0.271  11.709  21.259  0.00  0.00    +0.000 A 
ATOM      5  C   UNL     1       0.290  10.525  21.754  0.00  0.00    +0.000 A 
ATOM      6  C   UNL     1       0.905   9.590  20.904  0.00  0.00    +0.000 A 
ENDROOT
BRANCH   4   7
ATOM      7  N   UNL     1      -0.867  12.690  22.119  0.00  0.00    +0.000 N 
ATOM      8  C   UNL     1      -0.233  13.836  22.559  0.00  0.00    +0.000 C 
ATOM      9  O   UNL     1       0.871  14.301  22.337  0.00  0.00    +0.000 OA
ATOM     10  C   UNL     1      -1.143  14.516  23.466  0.00  0.00    +0.000 A 
ATOM     11  C   UNL     1      -0.958  15.681  24.186  0.00  0.00    +0.000 A 
ATOM     12  C   UNL     1      -1.979  16.064  25.057  0.00  0.00    +0.000 A 
ATOM     13  C   UNL     1      -3.145  15.283  25.181  0.00  0.00    +0.000 A 
ATOM     14  C   UNL     1      -3.316  14.118  24.419  0.00  0.00    +0.000 A 
ATOM     15  C   UNL     1      -2.290  13.761  23.561  0.00  0.00    +0.000 A 
ATOM     16  C   UNL     1      -2.136  12.614  22.666  0.00  0.00    +0.000 C 
ATOM     17  O   UNL     1      -3.039  11.809  22.524  0.00  0.00    +0.000 OA
ENDBRANCH   4   7
BRANCH   1  18
ATOM     18  C   UNL     1       1.591   8.785  18.665  0.00  0.00    +0.000 C 
ATOM     19  O   UNL     1       2.090   9.019  17.577  0.00  0.00    +0.000 OA
BRANCH  18  20
ATOM     20  O   UNL     1       1.607   7.603  19.317  0.00  0.00    +0.000 OA
BRANCH  20  21
ATOM     21  C   UNL     1       2.864   6.913  19.358  0.00  0.00    +0.000 C 
BRANCH  21  23
ATOM     22  N   UNL     1       3.645   4.885  18.040  0.00  0.00    +0.000 N 
ATOM     23  C   UNL     1       2.647   5.478  18.841  0.00  0.00    +0.000 C 
ATOM     24  O   UNL     1       1.608   4.892  19.150  0.00  0.00    +0.000 OA
BRANCH  22  25
ATOM     25  C   UNL     1       4.947   5.562  17.778  0.00  0.00    +0.000 C 
ATOM     26  C   UNL     1       4.985   6.611  16.647  0.00  0.00    +0.000 C 
ATOM     27  C   UNL     1       5.302   5.914  15.335  0.00  0.00    +0.000 C 
ATOM     28  S   UNL     1       6.375   4.558  15.763  0.00  0.00    +0.000 S 
ATOM     29  O   UNL     1       7.741   4.970  15.520  0.00  0.00    +0.000 OA
ATOM     30  O   UNL     1       5.823   3.342  15.206  0.00  0.00    +0.000 OA
ATOM     31  C   UNL     1       6.090   4.574  17.522  0.00  0.00    +0.000 C 
ENDBRANCH  22  25
BRANCH  22  33
ATOM     32  C   UNL     1       3.593   2.307  18.489  0.00  0.00    +0.000 C 
ATOM     33  C   UNL     1       3.488   3.499  17.550  0.00  0.00    +0.000 C 
ENDBRANCH  22  33
ENDBRANCH  21  23
ENDBRANCH  20  21
ENDBRANCH  18  20
ENDBRANCH   1  18
TORSDOF 7
ENDMDL
