MODEL 1
REMARK VINA RESULT:      -6.5      0.000      0.000
REMARK  Name = 
REMARK  8 active torsions:
REMARK  status: ('A' for Active; 'I' for Inactive)
REMARK    1  A    between atoms: C_1  and  C_2
REMARK    2  A    between atoms: C_2  and  O_3
REMARK    3  A    between atoms: O_3  and  C_4
REMARK    4  A    between atoms: C_4  and  C_6
REMARK    5  A    between atoms: C_9  and  N_10
REMARK    6  A    between atoms: N_10  and  S_11
REMARK    7  A    between atoms: S_11  and  C_14
REMARK    8  A    between atoms: C_14  and  C_15
REMARK                            x       y       z     vdW  Elec       q    Type
REMARK                         _______ _______ _______ _____ _____    ______ ____
ROOT
ATOM      1  C   UNL     1       5.912   5.064  18.280  0.00  0.00    +0.000 A 
ATOM      2  C   UNL     1       5.042   5.332  19.345  0.00  0.00    +0.000 A 
ATOM      3  C   UNL     1       3.694   4.972  19.263  0.00  0.00    +0.000 A 
ATOM      4  C   UNL     1       3.214   4.338  18.118  0.00  0.00    +0.000 A 
ATOM      5  C   UNL     1       4.061   4.101  17.036  0.00  0.00    +0.000 A 
ATOM      6  C   UNL     1       5.412   4.455  17.119  0.00  0.00    +0.000 A 
ENDROOT
BRANCH   1   7
ATOM      7  C   UNL     1       7.333   5.484  18.415  0.00  0.00    +0.000 C 
ATOM      8  O   UNL     1       8.017   5.238  19.394  0.00  0.00    +0.000 OA
BRANCH   7   9
ATOM      9  O   UNL     1       7.700   6.237  17.349  0.00  0.00    +0.000 OA
BRANCH   9  11
ATOM     10  C   UNL     1       8.175   8.493  17.972  0.00  0.00    +0.000 C 
ATOM     11  C   UNL     1       7.163   7.566  17.323  0.00  0.00    +0.000 C 
ENDBRANCH   9  11
ENDBRANCH   7   9
ENDBRANCH   1   7
BRANCH   4  12
ATOM     12  N   UNL     1       1.856   3.913  18.044  0.00  0.00    +0.000 N 
ATOM     13  H   UNL     1       1.508   3.790  17.089  0.00  0.00    +0.000 HD
BRANCH  12  14
ATOM     14  S   UNL     1       1.395   2.563  18.952  0.00  0.00    +0.000 S 
ATOM     15  O   UNL     1       0.188   2.079  18.307  0.00  0.00    +0.000 OA
ATOM     16  O   UNL     1       2.530   1.698  19.173  0.00  0.00    +0.000 OA
BRANCH  14  17
ATOM     17  C   UNL     1       0.923   3.337  20.492  0.00  0.00    +0.000 C 
ATOM     18  C   UNL     1       1.531   2.617  21.679  0.00  0.00    +0.000 C 
ENDBRANCH  14  17
ENDBRANCH  12  14
ENDBRANCH   4  12
TORSDOF 6
ENDMDL
MODEL 2
REMARK VINA RESULT:      -6.4      2.437      6.236
REMARK  Name = 
REMARK  8 active torsions:
REMARK  status: ('A' for Active; 'I' for Inactive)
REMARK    1  A    between atoms: C_1  and  C_2
REMARK    2  A    between atoms: C_2  and  O_3
REMARK    3  A    between atoms: O_3  and  C_4
REMARK    4  A    between atoms: C_4  and  C_6
REMARK    5  A    between atoms: C_9  and  N_10
REMARK    6  A    between atoms: N_10  and  S_11
REMARK    7  A    between atoms: S_11  and  C_14
REMARK    8  A    between atoms: C_14  and  C_15
REMARK                            x       y       z     vdW  Elec       q    Type
REMARK                         _______ _______ _______ _____ _____    ______ ____
ROOT
ATOM      1  C   UNL     1       2.135   3.912  18.288  0.00  0.00    +0.000 A 
ATOM      2  C   UNL     1       2.383   5.258  18.590  0.00  0.00    +0.000 A 
ATOM      3  C   UNL     1       3.411   5.949  17.942  0.00  0.00    +0.000 A 
ATOM      4  C   UNL     1       4.188   5.298  16.985  0.00  0.00    +0.000 A 
ATOM      5  C   UNL     1       3.976   3.949  16.703  0.00  0.00    +0.000 A 
ATOM      6  C   UNL     1       2.945   3.257  17.348  0.00  0.00    +0.000 A 
ENDROOT
BRANCH   1   7
ATOM      7  C   UNL     1       1.040   3.221  19.021  0.00  0.00    +0.000 C 
ATOM      8  O   UNL     1       0.316   2.381  18.512  0.00  0.00    +0.000 OA
BRANCH   7   9
ATOM      9  O   UNL     1       0.926   3.726  20.274  0.00  0.00    +0.000 OA
BRANCH   9  11
ATOM     10  C   UNL     1       2.656   2.712  21.570  0.00  0.00    +0.000 C 
ATOM     11  C   UNL     1       1.158   2.790  21.335  0.00  0.00    +0.000 C 
ENDBRANCH   9  11
ENDBRANCH   7   9
ENDBRANCH   1   7
BRANCH   4  12
ATOM     12  N   UNL     1       5.200   6.005  16.274  0.00  0.00    +0.000 N 
ATOM     13  H   UNL     1       5.131   7.024  16.351  0.00  0.00    +0.000 HD
BRANCH  12  14
ATOM     14  S   UNL     1       6.812   5.565  16.537  0.00  0.00    +0.000 S 
ATOM     15  O   UNL     1       6.748   4.493  17.512  0.00  0.00    +0.000 OA
ATOM     16  O   UNL     1       7.497   5.399  15.277  0.00  0.00    +0.000 OA
BRANCH  14  17
ATOM     17  C   UNL     1       7.429   7.025  17.365  0.00  0.00    +0.000 C 
ATOM     18  C   UNL     1       7.971   6.691  18.740  0.00  0.00    +0.000 C 
ENDBRANCH  14  17
ENDBRANCH  12  14
ENDBRANCH   4  12
TORSDOF 6
ENDMDL
MODEL 3
REMARK VINA RESULT:      -6.3      3.047      3.957
REMARK  Name = 
REMARK  8 active torsions:
REMARK  status: ('A' for Active; 'I' for Inactive)
REMARK    1  A    between atoms: C_1  and  C_2
REMARK    2  A    between atoms: C_2  and  O_3
REMARK    3  A    between atoms: O_3  and  C_4
REMARK    4  A    between atoms: C_4  and  C_6
REMARK    5  A    between atoms: C_9  and  N_10
REMARK    6  A    between atoms: N_10  and  S_11
REMARK    7  A    between atoms: S_11  and  C_14
REMARK    8  A    between atoms: C_14  and  C_15
REMARK                            x       y       z     vdW  Elec       q    Type
REMARK                         _______ _______ _______ _____ _____    ______ ____
ROOT
ATOM      1  C   UNL     1       5.762   5.091  16.013  0.00  0.00    +0.000 A 
ATOM      2  C   UNL     1       5.945   4.100  16.986  0.00  0.00    +0.000 A 
ATOM      3  C   UNL     1       5.377   4.244  18.255  0.00  0.00    +0.000 A 
ATOM      4  C   UNL     1       4.621   5.377  18.552  0.00  0.00    +0.000 A 
ATOM      5  C   UNL     1       4.464   6.388  17.605  0.00  0.00    +0.000 A 
ATOM      6  C   UNL     1       5.027   6.243  16.332  0.00  0.00    +0.000 A 
ENDROOT
BRANCH   1   7
ATOM      7  C   UNL     1       6.403   4.893  14.684  0.00  0.00    +0.000 C 
ATOM      8  O   UNL     1       7.511   5.319  14.402  0.00  0.00    +0.000 OA
BRANCH   7   9
ATOM      9  O   UNL     1       5.547   4.264  13.842  0.00  0.00    +0.000 OA
BRANCH   9  11
ATOM     10  C   UNL     1       5.069   3.103  11.811  0.00  0.00    +0.000 C 
ATOM     11  C   UNL     1       6.164   3.548  12.763  0.00  0.00    +0.000 C 
ENDBRANCH   9  11
ENDBRANCH   7   9
ENDBRANCH   1   7
BRANCH   4  12
ATOM     12  N   UNL     1       3.989   5.511  19.822  0.00  0.00    +0.000 N 
ATOM     13  H   UNL     1       4.233   6.370  20.322  0.00  0.00    +0.000 HD
BRANCH  12  14
ATOM     14  S   UNL     1       2.311   5.314  19.899  0.00  0.00    +0.000 S 
ATOM     15  O   UNL     1       1.808   6.599  20.348  0.00  0.00    +0.000 OA
ATOM     16  O   UNL     1       1.824   4.695  18.689  0.00  0.00    +0.000 OA
BRANCH  14  17
ATOM     17  C   UNL     1       2.169   4.162  21.259  0.00  0.00    +0.000 C 
ATOM     18  C   UNL     1       1.317   2.967  20.882  0.00  0.00    +0.000 C 
ENDBRANCH  14  17
ENDBRANCH  12  14
ENDBRANCH   4  12
TORSDOF 6
ENDMDL
MODEL 4
REMARK VINA RESULT:      -6.3      2.639      6.240
REMARK  Name = 
REMARK  8 active torsions:
REMARK  status: ('A' for Active; 'I' for Inactive)
REMARK    1  A    between atoms: C_1  and  C_2
REMARK    2  A    between atoms: C_2  and  O_3
REMARK    3  A    between atoms: O_3  and  C_4
REMARK    4  A    between atoms: C_4  and  C_6
REMARK    5  A    between atoms: C_9  and  N_10
REMARK    6  A    between atoms: N_10  and  S_11
REMARK    7  A    between atoms: S_11  and  C_14
REMARK    8  A    between atoms: C_14  and  C_15
REMARK                            x       y       z     vdW  Elec       q    Type
REMARK                         _______ _______ _______ _____ _____    ______ ____
ROOT
ATOM      1  C   UNL     1       2.767   3.903  18.015  0.00  0.00    +0.000 A 
ATOM      2  C   UNL     1       3.735   3.478  17.096  0.00  0.00    +0.000 A 
ATOM      3  C   UNL     1       4.626   4.397  16.533  0.00  0.00    +0.000 A 
ATOM      4  C   UNL     1       4.554   5.742  16.892  0.00  0.00    +0.000 A 
ATOM      5  C   UNL     1       3.570   6.184  17.776  0.00  0.00    +0.000 A 
ATOM      6  C   UNL     1       2.681   5.265  18.345  0.00  0.00    +0.000 A 
ENDROOT
BRANCH   1   7
ATOM      7  C   UNL     1       1.834   2.885  18.569  0.00  0.00    +0.000 C 
ATOM      8  O   UNL     1       0.644   2.847  18.302  0.00  0.00    +0.000 OA
BRANCH   7   9
ATOM      9  O   UNL     1       2.482   2.093  19.458  0.00  0.00    +0.000 OA
BRANCH   9  11
ATOM     10  C   UNL     1       1.651   2.704  21.612  0.00  0.00    +0.000 C 
ATOM     11  C   UNL     1       2.855   2.731  20.688  0.00  0.00    +0.000 C 
ENDBRANCH   9  11
ENDBRANCH   7   9
ENDBRANCH   1   7
BRANCH   4  12
ATOM     12  N   UNL     1       5.491   6.679  16.371  0.00  0.00    +0.000 N 
ATOM     13  H   UNL     1       5.264   7.657  16.577  0.00  0.00    +0.000 HD
BRANCH  12  14
ATOM     14  S   UNL     1       7.131   6.437  16.710  0.00  0.00    +0.000 S 
ATOM     15  O   UNL     1       7.636   5.687  15.576  0.00  0.00    +0.000 OA
ATOM     16  O   UNL     1       7.743   7.676  17.129  0.00  0.00    +0.000 OA
BRANCH  14  17
ATOM     17  C   UNL     1       7.025   5.322  18.103  0.00  0.00    +0.000 C 
ATOM     18  C   UNL     1       7.814   5.843  19.288  0.00  0.00    +0.000 C 
ENDBRANCH  14  17
ENDBRANCH  12  14
ENDBRANCH   4  12
TORSDOF 6
ENDMDL
MODEL 5
REMARK VINA RESULT:      -6.3      2.025      2.989
REMARK  Name = 
REMARK  8 active torsions:
REMARK  status: ('A' for Active; 'I' for Inactive)
REMARK    1  A    between atoms: C_1  and  C_2
REMARK    2  A    between atoms: C_2  and  O_3
REMARK    3  A    between atoms: O_3  and  C_4
REMARK    4  A    between atoms: C_4  and  C_6
REMARK    5  A    between atoms: C_9  and  N_10
REMARK    6  A    between atoms: N_10  and  S_11
REMARK    7  A    between atoms: S_11  and  C_14
REMARK    8  A    between atoms: C_14  and  C_15
REMARK                            x       y       z     vdW  Elec       q    Type
REMARK                         _______ _______ _______ _____ _____    ______ ____
ROOT
ATOM      1  C   UNL     1       5.793   6.009  17.512  0.00  0.00    +0.000 A 
ATOM      2  C   UNL     1       4.439   6.290  17.285  0.00  0.00    +0.000 A 
ATOM      3  C   UNL     1       3.480   5.968  18.250  0.00  0.00    +0.000 A 
ATOM      4  C   UNL     1       3.873   5.370  19.446  0.00  0.00    +0.000 A 
ATOM      5  C   UNL     1       5.212   5.050  19.668  0.00  0.00    +0.000 A 
ATOM      6  C   UNL     1       6.174   5.376  18.706  0.00  0.00    +0.000 A 
ENDROOT
BRANCH   1   7
ATOM      7  C   UNL     1       6.768   6.358  16.444  0.00  0.00    +0.000 C 
ATOM      8  O   UNL     1       7.753   7.054  16.634  0.00  0.00    +0.000 OA
BRANCH   7   9
ATOM      9  O   UNL     1       6.349   5.869  15.252  0.00  0.00    +0.000 OA
BRANCH   9  11
ATOM     10  C   UNL     1       5.830   3.873  14.049  0.00  0.00    +0.000 C 
ATOM     11  C   UNL     1       6.867   4.578  14.903  0.00  0.00    +0.000 C 
ENDBRANCH   9  11
ENDBRANCH   7   9
ENDBRANCH   1   7
BRANCH   4  12
ATOM     12  N   UNL     1       2.914   5.089  20.462  0.00  0.00    +0.000 N 
ATOM     13  H   UNL     1       2.061   5.652  20.399  0.00  0.00    +0.000 HD
BRANCH  12  14
ATOM     14  S   UNL     1       2.465   3.477  20.708  0.00  0.00    +0.000 S 
ATOM     15  O   UNL     1       3.395   2.707  19.903  0.00  0.00    +0.000 OA
ATOM     16  O   UNL     1       2.292   3.216  22.118  0.00  0.00    +0.000 OA
BRANCH  14  17
ATOM     17  C   UNL     1       0.874   3.443  19.894  0.00  0.00    +0.000 C 
ATOM     18  C   UNL     1       0.854   2.431  18.766  0.00  0.00    +0.000 C 
ENDBRANCH  14  17
ENDBRANCH  12  14
ENDBRANCH   4  12
TORSDOF 6
ENDMDL
MODEL 6
REMARK VINA RESULT:      -6.2      2.842      6.354
REMARK  Name = 
REMARK  8 active torsions:
REMARK  status: ('A' for Active; 'I' for Inactive)
REMARK    1  A    between atoms: C_1  and  C_2
REMARK    2  A    between atoms: C_2  and  O_3
REMARK    3  A    between atoms: O_3  and  C_4
REMARK    4  A    between atoms: C_4  and  C_6
REMARK    5  A    between atoms: C_9  and  N_10
REMARK    6  A    between atoms: N_10  and  S_11
REMARK    7  A    between atoms: S_11  and  C_14
REMARK    8  A    between atoms: C_14  and  C_15
REMARK                            x       y       z     vdW  Elec       q    Type
REMARK                         _______ _______ _______ _____ _____    ______ ____
ROOT
ATOM      1  C   UNL     1       2.087   3.977  18.382  0.00  0.00    +0.000 A 
ATOM      2  C   UNL     1       2.273   5.359  18.520  0.00  0.00    +0.000 A 
ATOM      3  C   UNL     1       3.321   6.000  17.854  0.00  0.00    +0.000 A 
ATOM      4  C   UNL     1       4.183   5.263  17.045  0.00  0.00    +0.000 A 
ATOM      5  C   UNL     1       4.033   3.881  16.930  0.00  0.00    +0.000 A 
ATOM      6  C   UNL     1       2.981   3.238  17.591  0.00  0.00    +0.000 A 
ENDROOT
BRANCH   1   7
ATOM      7  C   UNL     1       0.965   3.343  19.127  0.00  0.00    +0.000 C 
ATOM      8  O   UNL     1       0.294   2.428  18.680  0.00  0.00    +0.000 OA
BRANCH   7   9
ATOM      9  O   UNL     1       0.762   3.988  20.301  0.00  0.00    +0.000 OA
BRANCH   9  11
ATOM     10  C   UNL     1       1.761   2.434  21.815  0.00  0.00    +0.000 C 
ATOM     11  C   UNL     1       1.814   3.848  21.267  0.00  0.00    +0.000 C 
ENDBRANCH   9  11
ENDBRANCH   7   9
ENDBRANCH   1   7
BRANCH   4  12
ATOM     12  N   UNL     1       5.220   5.911  16.315  0.00  0.00    +0.000 N 
ATOM     13  H   UNL     1       5.110   6.927  16.245  0.00  0.00    +0.000 HD
BRANCH  12  14
ATOM     14  S   UNL     1       6.822   5.583  16.746  0.00  0.00    +0.000 S 
ATOM     15  O   UNL     1       7.535   6.821  16.494  0.00  0.00    +0.000 OA
ATOM     16  O   UNL     1       6.870   4.935  18.036  0.00  0.00    +0.000 OA
BRANCH  14  17
ATOM     17  C   UNL     1       7.281   4.415  15.474  0.00  0.00    +0.000 C 
ATOM     18  C   UNL     1       6.431   4.590  14.232  0.00  0.00    +0.000 C 
ENDBRANCH  14  17
ENDBRANCH  12  14
ENDBRANCH   4  12
TORSDOF 6
ENDMDL
MODEL 7
REMARK VINA RESULT:      -6.2      1.448      1.474
REMARK  Name = 
REMARK  8 active torsions:
REMARK  status: ('A' for Active; 'I' for Inactive)
REMARK    1  A    between atoms: C_1  and  C_2
REMARK    2  A    between atoms: C_2  and  O_3
REMARK    3  A    between atoms: O_3  and  C_4
REMARK    4  A    between atoms: C_4  and  C_6
REMARK    5  A    between atoms: C_9  and  N_10
REMARK    6  A    between atoms: N_10  and  S_11
REMARK    7  A    between atoms: S_11  and  C_14
REMARK    8  A    between atoms: C_14  and  C_15
REMARK                            x       y       z     vdW  Elec       q    Type
REMARK                         _______ _______ _______ _____ _____    ______ ____
ROOT
ATOM      1  C   UNL     1       5.362   5.664  16.877  0.00  0.00    +0.000 A 
ATOM      2  C   UNL     1       4.443   6.446  17.588  0.00  0.00    +0.000 A 
ATOM      3  C   UNL     1       3.196   5.924  17.942  0.00  0.00    +0.000 A 
ATOM      4  C   UNL     1       2.867   4.616  17.591  0.00  0.00    +0.000 A 
ATOM      5  C   UNL     1       3.757   3.840  16.851  0.00  0.00    +0.000 A 
ATOM      6  C   UNL     1       5.009   4.359  16.500  0.00  0.00    +0.000 A 
ENDROOT
BRANCH   1   7
ATOM      7  C   UNL     1       6.668   6.276  16.512  0.00  0.00    +0.000 C 
ATOM      8  O   UNL     1       7.520   5.701  15.854  0.00  0.00    +0.000 OA
BRANCH   7   9
ATOM      9  O   UNL     1       6.787   7.498  17.086  0.00  0.00    +0.000 OA
BRANCH   9  11
ATOM     10  C   UNL     1       8.250   9.134  18.028  0.00  0.00    +0.000 C 
ATOM     11  C   UNL     1       7.912   7.656  17.963  0.00  0.00    +0.000 C 
ENDBRANCH   9  11
ENDBRANCH   7   9
ENDBRANCH   1   7
BRANCH   4  12
ATOM     12  N   UNL     1       1.623   4.051  17.995  0.00  0.00    +0.000 N 
ATOM     13  H   UNL     1       0.946   3.942  17.235  0.00  0.00    +0.000 HD
BRANCH  12  14
ATOM     14  S   UNL     1       1.654   2.611  18.882  0.00  0.00    +0.000 S 
ATOM     15  O   UNL     1       0.259   2.300  19.132  0.00  0.00    +0.000 OA
ATOM     16  O   UNL     1       2.539   1.657  18.256  0.00  0.00    +0.000 OA
BRANCH  14  17
ATOM     17  C   UNL     1       2.375   3.176  20.417  0.00  0.00    +0.000 C 
ATOM     18  C   UNL     1       1.526   2.774  21.606  0.00  0.00    +0.000 C 
ENDBRANCH  14  17
ENDBRANCH  12  14
ENDBRANCH   4  12
TORSDOF 6
ENDMDL
MODEL 8
REMARK VINA RESULT:      -6.2      2.131      3.073
REMARK  Name = 
REMARK  8 active torsions:
REMARK  status: ('A' for Active; 'I' for Inactive)
REMARK    1  A    between atoms: C_1  and  C_2
REMARK    2  A    between atoms: C_2  and  O_3
REMARK    3  A    between atoms: O_3  and  C_4
REMARK    4  A    between atoms: C_4  and  C_6
REMARK    5  A    between atoms: C_9  and  N_10
REMARK    6  A    between atoms: N_10  and  S_11
REMARK    7  A    between atoms: S_11  and  C_14
REMARK    8  A    between atoms: C_14  and  C_15
REMARK                            x       y       z     vdW  Elec       q    Type
REMARK                         _______ _______ _______ _____ _____    ______ ____
ROOT
ATOM      1  C   UNL     1       5.486   5.788  17.334  0.00  0.00    +0.000 A 
ATOM      2  C   UNL     1       5.955   5.049  18.428  0.00  0.00    +0.000 A 
ATOM      3  C   UNL     1       5.130   4.825  19.534  0.00  0.00    +0.000 A 
ATOM      4  C   UNL     1       3.832   5.335  19.546  0.00  0.00    +0.000 A 
ATOM      5  C   UNL     1       3.368   6.105  18.480  0.00  0.00    +0.000 A 
ATOM      6  C   UNL     1       4.190   6.325  17.370  0.00  0.00    +0.000 A 
ENDROOT
BRANCH   1   7
ATOM      7  C   UNL     1       6.414   6.010  16.191  0.00  0.00    +0.000 C 
ATOM      8  O   UNL     1       7.545   6.448  16.319  0.00  0.00    +0.000 OA
BRANCH   7   9
ATOM      9  O   UNL     1       5.784   5.742  15.021  0.00  0.00    +0.000 OA
BRANCH   9  11
ATOM     10  C   UNL     1       6.398   3.964  13.550  0.00  0.00    +0.000 C 
ATOM     11  C   UNL     1       5.558   4.351  14.752  0.00  0.00    +0.000 C 
ENDBRANCH   9  11
ENDBRANCH   7   9
ENDBRANCH   1   7
BRANCH   4  12
ATOM     12  N   UNL     1       2.961   5.066  20.640  0.00  0.00    +0.000 N 
ATOM     13  H   UNL     1       2.145   5.683  20.687  0.00  0.00    +0.000 HD
BRANCH  12  14
ATOM     14  S   UNL     1       2.431   3.475  20.862  0.00  0.00    +0.000 S 
ATOM     15  O   UNL     1       3.368   2.664  20.107  0.00  0.00    +0.000 OA
ATOM     16  O   UNL     1       2.174   3.224  22.260  0.00  0.00    +0.000 OA
BRANCH  14  17
ATOM     17  C   UNL     1       0.885   3.506  19.966  0.00  0.00    +0.000 C 
ATOM     18  C   UNL     1       1.030   2.880  18.594  0.00  0.00    +0.000 C 
ENDBRANCH  14  17
ENDBRANCH  12  14
ENDBRANCH   4  12
TORSDOF 6
ENDMDL
MODEL 9
REMARK VINA RESULT:      -6.2      2.352      3.346
REMARK  Name = 
REMARK  8 active torsions:
REMARK  status: ('A' for Active; 'I' for Inactive)
REMARK    1  A    between atoms: C_1  and  C_2
REMARK    2  A    between atoms: C_2  and  O_3
REMARK    3  A    between atoms: O_3  and  C_4
REMARK    4  A    between atoms: C_4  and  C_6
REMARK    5  A    between atoms: C_9  and  N_10
REMARK    6  A    between atoms: N_10  and  S_11
REMARK    7  A    between atoms: S_11  and  C_14
REMARK    8  A    between atoms: C_14  and  C_15
REMARK                            x       y       z     vdW  Elec       q    Type
REMARK                         _______ _______ _______ _____ _____    ______ ____
ROOT
ATOM      1  C   UNL     1       5.555   5.479  17.209  0.00  0.00    +0.000 A 
ATOM      2  C   UNL     1       4.184   5.743  17.088  0.00  0.00    +0.000 A 
ATOM      3  C   UNL     1       3.341   5.623  18.196  0.00  0.00    +0.000 A 
ATOM      4  C   UNL     1       3.868   5.243  19.430  0.00  0.00    +0.000 A 
ATOM      5  C   UNL     1       5.223   4.940  19.554  0.00  0.00    +0.000 A 
ATOM      6  C   UNL     1       6.069   5.066  18.447  0.00  0.00    +0.000 A 
ENDROOT
BRANCH   1   7
ATOM      7  C   UNL     1       6.402   5.608  15.992  0.00  0.00    +0.000 C 
ATOM      8  O   UNL     1       7.491   6.159  15.986  0.00  0.00    +0.000 OA
BRANCH   7   9
ATOM      9  O   UNL     1       5.749   5.110  14.914  0.00  0.00    +0.000 OA
BRANCH   9  11
ATOM     10  C   UNL     1       5.707   3.713  12.977  0.00  0.00    +0.000 C 
ATOM     11  C   UNL     1       6.311   3.915  14.355  0.00  0.00    +0.000 C 
ENDBRANCH   9  11
ENDBRANCH   7   9
ENDBRANCH   1   7
BRANCH   4  12
ATOM     12  N   UNL     1       3.032   5.172  20.581  0.00  0.00    +0.000 N 
ATOM     13  H   UNL     1       2.479   6.018  20.749  0.00  0.00    +0.000 HD
BRANCH  12  14
ATOM     14  S   UNL     1       2.009   3.834  20.740  0.00  0.00    +0.000 S 
ATOM     15  O   UNL     1       2.183   3.398  22.113  0.00  0.00    +0.000 OA
ATOM     16  O   UNL     1       0.703   4.136  20.204  0.00  0.00    +0.000 OA
BRANCH  14  17
ATOM     17  C   UNL     1       2.832   2.653  19.680  0.00  0.00    +0.000 C 
ATOM     18  C   UNL     1       1.923   2.191  18.559  0.00  0.00    +0.000 C 
ENDBRANCH  14  17
ENDBRANCH  12  14
ENDBRANCH   4  12
TORSDOF 6
ENDMDL
