MODEL 1
REMARK VINA RESULT:      -7.0      0.000      0.000
REMARK  Name = 
REMARK  19 active torsions:
REMARK  status: ('A' for Active; 'I' for Inactive)
REMARK    1  A    between atoms: C_1  and  C_2
REMARK    2  A    between atoms: N_4  and  CA_5
REMARK    3  A    between atoms: CA_5  and  CB_6
REMARK    4  A    between atoms: CA_5  and  C_7
REMARK    5  A    between atoms: N_9  and  CA_10
REMARK    6  A    between atoms: CA_10  and  CB_11
REMARK    7  A    between atoms: CA_10  and  C_15
REMARK    8  A    between atoms: CB_11  and  CG_12
REMARK    9  A    between atoms: CG_12  and  CD1_13
REMARK   10  A    between atoms: CG_12  and  CD2_14
REMARK   11  A    between atoms: N_17  and  C_18
REMARK   12  A    between atoms: C_18  and  C_19
REMARK   13  A    between atoms: C_18  and  C_21
REMARK   14  A    between atoms: C_19  and  O_20
REMARK   15  A    between atoms: N_23  and  C_24
REMARK   16  A    between atoms: C_24  and  C_25
REMARK   17  A    between atoms: C_24  and  C_29
REMARK   18  A    between atoms: C_25  and  C_26
REMARK   19  A    between atoms: C_26  and  O_28
REMARK                            x       y       z     vdW  Elec       q    Type
REMARK                         _______ _______ _______ _____ _____    ______ ____
ROOT
ATOM      1  C   LEU A   2       1.612   9.255  18.396  0.00  0.00    +0.000 C 
ATOM      2  O   LEU A   2       1.960   9.719  17.303  0.00  0.00    +0.000 OA
ATOM      3  N   UNK A   3       2.105   8.056  18.838  0.00  0.00    +0.000 N 
ATOM      4  H   UNK A   3       1.952   7.767  19.802  0.00  0.00    +0.000 HD
ENDROOT
BRANCH   1   5
ATOM      5  CA  LEU A   2       0.631  10.009  19.335  0.00  0.00    +0.000 C 
BRANCH   5   8
ATOM      6  C   ALA A   1      -1.335  11.018  18.119  0.00  0.00    +0.000 C 
ATOM      7  O   ALA A   1      -0.946  12.173  18.282  0.00  0.00    +0.000 OA
ATOM      8  N   LEU A   2      -0.683   9.935  18.673  0.00  0.00    +0.000 N 
ATOM      9  H   LEU A   2      -0.996   9.009  18.404  0.00  0.00    +0.000 HD
BRANCH   6  10
ATOM     10  CA  ALA A   1      -2.706  10.695  17.479  0.00  0.00    +0.000 C 
ATOM     11  CB  ALA A   1      -2.515  10.312  16.015  0.00  0.00    +0.000 C 
BRANCH  10  15
ATOM     12  C   UNK A   0      -5.745  12.895  18.062  0.00  0.00    +0.000 C 
ATOM     13  C   UNK A   0      -4.932  11.632  18.001  0.00  0.00    +0.000 C 
ATOM     14  O   UNK A   0      -5.390  10.541  18.317  0.00  0.00    +0.000 OA
ATOM     15  N   ALA A   1      -3.633  11.824  17.582  0.00  0.00    +0.000 N 
ATOM     16  H   ALA A   1      -3.299  12.764  17.413  0.00  0.00    +0.000 HD
ENDBRANCH  10  15
ENDBRANCH   6  10
ENDBRANCH   5   8
BRANCH   5  17
ATOM     17  CB  LEU A   2       0.575   9.392  20.753  0.00  0.00    +0.000 C 
BRANCH  17  18
ATOM     18  CG  LEU A   2      -0.342  10.087  21.783  0.00  0.00    +0.000 C 
ATOM     19  CD1 LEU A   2      -0.129   9.599  23.219  0.00  0.00    +0.000 C 
ATOM     20  CD2 LEU A   2      -0.173  11.606  21.721  0.00  0.00    +0.000 C 
ENDBRANCH  17  18
ENDBRANCH   5  17
ENDBRANCH   1   5
BRANCH   3  21
ATOM     21  C   UNK A   3       2.867   7.101  18.014  0.00  0.00    +0.000 C 
BRANCH  21  22
ATOM     22  C   UNK A   3       2.976   5.788  18.819  0.00  0.00    +0.000 C 
ATOM     23  O   UNK A   3       3.987   5.539  19.488  0.00  0.00    +0.000 OA
ATOM     24  N   UNK A   3       1.931   4.897  18.710  0.00  0.00    +0.000 N 
ATOM     25  H   UNK A   3       1.037   5.195  18.323  0.00  0.00    +0.000 HD
BRANCH  24  26
ATOM     26  C   UNK A   3       1.933   3.590  19.402  0.00  0.00    +0.000 C 
BRANCH  26  27
ATOM     27  C   UNK A   3       1.441   2.422  18.525  0.00  0.00    +0.000 C 
ATOM     28  N   UNK A   3       2.395   1.678  17.902  0.00  0.00    +0.000 N 
ATOM     29  O   UNK A   3       0.253   2.127  18.426  0.00  0.00    +0.000 OA
ATOM     30  H   UNK A   3       3.381   1.861  18.011  0.00  0.00    +0.000 HD
ATOM     31  H   UNK A   3       2.096   0.901  17.327  0.00  0.00    +0.000 HD
ENDBRANCH  26  27
BRANCH  26  32
ATOM     32  C   UNK A   3       1.138   3.590  20.713  0.00  0.00    +0.000 C 
BRANCH  32  33
ATOM     33  C   UNK A   3       1.754   2.646  21.716  0.00  0.00    +0.000 C 
ATOM     34  O   UNK A   3       1.117   2.091  22.602  0.00  0.00    +0.000 OA
BRANCH  33  35
ATOM     35  O   UNK A   3       3.092   2.515  21.594  0.00  0.00    +0.000 OA
ATOM     36  H   UNK A   3       3.612   2.908  22.321  0.00  0.00    +0.000 HD
ENDBRANCH  33  35
ENDBRANCH  32  33
ENDBRANCH  26  32
ENDBRANCH  24  26
ENDBRANCH  21  22
BRANCH  21  37
ATOM     37  C   UNK A   3       4.278   7.619  17.706  0.00  0.00    +0.000 C 
BRANCH  37  38
ATOM     38  O   UNK A   3       5.020   6.748  16.856  0.00  0.00    +0.000 OA
ATOM     39  H   UNK A   3       4.525   6.645  16.016  0.00  0.00    +0.000 HD
ENDBRANCH  37  38
ENDBRANCH  21  37
ENDBRANCH   3  21
TORSDOF 15
ENDMDL
MODEL 2
REMARK VINA RESULT:      -6.7      2.791      3.995
REMARK  Name = 
REMARK  19 active torsions:
REMARK  status: ('A' for Active; 'I' for Inactive)
REMARK    1  A    between atoms: C_1  and  C_2
REMARK    2  A    between atoms: N_4  and  CA_5
REMARK    3  A    between atoms: CA_5  and  CB_6
REMARK    4  A    between atoms: CA_5  and  C_7
REMARK    5  A    between atoms: N_9  and  CA_10
REMARK    6  A    between atoms: CA_10  and  CB_11
REMARK    7  A    between atoms: CA_10  and  C_15
REMARK    8  A    between atoms: CB_11  and  CG_12
REMARK    9  A    between atoms: CG_12  and  CD1_13
REMARK   10  A    between atoms: CG_12  and  CD2_14
REMARK   11  A    between atoms: N_17  and  C_18
REMARK   12  A    between atoms: C_18  and  C_19
REMARK   13  A    between atoms: C_18  and  C_21
REMARK   14  A    between atoms: C_19  and  O_20
REMARK   15  A    between atoms: N_23  and  C_24
REMARK   16  A    between atoms: C_24  and  C_25
REMARK   17  A    between atoms: C_24  and  C_29
REMARK   18  A    between atoms: C_25  and  C_26
REMARK   19  A    between atoms: C_26  and  O_28
REMARK                            x       y       z     vdW  Elec       q    Type
REMARK                         _______ _______ _______ _____ _____    ______ ____
ROOT
ATOM      1  C   LEU A   2       1.357   9.290  18.898  0.00  0.00    +0.000 C 
ATOM      2  O   LEU A   2       0.800   9.473  17.810  0.00  0.00    +0.000 OA
ATOM      3  N   UNK A   3       2.241   8.258  19.070  0.00  0.00    +0.000 N 
ATOM      4  H   UNK A   3       2.821   8.218  19.905  0.00  0.00    +0.000 HD
ENDROOT
BRANCH   1   5
ATOM      5  CA  LEU A   2       1.114  10.225  20.114  0.00  0.00    +0.000 C 
BRANCH   5   8
ATOM      6  C   ALA A   1       1.389  12.732  20.050  0.00  0.00    +0.000 C 
ATOM      7  O   ALA A   1       1.973  12.777  21.130  0.00  0.00    +0.000 OA
ATOM      8  N   LEU A   2       0.866  11.560  19.542  0.00  0.00    +0.000 N 
ATOM      9  H   LEU A   2       0.497  11.579  18.597  0.00  0.00    +0.000 HD
BRANCH   6  10
ATOM     10  CA  ALA A   1       0.987  14.012  19.279  0.00  0.00    +0.000 C 
ATOM     11  CB  ALA A   1      -0.348  13.793  18.575  0.00  0.00    +0.000 C 
BRANCH  10  15
ATOM     12  C   UNK A   0       3.736  15.811  17.377  0.00  0.00    +0.000 C 
ATOM     13  C   UNK A   0       2.722  15.568  18.459  0.00  0.00    +0.000 C 
ATOM     14  O   UNK A   0       2.570  16.337  19.401  0.00  0.00    +0.000 OA
ATOM     15  N   ALA A   1       2.007  14.401  18.303  0.00  0.00    +0.000 N 
ATOM     16  H   ALA A   1       2.240  13.773  17.544  0.00  0.00    +0.000 HD
ENDBRANCH  10  15
ENDBRANCH   6  10
ENDBRANCH   5   8
BRANCH   5  17
ATOM     17  CB  LEU A   2      -0.075   9.766  20.989  0.00  0.00    +0.000 C 
BRANCH  17  18
ATOM     18  CG  LEU A   2      -0.205  10.404  22.390  0.00  0.00    +0.000 C 
ATOM     19  CD1 LEU A   2      -1.427  11.315  22.537  0.00  0.00    +0.000 C 
ATOM     20  CD2 LEU A   2      -0.226   9.327  23.476  0.00  0.00    +0.000 C 
ENDBRANCH  17  18
ENDBRANCH   5  17
ENDBRANCH   1   5
BRANCH   3  21
ATOM     21  C   UNK A   3       2.440   7.151  18.118  0.00  0.00    +0.000 C 
BRANCH  21  22
ATOM     22  C   UNK A   3       2.345   5.835  18.921  0.00  0.00    +0.000 C 
ATOM     23  O   UNK A   3       2.275   5.853  20.157  0.00  0.00    +0.000 OA
ATOM     24  N   UNK A   3       2.398   4.658  18.207  0.00  0.00    +0.000 N 
ATOM     25  H   UNK A   3       2.259   4.661  17.198  0.00  0.00    +0.000 HD
BRANCH  24  26
ATOM     26  C   UNK A   3       2.354   3.334  18.864  0.00  0.00    +0.000 C 
BRANCH  26  27
ATOM     27  C   UNK A   3       0.933   2.877  19.248  0.00  0.00    +0.000 C 
ATOM     28  N   UNK A   3       0.499   3.208  20.494  0.00  0.00    +0.000 N 
ATOM     29  O   UNK A   3       0.194   2.291  18.462  0.00  0.00    +0.000 OA
ATOM     30  H   UNK A   3       1.062   3.739  21.141  0.00  0.00    +0.000 HD
ATOM     31  H   UNK A   3      -0.434   2.925  20.767  0.00  0.00    +0.000 HD
ENDBRANCH  26  27
BRANCH  26  32
ATOM     32  C   UNK A   3       3.255   3.235  20.100  0.00  0.00    +0.000 C 
BRANCH  32  33
ATOM     33  C   UNK A   3       4.685   2.966  19.703  0.00  0.00    +0.000 C 
ATOM     34  O   UNK A   3       5.403   3.794  19.158  0.00  0.00    +0.000 OA
BRANCH  33  35
ATOM     35  O   UNK A   3       5.091   1.701  19.941  0.00  0.00    +0.000 OA
ATOM     36  H   UNK A   3       6.054   1.554  19.861  0.00  0.00    +0.000 HD
ENDBRANCH  33  35
ENDBRANCH  32  33
ENDBRANCH  26  32
ENDBRANCH  24  26
ENDBRANCH  21  22
BRANCH  21  37
ATOM     37  C   UNK A   3       3.813   7.226  17.440  0.00  0.00    +0.000 C 
BRANCH  37  38
ATOM     38  O   UNK A   3       4.720   6.228  17.900  0.00  0.00    +0.000 OA
ATOM     39  H   UNK A   3       5.458   6.164  17.257  0.00  0.00    +0.000 HD
ENDBRANCH  37  38
ENDBRANCH  21  37
ENDBRANCH   3  21
TORSDOF 15
ENDMDL
MODEL 3
REMARK VINA RESULT:      -6.7      1.663      2.200
REMARK  Name = 
REMARK  19 active torsions:
REMARK  status: ('A' for Active; 'I' for Inactive)
REMARK    1  A    between atoms: C_1  and  C_2
REMARK    2  A    between atoms: N_4  and  CA_5
REMARK    3  A    between atoms: CA_5  and  CB_6
REMARK    4  A    between atoms: CA_5  and  C_7
REMARK    5  A    between atoms: N_9  and  CA_10
REMARK    6  A    between atoms: CA_10  and  CB_11
REMARK    7  A    between atoms: CA_10  and  C_15
REMARK    8  A    between atoms: CB_11  and  CG_12
REMARK    9  A    between atoms: CG_12  and  CD1_13
REMARK   10  A    between atoms: CG_12  and  CD2_14
REMARK   11  A    between atoms: N_17  and  C_18
REMARK   12  A    between atoms: C_18  and  C_19
REMARK   13  A    between atoms: C_18  and  C_21
REMARK   14  A    between atoms: C_19  and  O_20
REMARK   15  A    between atoms: N_23  and  C_24
REMARK   16  A    between atoms: C_24  and  C_25
REMARK   17  A    between atoms: C_24  and  C_29
REMARK   18  A    between atoms: C_25  and  C_26
REMARK   19  A    between atoms: C_26  and  O_28
REMARK                            x       y       z     vdW  Elec       q    Type
REMARK                         _______ _______ _______ _____ _____    ______ ____
ROOT
ATOM      1  C   LEU A   2       1.106   9.587  18.299  0.00  0.00    +0.000 C 
ATOM      2  O   LEU A   2       1.781  10.042  17.368  0.00  0.00    +0.000 OA
ATOM      3  N   UNK A   3       1.367   8.345  18.814  0.00  0.00    +0.000 N 
ATOM      4  H   UNK A   3       0.927   8.051  19.683  0.00  0.00    +0.000 HD
ENDROOT
BRANCH   1   5
ATOM      5  CA  LEU A   2      -0.045  10.398  18.953  0.00  0.00    +0.000 C 
BRANCH   5   8
ATOM      6  C   ALA A   1      -2.266  11.148  18.021  0.00  0.00    +0.000 C 
ATOM      7  O   ALA A   1      -2.460  11.963  18.920  0.00  0.00    +0.000 OA
ATOM      8  N   LEU A   2      -1.179  10.297  18.017  0.00  0.00    +0.000 N 
ATOM      9  H   LEU A   2      -1.026   9.731  17.190  0.00  0.00    +0.000 HD
BRANCH   6  10
ATOM     10  CA  ALA A   1      -3.333  10.844  16.943  0.00  0.00    +0.000 C 
ATOM     11  CB  ALA A   1      -2.653  10.554  15.609  0.00  0.00    +0.000 C 
BRANCH  10  15
ATOM     12  C   UNK A   0      -6.378  13.105  17.103  0.00  0.00    +0.000 C 
ATOM     13  C   UNK A   0      -5.539  11.883  17.345  0.00  0.00    +0.000 C 
ATOM     14  O   UNK A   0      -5.943  10.927  17.998  0.00  0.00    +0.000 OA
ATOM     15  N   ALA A   1      -4.280  11.950  16.788  0.00  0.00    +0.000 N 
ATOM     16  H   ALA A   1      -3.984  12.802  16.330  0.00  0.00    +0.000 HD
ENDBRANCH  10  15
ENDBRANCH   6  10
ENDBRANCH   5   8
BRANCH   5  17
ATOM     17  CB  LEU A   2      -0.429   9.861  20.352  0.00  0.00    +0.000 C 
BRANCH  17  18
ATOM     18  CG  LEU A   2       0.321  10.460  21.563  0.00  0.00    +0.000 C 
ATOM     19  CD1 LEU A   2      -0.549  11.374  22.430  0.00  0.00    +0.000 C 
ATOM     20  CD2 LEU A   2       0.929   9.351  22.424  0.00  0.00    +0.000 C 
ENDBRANCH  17  18
ENDBRANCH   5  17
ENDBRANCH   1   5
BRANCH   3  21
ATOM     21  C   UNK A   3       2.263   7.348  18.200  0.00  0.00    +0.000 C 
BRANCH  21  22
ATOM     22  C   UNK A   3       2.474   6.224  19.237  0.00  0.00    +0.000 C 
ATOM     23  O   UNK A   3       2.102   6.366  20.409  0.00  0.00    +0.000 OA
ATOM     24  N   UNK A   3       3.138   5.094  18.812  0.00  0.00    +0.000 N 
ATOM     25  H   UNK A   3       3.260   4.911  17.817  0.00  0.00    +0.000 HD
BRANCH  24  26
ATOM     26  C   UNK A   3       3.434   3.964  19.718  0.00  0.00    +0.000 C 
BRANCH  26  27
ATOM     27  C   UNK A   3       4.826   3.340  19.500  0.00  0.00    +0.000 C 
ATOM     28  N   UNK A   3       4.950   2.010  19.761  0.00  0.00    +0.000 N 
ATOM     29  O   UNK A   3       5.775   3.983  19.061  0.00  0.00    +0.000 OA
ATOM     30  H   UNK A   3       4.174   1.444  20.068  0.00  0.00    +0.000 HD
ATOM     31  H   UNK A   3       5.854   1.577  19.619  0.00  0.00    +0.000 HD
ENDBRANCH  26  27
BRANCH  26  32
ATOM     32  C   UNK A   3       2.382   2.849  19.669  0.00  0.00    +0.000 C 
BRANCH  32  33
ATOM     33  C   UNK A   3       1.881   2.644  18.261  0.00  0.00    +0.000 C 
ATOM     34  O   UNK A   3       1.002   3.326  17.750  0.00  0.00    +0.000 OA
BRANCH  33  35
ATOM     35  O   UNK A   3       2.443   1.593  17.627  0.00  0.00    +0.000 OA
ATOM     36  H   UNK A   3       3.055   1.827  16.903  0.00  0.00    +0.000 HD
ENDBRANCH  33  35
ENDBRANCH  32  33
ENDBRANCH  26  32
ENDBRANCH  24  26
ENDBRANCH  21  22
BRANCH  21  37
ATOM     37  C   UNK A   3       3.623   7.957  17.836  0.00  0.00    +0.000 C 
BRANCH  37  38
ATOM     38  O   UNK A   3       4.530   7.008  17.281  0.00  0.00    +0.000 OA
ATOM     39  H   UNK A   3       4.974   6.540  18.019  0.00  0.00    +0.000 HD
ENDBRANCH  37  38
ENDBRANCH  21  37
ENDBRANCH   3  21
TORSDOF 15
ENDMDL
MODEL 4
REMARK VINA RESULT:      -6.7      2.458      8.766
REMARK  Name = 
REMARK  19 active torsions:
REMARK  status: ('A' for Active; 'I' for Inactive)
REMARK    1  A    between atoms: C_1  and  C_2
REMARK    2  A    between atoms: N_4  and  CA_5
REMARK    3  A    between atoms: CA_5  and  CB_6
REMARK    4  A    between atoms: CA_5  and  C_7
REMARK    5  A    between atoms: N_9  and  CA_10
REMARK    6  A    between atoms: CA_10  and  CB_11
REMARK    7  A    between atoms: CA_10  and  C_15
REMARK    8  A    between atoms: CB_11  and  CG_12
REMARK    9  A    between atoms: CG_12  and  CD1_13
REMARK   10  A    between atoms: CG_12  and  CD2_14
REMARK   11  A    between atoms: N_17  and  C_18
REMARK   12  A    between atoms: C_18  and  C_19
REMARK   13  A    between atoms: C_18  and  C_21
REMARK   14  A    between atoms: C_19  and  O_20
REMARK   15  A    between atoms: N_23  and  C_24
REMARK   16  A    between atoms: C_24  and  C_25
REMARK   17  A    between atoms: C_24  and  C_29
REMARK   18  A    between atoms: C_25  and  C_26
REMARK   19  A    between atoms: C_26  and  O_28
REMARK                            x       y       z     vdW  Elec       q    Type
REMARK                         _______ _______ _______ _____ _____    ______ ____
ROOT
ATOM      1  C   LEU A   2       2.007   7.618  19.756  0.00  0.00    +0.000 C 
ATOM      2  O   LEU A   2       1.892   7.909  20.952  0.00  0.00    +0.000 OA
ATOM      3  N   UNK A   3       1.942   8.587  18.789  0.00  0.00    +0.000 N 
ATOM      4  H   UNK A   3       2.208   8.368  17.832  0.00  0.00    +0.000 HD
ENDROOT
BRANCH   1   5
ATOM      5  CA  LEU A   2       2.260   6.160  19.284  0.00  0.00    +0.000 C 
BRANCH   5   8
ATOM      6  C   ALA A   1       3.951   5.184  17.687  0.00  0.00    +0.000 C 
ATOM      7  O   ALA A   1       3.442   4.065  17.705  0.00  0.00    +0.000 OA
ATOM      8  N   LEU A   2       3.498   6.214  18.487  0.00  0.00    +0.000 N 
ATOM      9  H   LEU A   2       3.894   7.135  18.337  0.00  0.00    +0.000 HD
BRANCH   6  10
ATOM     10  CA  ALA A   1       5.278   5.472  16.946  0.00  0.00    +0.000 C 
ATOM     11  CB  ALA A   1       5.518   6.977  16.881  0.00  0.00    +0.000 C 
BRANCH  10  15
ATOM     12  C   UNK A   0       6.281   3.982  13.601  0.00  0.00    +0.000 C 
ATOM     13  C   UNK A   0       6.459   4.555  14.979  0.00  0.00    +0.000 C 
ATOM     14  O   UNK A   0       7.560   4.671  15.503  0.00  0.00    +0.000 OA
ATOM     15  N   ALA A   1       5.279   4.909  15.594  0.00  0.00    +0.000 N 
ATOM     16  H   ALA A   1       4.399   4.711  15.134  0.00  0.00    +0.000 HD
ENDBRANCH  10  15
ENDBRANCH   6  10
ENDBRANCH   5   8
BRANCH   5  17
ATOM     17  CB  LEU A   2       2.400   5.170  20.463  0.00  0.00    +0.000 C 
BRANCH  17  18
ATOM     18  CG  LEU A   2       1.253   4.156  20.668  0.00  0.00    +0.000 C 
ATOM     19  CD1 LEU A   2       0.749   3.532  19.364  0.00  0.00    +0.000 C 
ATOM     20  CD2 LEU A   2       1.672   3.054  21.643  0.00  0.00    +0.000 C 
ENDBRANCH  17  18
ENDBRANCH   5  17
ENDBRANCH   1   5
BRANCH   3  21
ATOM     21  C   UNK A   3       1.501   9.975  19.014  0.00  0.00    +0.000 C 
BRANCH  21  22
ATOM     22  C   UNK A   3      -0.043   9.973  18.992  0.00  0.00    +0.000 C 
ATOM     23  O   UNK A   3      -0.688   9.561  19.965  0.00  0.00    +0.000 OA
ATOM     24  N   UNK A   3      -0.655  10.395  17.832  0.00  0.00    +0.000 N 
ATOM     25  H   UNK A   3      -0.127  10.907  17.128  0.00  0.00    +0.000 HD
BRANCH  24  26
ATOM     26  C   UNK A   3      -2.125  10.405  17.674  0.00  0.00    +0.000 C 
BRANCH  26  27
ATOM     27  C   UNK A   3      -2.593  10.340  16.208  0.00  0.00    +0.000 C 
ATOM     28  N   UNK A   3      -2.608  11.511  15.516  0.00  0.00    +0.000 N 
ATOM     29  O   UNK A   3      -2.889   9.283  15.656  0.00  0.00    +0.000 OA
ATOM     30  H   UNK A   3      -2.315  12.385  15.925  0.00  0.00    +0.000 HD
ATOM     31  H   UNK A   3      -2.905  11.492  14.548  0.00  0.00    +0.000 HD
ENDBRANCH  26  27
BRANCH  26  32
ATOM     32  C   UNK A   3      -2.805  11.598  18.356  0.00  0.00    +0.000 C 
BRANCH  32  33
ATOM     33  C   UNK A   3      -4.307  11.460  18.308  0.00  0.00    +0.000 C 
ATOM     34  O   UNK A   3      -4.890  10.385  18.378  0.00  0.00    +0.000 OA
BRANCH  33  35
ATOM     35  O   UNK A   3      -4.958  12.626  18.114  0.00  0.00    +0.000 OA
ATOM     36  H   UNK A   3      -4.393  13.374  17.839  0.00  0.00    +0.000 HD
ENDBRANCH  33  35
ENDBRANCH  32  33
ENDBRANCH  26  32
ENDBRANCH  24  26
ENDBRANCH  21  22
BRANCH  21  37
ATOM     37  C   UNK A   3       2.018  10.917  17.919  0.00  0.00    +0.000 C 
BRANCH  37  38
ATOM     38  O   UNK A   3       1.656  12.278  18.137  0.00  0.00    +0.000 OA
ATOM     39  H   UNK A   3       1.980  12.544  19.023  0.00  0.00    +0.000 HD
ENDBRANCH  37  38
ENDBRANCH  21  37
ENDBRANCH   3  21
TORSDOF 15
ENDMDL
MODEL 5
REMARK VINA RESULT:      -6.7      4.869      8.438
REMARK  Name = 
REMARK  19 active torsions:
REMARK  status: ('A' for Active; 'I' for Inactive)
REMARK    1  A    between atoms: C_1  and  C_2
REMARK    2  A    between atoms: N_4  and  CA_5
REMARK    3  A    between atoms: CA_5  and  CB_6
REMARK    4  A    between atoms: CA_5  and  C_7
REMARK    5  A    between atoms: N_9  and  CA_10
REMARK    6  A    between atoms: CA_10  and  CB_11
REMARK    7  A    between atoms: CA_10  and  C_15
REMARK    8  A    between atoms: CB_11  and  CG_12
REMARK    9  A    between atoms: CG_12  and  CD1_13
REMARK   10  A    between atoms: CG_12  and  CD2_14
REMARK   11  A    between atoms: N_17  and  C_18
REMARK   12  A    between atoms: C_18  and  C_19
REMARK   13  A    between atoms: C_18  and  C_21
REMARK   14  A    between atoms: C_19  and  O_20
REMARK   15  A    between atoms: N_23  and  C_24
REMARK   16  A    between atoms: C_24  and  C_25
REMARK   17  A    between atoms: C_24  and  C_29
REMARK   18  A    between atoms: C_25  and  C_26
REMARK   19  A    between atoms: C_26  and  O_28
REMARK                            x       y       z     vdW  Elec       q    Type
REMARK                         _______ _______ _______ _____ _____    ______ ____
ROOT
ATOM      1  C   LEU A   2       5.718   4.172  17.527  0.00  0.00    +0.000 C 
ATOM      2  O   LEU A   2       5.307   4.641  18.594  0.00  0.00    +0.000 OA
ATOM      3  N   UNK A   3       5.026   3.180  16.883  0.00  0.00    +0.000 N 
ATOM      4  H   UNK A   3       5.274   2.923  15.930  0.00  0.00    +0.000 HD
ENDROOT
BRANCH   1   5
ATOM      5  CA  LEU A   2       7.013   4.691  16.843  0.00  0.00    +0.000 C 
BRANCH   5   8
ATOM      6  C   ALA A   1       6.145   4.572  14.478  0.00  0.00    +0.000 C 
ATOM      7  O   ALA A   1       5.221   5.354  14.691  0.00  0.00    +0.000 OA
ATOM      8  N   LEU A   2       6.988   4.135  15.479  0.00  0.00    +0.000 N 
ATOM      9  H   LEU A   2       7.792   3.580  15.209  0.00  0.00    +0.000 HD
BRANCH   6  10
ATOM     10  CA  ALA A   1       6.301   3.834  13.127  0.00  0.00    +0.000 C 
ATOM     11  CB  ALA A   1       7.457   4.440  12.338  0.00  0.00    +0.000 C 
BRANCH  10  15
ATOM     12  C   UNK A   0       3.438   3.065  10.756  0.00  0.00    +0.000 C 
ATOM     13  C   UNK A   0       4.734   2.855  11.487  0.00  0.00    +0.000 C 
ATOM     14  O   UNK A   0       5.408   1.841  11.350  0.00  0.00    +0.000 OA
ATOM     15  N   ALA A   1       5.073   3.889  12.332  0.00  0.00    +0.000 N 
ATOM     16  H   ALA A   1       4.430   4.660  12.457  0.00  0.00    +0.000 HD
ENDBRANCH  10  15
ENDBRANCH   6  10
ENDBRANCH   5   8
BRANCH   5  17
ATOM     17  CB  LEU A   2       7.089   6.236  16.813  0.00  0.00    +0.000 C 
BRANCH  17  18
ATOM     18  CG  LEU A   2       7.412   6.949  18.145  0.00  0.00    +0.000 C 
ATOM     19  CD1 LEU A   2       8.208   6.082  19.125  0.00  0.00    +0.000 C 
ATOM     20  CD2 LEU A   2       8.156   8.261  17.889  0.00  0.00    +0.000 C 
ENDBRANCH  17  18
ENDBRANCH   5  17
ENDBRANCH   1   5
BRANCH   3  21
ATOM     21  C   UNK A   3       3.910   2.415  17.466  0.00  0.00    +0.000 C 
BRANCH  21  22
ATOM     22  C   UNK A   3       2.775   3.420  17.765  0.00  0.00    +0.000 C 
ATOM     23  O   UNK A   3       2.037   3.828  16.858  0.00  0.00    +0.000 OA
ATOM     24  N   UNK A   3       2.664   3.874  19.061  0.00  0.00    +0.000 N 
ATOM     25  H   UNK A   3       3.141   3.390  19.819  0.00  0.00    +0.000 HD
BRANCH  24  26
ATOM     26  C   UNK A   3       1.643   4.864  19.465  0.00  0.00    +0.000 C 
BRANCH  26  27
ATOM     27  C   UNK A   3       2.188   6.299  19.601  0.00  0.00    +0.000 C 
ATOM     28  N   UNK A   3       2.995   6.746  18.601  0.00  0.00    +0.000 N 
ATOM     29  O   UNK A   3       1.876   7.037  20.531  0.00  0.00    +0.000 OA
ATOM     30  H   UNK A   3       3.223   6.183  17.796  0.00  0.00    +0.000 HD
ATOM     31  H   UNK A   3       3.360   7.688  18.666  0.00  0.00    +0.000 HD
ENDBRANCH  26  27
BRANCH  26  32
ATOM     32  C   UNK A   3       0.909   4.492  20.758  0.00  0.00    +0.000 C 
BRANCH  32  33
ATOM     33  C   UNK A   3       1.500   3.247  21.373  0.00  0.00    +0.000 C 
ATOM     34  O   UNK A   3       1.157   2.112  21.065  0.00  0.00    +0.000 OA
BRANCH  33  35
ATOM     35  O   UNK A   3       2.401   3.491  22.347  0.00  0.00    +0.000 OA
ATOM     36  H   UNK A   3       3.105   2.820  22.437  0.00  0.00    +0.000 HD
ENDBRANCH  33  35
ENDBRANCH  32  33
ENDBRANCH  26  32
ENDBRANCH  24  26
ENDBRANCH  21  22
BRANCH  21  37
ATOM     37  C   UNK A   3       4.320   1.719  18.770  0.00  0.00    +0.000 C 
BRANCH  37  38
ATOM     38  O   UNK A   3       4.245   0.298  18.692  0.00  0.00    +0.000 OA
ATOM     39  H   UNK A   3       4.447  -0.069  19.579  0.00  0.00    +0.000 HD
ENDBRANCH  37  38
ENDBRANCH  21  37
ENDBRANCH   3  21
TORSDOF 15
ENDMDL
MODEL 6
REMARK VINA RESULT:      -6.6      2.977      3.808
REMARK  Name = 
REMARK  19 active torsions:
REMARK  status: ('A' for Active; 'I' for Inactive)
REMARK    1  A    between atoms: C_1  and  C_2
REMARK    2  A    between atoms: N_4  and  CA_5
REMARK    3  A    between atoms: CA_5  and  CB_6
REMARK    4  A    between atoms: CA_5  and  C_7
REMARK    5  A    between atoms: N_9  and  CA_10
REMARK    6  A    between atoms: CA_10  and  CB_11
REMARK    7  A    between atoms: CA_10  and  C_15
REMARK    8  A    between atoms: CB_11  and  CG_12
REMARK    9  A    between atoms: CG_12  and  CD1_13
REMARK   10  A    between atoms: CG_12  and  CD2_14
REMARK   11  A    between atoms: N_17  and  C_18
REMARK   12  A    between atoms: C_18  and  C_19
REMARK   13  A    between atoms: C_18  and  C_21
REMARK   14  A    between atoms: C_19  and  O_20
REMARK   15  A    between atoms: N_23  and  C_24
REMARK   16  A    between atoms: C_24  and  C_25
REMARK   17  A    between atoms: C_24  and  C_29
REMARK   18  A    between atoms: C_25  and  C_26
REMARK   19  A    between atoms: C_26  and  O_28
REMARK                            x       y       z     vdW  Elec       q    Type
REMARK                         _______ _______ _______ _____ _____    ______ ____
ROOT
ATOM      1  C   LEU A   2       1.471   9.113  19.028  0.00  0.00    +0.000 C 
ATOM      2  O   LEU A   2       1.278   9.242  17.813  0.00  0.00    +0.000 OA
ATOM      3  N   UNK A   3       2.091   7.997  19.526  0.00  0.00    +0.000 N 
ATOM      4  H   UNK A   3       2.399   7.976  20.495  0.00  0.00    +0.000 HD
ENDROOT
BRANCH   1   5
ATOM      5  CA  LEU A   2       1.052  10.206  20.048  0.00  0.00    +0.000 C 
BRANCH   5   8
ATOM      6  C   ALA A   1       1.575  12.670  19.908  0.00  0.00    +0.000 C 
ATOM      7  O   ALA A   1       1.709  12.793  21.124  0.00  0.00    +0.000 OA
ATOM      8  N   LEU A   2       1.171  11.485  19.326  0.00  0.00    +0.000 N 
ATOM      9  H   LEU A   2       1.190  11.427  18.314  0.00  0.00    +0.000 HD
BRANCH   6  10
ATOM     10  CA  ALA A   1       1.622  13.883  18.948  0.00  0.00    +0.000 C 
ATOM     11  CB  ALA A   1       2.912  13.849  18.136  0.00  0.00    +0.000 C 
BRANCH  10  15
ATOM     12  C   UNK A   0       0.542  17.288  20.235  0.00  0.00    +0.000 C 
ATOM     13  C   UNK A   0       0.506  16.042  19.395  0.00  0.00    +0.000 C 
ATOM     14  O   UNK A   0      -0.365  15.840  18.557  0.00  0.00    +0.000 OA
ATOM     15  N   ALA A   1       1.521  15.152  19.672  0.00  0.00    +0.000 N 
ATOM     16  H   ALA A   1       2.160  15.348  20.432  0.00  0.00    +0.000 HD
ENDBRANCH  10  15
ENDBRANCH   6  10
ENDBRANCH   5   8
BRANCH   5  17
ATOM     17  CB  LEU A   2      -0.384  10.001  20.583  0.00  0.00    +0.000 C 
BRANCH  17  18
ATOM     18  CG  LEU A   2      -0.548   9.837  22.110  0.00  0.00    +0.000 C 
ATOM     19  CD1 LEU A   2       0.719   9.336  22.811  0.00  0.00    +0.000 C 
ATOM     20  CD2 LEU A   2      -1.011  11.147  22.749  0.00  0.00    +0.000 C 
ENDBRANCH  17  18
ENDBRANCH   5  17
ENDBRANCH   1   5
BRANCH   3  21
ATOM     21  C   UNK A   3       2.366   6.771  18.756  0.00  0.00    +0.000 C 
BRANCH  21  22
ATOM     22  C   UNK A   3       2.359   5.594  19.756  0.00  0.00    +0.000 C 
ATOM     23  O   UNK A   3       1.832   5.713  20.869  0.00  0.00    +0.000 OA
ATOM     24  N   UNK A   3       3.008   4.441  19.372  0.00  0.00    +0.000 N 
ATOM     25  H   UNK A   3       3.260   4.291  18.396  0.00  0.00    +0.000 HD
BRANCH  24  26
ATOM     26  C   UNK A   3       3.104   3.258  20.254  0.00  0.00    +0.000 C 
BRANCH  26  27
ATOM     27  C   UNK A   3       4.488   2.581  20.239  0.00  0.00    +0.000 C 
ATOM     28  N   UNK A   3       5.342   2.952  19.247  0.00  0.00    +0.000 N 
ATOM     29  O   UNK A   3       4.841   1.783  21.103  0.00  0.00    +0.000 OA
ATOM     30  H   UNK A   3       5.100   3.647  18.557  0.00  0.00    +0.000 HD
ATOM     31  H   UNK A   3       6.259   2.526  19.221  0.00  0.00    +0.000 HD
ENDBRANCH  26  27
BRANCH  26  32
ATOM     32  C   UNK A   3       2.033   2.197  19.971  0.00  0.00    +0.000 C 
BRANCH  32  33
ATOM     33  C   UNK A   3       1.539   2.298  18.549  0.00  0.00    +0.000 C 
ATOM     34  O   UNK A   3       0.458   2.782  18.241  0.00  0.00    +0.000 OA
BRANCH  33  35
ATOM     35  O   UNK A   3       2.369   1.744  17.640  0.00  0.00    +0.000 OA
ATOM     36  H   UNK A   3       1.990   0.997  17.137  0.00  0.00    +0.000 HD
ENDBRANCH  33  35
ENDBRANCH  32  33
ENDBRANCH  26  32
ENDBRANCH  24  26
ENDBRANCH  21  22
BRANCH  21  37
ATOM     37  C   UNK A   3       3.732   6.832  18.062  0.00  0.00    +0.000 C 
BRANCH  37  38
ATOM     38  O   UNK A   3       3.916   5.800  17.096  0.00  0.00    +0.000 OA
ATOM     39  H   UNK A   3       3.153   5.818  16.479  0.00  0.00    +0.000 HD
ENDBRANCH  37  38
ENDBRANCH  21  37
ENDBRANCH   3  21
TORSDOF 15
ENDMDL
MODEL 7
REMARK VINA RESULT:      -6.6      2.798      4.625
REMARK  Name = 
REMARK  19 active torsions:
REMARK  status: ('A' for Active; 'I' for Inactive)
REMARK    1  A    between atoms: C_1  and  C_2
REMARK    2  A    between atoms: N_4  and  CA_5
REMARK    3  A    between atoms: CA_5  and  CB_6
REMARK    4  A    between atoms: CA_5  and  C_7
REMARK    5  A    between atoms: N_9  and  CA_10
REMARK    6  A    between atoms: CA_10  and  CB_11
REMARK    7  A    between atoms: CA_10  and  C_15
REMARK    8  A    between atoms: CB_11  and  CG_12
REMARK    9  A    between atoms: CG_12  and  CD1_13
REMARK   10  A    between atoms: CG_12  and  CD2_14
REMARK   11  A    between atoms: N_17  and  C_18
REMARK   12  A    between atoms: C_18  and  C_19
REMARK   13  A    between atoms: C_18  and  C_21
REMARK   14  A    between atoms: C_19  and  O_20
REMARK   15  A    between atoms: N_23  and  C_24
REMARK   16  A    between atoms: C_24  and  C_25
REMARK   17  A    between atoms: C_24  and  C_29
REMARK   18  A    between atoms: C_25  and  C_26
REMARK   19  A    between atoms: C_26  and  O_28
REMARK                            x       y       z     vdW  Elec       q    Type
REMARK                         _______ _______ _______ _____ _____    ______ ____
ROOT
ATOM      1  C   LEU A   2       1.701   9.160  18.430  0.00  0.00    +0.000 C 
ATOM      2  O   LEU A   2       2.052   9.691  17.370  0.00  0.00    +0.000 OA
ATOM      3  N   UNK A   3       2.056   7.868  18.719  0.00  0.00    +0.000 N 
ATOM      4  H   UNK A   3       1.915   7.500  19.657  0.00  0.00    +0.000 HD
ENDROOT
BRANCH   1   5
ATOM      5  CA  LEU A   2       0.874   9.924  19.500  0.00  0.00    +0.000 C 
BRANCH   5   8
ATOM      6  C   ALA A   1       1.295  12.228  20.434  0.00  0.00    +0.000 C 
ATOM      7  O   ALA A   1       0.794  11.966  21.526  0.00  0.00    +0.000 OA
ATOM      8  N   LEU A   2       1.287  11.333  19.384  0.00  0.00    +0.000 N 
ATOM      9  H   LEU A   2       1.815  11.577  18.553  0.00  0.00    +0.000 HD
BRANCH   6  10
ATOM     10  CA  ALA A   1       1.768  13.656  20.070  0.00  0.00    +0.000 C 
ATOM     11  CB  ALA A   1       0.586  14.480  19.571  0.00  0.00    +0.000 C 
BRANCH  10  15
ATOM     12  C   UNK A   0       4.834  14.411  17.963  0.00  0.00    +0.000 C 
ATOM     13  C   UNK A   0       3.825  14.583  19.063  0.00  0.00    +0.000 C 
ATOM     14  O   UNK A   0       3.908  15.477  19.897  0.00  0.00    +0.000 OA
ATOM     15  N   ALA A   1       2.824  13.636  19.056  0.00  0.00    +0.000 N 
ATOM     16  H   ALA A   1       2.861  12.878  18.386  0.00  0.00    +0.000 HD
ENDBRANCH  10  15
ENDBRANCH   6  10
ENDBRANCH   5   8
BRANCH   5  17
ATOM     17  CB  LEU A   2      -0.651   9.772  19.290  0.00  0.00    +0.000 C 
BRANCH  17  18
ATOM     18  CG  LEU A   2      -1.305  10.672  18.219  0.00  0.00    +0.000 C 
ATOM     19  CD1 LEU A   2      -1.978   9.889  17.089  0.00  0.00    +0.000 C 
ATOM     20  CD2 LEU A   2      -2.311  11.631  18.858  0.00  0.00    +0.000 C 
ENDBRANCH  17  18
ENDBRANCH   5  17
ENDBRANCH   1   5
BRANCH   3  21
ATOM     21  C   UNK A   3       2.646   6.920  17.758  0.00  0.00    +0.000 C 
BRANCH  21  22
ATOM     22  C   UNK A   3       2.148   5.510  18.142  0.00  0.00    +0.000 C 
ATOM     23  O   UNK A   3       1.292   4.935  17.458  0.00  0.00    +0.000 OA
ATOM     24  N   UNK A   3       2.655   4.958  19.297  0.00  0.00    +0.000 N 
ATOM     25  H   UNK A   3       3.487   5.350  19.734  0.00  0.00    +0.000 HD
BRANCH  24  26
ATOM     26  C   UNK A   3       2.229   3.631  19.791  0.00  0.00    +0.000 C 
BRANCH  26  27
ATOM     27  C   UNK A   3       2.134   3.539  21.326  0.00  0.00    +0.000 C 
ATOM     28  N   UNK A   3       1.694   2.361  21.845  0.00  0.00    +0.000 N 
ATOM     29  O   UNK A   3       2.486   4.455  22.064  0.00  0.00    +0.000 OA
ATOM     30  H   UNK A   3       1.452   1.571  21.266  0.00  0.00    +0.000 HD
ATOM     31  H   UNK A   3       1.630   2.275  22.852  0.00  0.00    +0.000 HD
ENDBRANCH  26  27
BRANCH  26  32
ATOM     32  C   UNK A   3       3.105   2.479  19.282  0.00  0.00    +0.000 C 
BRANCH  32  33
ATOM     33  C   UNK A   3       4.552   2.705  19.645  0.00  0.00    +0.000 C 
ATOM     34  O   UNK A   3       5.170   3.723  19.361  0.00  0.00    +0.000 OA
BRANCH  33  35
ATOM     35  O   UNK A   3       5.134   1.652  20.256  0.00  0.00    +0.000 OA
ATOM     36  H   UNK A   3       5.512   0.982  19.654  0.00  0.00    +0.000 HD
ENDBRANCH  33  35
ENDBRANCH  32  33
ENDBRANCH  26  32
ENDBRANCH  24  26
ENDBRANCH  21  22
BRANCH  21  37
ATOM     37  C   UNK A   3       4.179   6.942  17.810  0.00  0.00    +0.000 C 
BRANCH  37  38
ATOM     38  O   UNK A   3       4.772   5.734  17.340  0.00  0.00    +0.000 OA
ATOM     39  H   UNK A   3       4.212   4.983  17.632  0.00  0.00    +0.000 HD
ENDBRANCH  37  38
ENDBRANCH  21  37
ENDBRANCH   3  21
TORSDOF 15
ENDMDL
MODEL 8
REMARK VINA RESULT:      -6.5      4.045      6.666
REMARK  Name = 
REMARK  19 active torsions:
REMARK  status: ('A' for Active; 'I' for Inactive)
REMARK    1  A    between atoms: C_1  and  C_2
REMARK    2  A    between atoms: N_4  and  CA_5
REMARK    3  A    between atoms: CA_5  and  CB_6
REMARK    4  A    between atoms: CA_5  and  C_7
REMARK    5  A    between atoms: N_9  and  CA_10
REMARK    6  A    between atoms: CA_10  and  CB_11
REMARK    7  A    between atoms: CA_10  and  C_15
REMARK    8  A    between atoms: CB_11  and  CG_12
REMARK    9  A    between atoms: CG_12  and  CD1_13
REMARK   10  A    between atoms: CG_12  and  CD2_14
REMARK   11  A    between atoms: N_17  and  C_18
REMARK   12  A    between atoms: C_18  and  C_19
REMARK   13  A    between atoms: C_18  and  C_21
REMARK   14  A    between atoms: C_19  and  O_20
REMARK   15  A    between atoms: N_23  and  C_24
REMARK   16  A    between atoms: C_24  and  C_25
REMARK   17  A    between atoms: C_24  and  C_29
REMARK   18  A    between atoms: C_25  and  C_26
REMARK   19  A    between atoms: C_26  and  O_28
REMARK                            x       y       z     vdW  Elec       q    Type
REMARK                         _______ _______ _______ _____ _____    ______ ____
ROOT
ATOM      1  C   LEU A   2       4.180   6.537  17.985  0.00  0.00    +0.000 C 
ATOM      2  O   LEU A   2       4.245   7.412  17.114  0.00  0.00    +0.000 OA
ATOM      3  N   UNK A   3       5.280   5.788  18.311  0.00  0.00    +0.000 N 
ATOM      4  H   UNK A   3       5.266   5.197  19.139  0.00  0.00    +0.000 HD
ENDROOT
BRANCH   1   5
ATOM      5  CA  LEU A   2       2.872   6.258  18.776  0.00  0.00    +0.000 C 
BRANCH   5   8
ATOM      6  C   ALA A   1       1.547   8.176  19.737  0.00  0.00    +0.000 C 
ATOM      7  O   ALA A   1       1.561   7.720  20.879  0.00  0.00    +0.000 OA
ATOM      8  N   LEU A   2       2.073   7.490  18.662  0.00  0.00    +0.000 N 
ATOM      9  H   LEU A   2       2.125   7.976  17.773  0.00  0.00    +0.000 HD
BRANCH   6  10
ATOM     10  CA  ALA A   1       0.740   9.444  19.369  0.00  0.00    +0.000 C 
ATOM     11  CB  ALA A   1       0.882   9.732  17.878  0.00  0.00    +0.000 C 
BRANCH  10  15
ATOM     12  C   UNK A   0       0.885  12.716  21.289  0.00  0.00    +0.000 C 
ATOM     13  C   UNK A   0       0.280  11.601  20.484  0.00  0.00    +0.000 C 
ATOM     14  O   UNK A   0      -0.907  11.579  20.180  0.00  0.00    +0.000 OA
ATOM     15  N   ALA A   1       1.173  10.609  20.144  0.00  0.00    +0.000 N 
ATOM     16  H   ALA A   1       2.121  10.651  20.496  0.00  0.00    +0.000 HD
ENDBRANCH  10  15
ENDBRANCH   6  10
ENDBRANCH   5   8
BRANCH   5  17
ATOM     17  CB  LEU A   2       2.096   5.038  18.227  0.00  0.00    +0.000 C 
BRANCH  17  18
ATOM     18  CG  LEU A   2       2.140   3.743  19.068  0.00  0.00    +0.000 C 
ATOM     19  CD1 LEU A   2       0.987   3.623  20.068  0.00  0.00    +0.000 C 
ATOM     20  CD2 LEU A   2       2.172   2.511  18.162  0.00  0.00    +0.000 C 
ENDBRANCH  17  18
ENDBRANCH   5  17
ENDBRANCH   1   5
BRANCH   3  21
ATOM     21  C   UNK A   3       6.535   5.753  17.540  0.00  0.00    +0.000 C 
BRANCH  21  22
ATOM     22  C   UNK A   3       6.286   4.867  16.300  0.00  0.00    +0.000 C 
ATOM     23  O   UNK A   3       5.612   3.833  16.387  0.00  0.00    +0.000 OA
ATOM     24  N   UNK A   3       6.889   5.252  15.122  0.00  0.00    +0.000 N 
ATOM     25  H   UNK A   3       7.269   6.191  15.021  0.00  0.00    +0.000 HD
BRANCH  24  26
ATOM     26  C   UNK A   3       6.757   4.468  13.875  0.00  0.00    +0.000 C 
BRANCH  26  27
ATOM     27  C   UNK A   3       7.615   5.002  12.712  0.00  0.00    +0.000 C 
ATOM     28  N   UNK A   3       8.539   5.953  13.016  0.00  0.00    +0.000 N 
ATOM     29  O   UNK A   3       7.522   4.562  11.569  0.00  0.00    +0.000 OA
ATOM     30  H   UNK A   3       8.677   6.292  13.956  0.00  0.00    +0.000 HD
ATOM     31  H   UNK A   3       9.119   6.314  12.270  0.00  0.00    +0.000 HD
ENDBRANCH  26  27
BRANCH  26  32
ATOM     32  C   UNK A   3       5.308   4.325  13.394  0.00  0.00    +0.000 C 
BRANCH  32  33
ATOM     33  C   UNK A   3       5.211   3.318  12.275  0.00  0.00    +0.000 C 
ATOM     34  O   UNK A   3       4.377   3.379  11.380  0.00  0.00    +0.000 OA
BRANCH  33  35
ATOM     35  O   UNK A   3       6.086   2.295  12.380  0.00  0.00    +0.000 OA
ATOM     36  H   UNK A   3       7.019   2.561  12.495  0.00  0.00    +0.000 HD
ENDBRANCH  33  35
ENDBRANCH  32  33
ENDBRANCH  26  32
ENDBRANCH  24  26
ENDBRANCH  21  22
BRANCH  21  37
ATOM     37  C   UNK A   3       7.686   5.156  18.359  0.00  0.00    +0.000 C 
BRANCH  37  38
ATOM     38  O   UNK A   3       8.275   4.012  17.746  0.00  0.00    +0.000 OA
ATOM     39  H   UNK A   3       9.211   4.222  17.540  0.00  0.00    +0.000 HD
ENDBRANCH  37  38
ENDBRANCH  21  37
ENDBRANCH   3  21
TORSDOF 15
ENDMDL
MODEL 9
REMARK VINA RESULT:      -6.5      1.792      2.401
REMARK  Name = 
REMARK  19 active torsions:
REMARK  status: ('A' for Active; 'I' for Inactive)
REMARK    1  A    between atoms: C_1  and  C_2
REMARK    2  A    between atoms: N_4  and  CA_5
REMARK    3  A    between atoms: CA_5  and  CB_6
REMARK    4  A    between atoms: CA_5  and  C_7
REMARK    5  A    between atoms: N_9  and  CA_10
REMARK    6  A    between atoms: CA_10  and  CB_11
REMARK    7  A    between atoms: CA_10  and  C_15
REMARK    8  A    between atoms: CB_11  and  CG_12
REMARK    9  A    between atoms: CG_12  and  CD1_13
REMARK   10  A    between atoms: CG_12  and  CD2_14
REMARK   11  A    between atoms: N_17  and  C_18
REMARK   12  A    between atoms: C_18  and  C_19
REMARK   13  A    between atoms: C_18  and  C_21
REMARK   14  A    between atoms: C_19  and  O_20
REMARK   15  A    between atoms: N_23  and  C_24
REMARK   16  A    between atoms: C_24  and  C_25
REMARK   17  A    between atoms: C_24  and  C_29
REMARK   18  A    between atoms: C_25  and  C_26
REMARK   19  A    between atoms: C_26  and  O_28
REMARK                            x       y       z     vdW  Elec       q    Type
REMARK                         _______ _______ _______ _____ _____    ______ ____
ROOT
ATOM      1  C   LEU A   2       1.867   8.814  18.517  0.00  0.00    +0.000 C 
ATOM      2  O   LEU A   2       1.882   9.115  17.318  0.00  0.00    +0.000 OA
ATOM      3  N   UNK A   3       2.500   7.685  18.966  0.00  0.00    +0.000 N 
ATOM      4  H   UNK A   3       2.631   7.538  19.964  0.00  0.00    +0.000 HD
ENDROOT
BRANCH   1   5
ATOM      5  CA  LEU A   2       1.163   9.702  19.579  0.00  0.00    +0.000 C 
BRANCH   5   8
ATOM      6  C   ALA A   1       0.593  12.135  19.234  0.00  0.00    +0.000 C 
ATOM      7  O   ALA A   1       0.980  12.468  20.352  0.00  0.00    +0.000 OA
ATOM      8  N   LEU A   2       0.563  10.817  18.825  0.00  0.00    +0.000 N 
ATOM      9  H   LEU A   2       0.337  10.630  17.855  0.00  0.00    +0.000 HD
BRANCH   6  10
ATOM     10  CA  ALA A   1      -0.106  13.129  18.277  0.00  0.00    +0.000 C 
ATOM     11  CB  ALA A   1      -0.527  14.377  19.046  0.00  0.00    +0.000 C 
BRANCH  10  15
ATOM     12  C   UNK A   0      -3.412  11.410  17.549  0.00  0.00    +0.000 C 
ATOM     13  C   UNK A   0      -2.286  11.970  18.372  0.00  0.00    +0.000 C 
ATOM     14  O   UNK A   0      -2.292  11.943  19.597  0.00  0.00    +0.000 OA
ATOM     15  N   ALA A   1      -1.272  12.529  17.625  0.00  0.00    +0.000 N 
ATOM     16  H   ALA A   1      -1.369  12.588  16.620  0.00  0.00    +0.000 HD
ENDBRANCH  10  15
ENDBRANCH   6  10
ENDBRANCH   5   8
BRANCH   5  17
ATOM     17  CB  LEU A   2       0.088   8.930  20.380  0.00  0.00    +0.000 C 
BRANCH  17  18
ATOM     18  CG  LEU A   2       0.157   9.028  21.920  0.00  0.00    +0.000 C 
ATOM     19  CD1 LEU A   2       1.585   9.111  22.466  0.00  0.00    +0.000 C 
ATOM     20  CD2 LEU A   2      -0.661  10.220  22.423  0.00  0.00    +0.000 C 
ENDBRANCH  17  18
ENDBRANCH   5  17
ENDBRANCH   1   5
BRANCH   3  21
ATOM     21  C   UNK A   3       3.033   6.617  18.102  0.00  0.00    +0.000 C 
BRANCH  21  22
ATOM     22  C   UNK A   3       3.500   5.472  19.027  0.00  0.00    +0.000 C 
ATOM     23  O   UNK A   3       4.561   5.563  19.658  0.00  0.00    +0.000 OA
ATOM     24  N   UNK A   3       2.717   4.339  19.069  0.00  0.00    +0.000 N 
ATOM     25  H   UNK A   3       1.766   4.356  18.706  0.00  0.00    +0.000 HD
BRANCH  24  26
ATOM     26  C   UNK A   3       3.077   3.161  19.887  0.00  0.00    +0.000 C 
BRANCH  26  27
ATOM     27  C   UNK A   3       4.049   2.191  19.187  0.00  0.00    +0.000 C 
ATOM     28  N   UNK A   3       5.178   1.857  19.868  0.00  0.00    +0.000 N 
ATOM     29  O   UNK A   3       3.806   1.691  18.092  0.00  0.00    +0.000 OA
ATOM     30  H   UNK A   3       5.376   2.207  20.793  0.00  0.00    +0.000 HD
ATOM     31  H   UNK A   3       5.829   1.216  19.431  0.00  0.00    +0.000 HD
ENDBRANCH  26  27
BRANCH  26  32
ATOM     32  C   UNK A   3       1.862   2.368  20.383  0.00  0.00    +0.000 C 
BRANCH  32  33
ATOM     33  C   UNK A   3       0.621   2.750  19.615  0.00  0.00    +0.000 C 
ATOM     34  O   UNK A   3       0.248   2.174  18.601  0.00  0.00    +0.000 OA
BRANCH  33  35
ATOM     35  O   UNK A   3      -0.016   3.834  20.107  0.00  0.00    +0.000 OA
ATOM     36  H   UNK A   3       0.238   4.683  19.697  0.00  0.00    +0.000 HD
ENDBRANCH  33  35
ENDBRANCH  32  33
ENDBRANCH  26  32
ENDBRANCH  24  26
ENDBRANCH  21  22
BRANCH  21  37
ATOM     37  C   UNK A   3       4.223   7.104  17.266  0.00  0.00    +0.000 C 
BRANCH  37  38
ATOM     38  O   UNK A   3       4.992   6.039  16.714  0.00  0.00    +0.000 OA
ATOM     39  H   UNK A   3       5.702   6.428  16.161  0.00  0.00    +0.000 HD
ENDBRANCH  37  38
ENDBRANCH  21  37
ENDBRANCH   3  21
TORSDOF 15
ENDMDL
