MODEL 1
REMARK VINA RESULT:      -8.5      0.000      0.000
REMARK  Name = 
REMARK  6 active torsions:
REMARK  status: ('A' for Active; 'I' for Inactive)
REMARK    1  A    between atoms: C_1  and  C_2
REMARK    2  A    between atoms: C_6  and  C_7
REMARK    3  A    between atoms: C_7  and  C_13
REMARK    4  A    between atoms: N_8  and  N_9
REMARK    5  A    between atoms: N_9  and  C_10
REMARK    6  A    between atoms: C_10  and  N_11
REMARK                            x       y       z     vdW  Elec       q    Type
REMARK                         _______ _______ _______ _____ _____    ______ ____
ROOT
ATOM      1  C   UNL     1       6.455   4.573  16.110  0.00  0.00    +0.000 C 
ATOM      2  N   UNL     1       7.588   4.570  16.763  0.00  0.00    +0.000 NA
ENDROOT
BRANCH   1   8
ATOM      3  C   UNL     1       5.198   2.537  11.640  0.00  0.00    +0.000 C 
ATOM      4  C   UNL     1       6.006   3.510  12.447  0.00  0.00    +0.000 A 
ATOM      5  C   UNL     1       7.032   4.252  11.849  0.00  0.00    +0.000 A 
ATOM      6  C   UNL     1       7.810   5.121  12.612  0.00  0.00    +0.000 A 
ATOM      7  C   UNL     1       7.591   5.232  13.985  0.00  0.00    +0.000 A 
ATOM      8  C   UNL     1       6.583   4.484  14.607  0.00  0.00    +0.000 A 
ATOM      9  C   UNL     1       5.766   3.655  13.824  0.00  0.00    +0.000 A 
ENDBRANCH   1   8
BRANCH   1  10
ATOM     10  C   UNL     1       5.071   4.607  16.712  0.00  0.00    +0.000 A 
ATOM     11  C   UNL     1       4.465   5.817  17.090  0.00  0.00    +0.000 A 
ATOM     12  C   UNL     1       3.188   5.826  17.672  0.00  0.00    +0.000 A 
ATOM     13  C   UNL     1       2.480   4.636  17.815  0.00  0.00    +0.000 A 
ATOM     14  C   UNL     1       3.061   3.446  17.403  0.00  0.00    +0.000 A 
ATOM     15  F   UNL     1       2.365   2.304  17.497  0.00  0.00    +0.000 F 
ATOM     16  C   UNL     1       4.353   3.415  16.883  0.00  0.00    +0.000 A 
ENDBRANCH   1  10
BRANCH   2  17
ATOM     17  N   UNL     1       7.633   4.490  18.117  0.00  0.00    +0.000 N 
ATOM     18  H   UNL     1       7.571   3.595  18.591  0.00  0.00    +0.000 HD
BRANCH  17  19
ATOM     19  C   UNL     1       7.884   5.593  18.890  0.00  0.00    +0.000 C 
ATOM     20  S   UNL     1       7.878   7.129  18.264  0.00  0.00    +0.000 S 
BRANCH  19  21
ATOM     21  N   UNL     1       8.143   5.354  20.197  0.00  0.00    +0.000 N 
ATOM     22  H   UNL     1       8.384   4.404  20.448  0.00  0.00    +0.000 HD
ATOM     23  H   UNL     1       7.905   6.031  20.910  0.00  0.00    +0.000 HD
ENDBRANCH  19  21
ENDBRANCH  17  19
ENDBRANCH   2  17
TORSDOF 5
ENDMDL
MODEL 2
REMARK VINA RESULT:      -8.5      1.099      1.537
REMARK  Name = 
REMARK  6 active torsions:
REMARK  status: ('A' for Active; 'I' for Inactive)
REMARK    1  A    between atoms: C_1  and  C_2
REMARK    2  A    between atoms: C_6  and  C_7
REMARK    3  A    between atoms: C_7  and  C_13
REMARK    4  A    between atoms: N_8  and  N_9
REMARK    5  A    between atoms: N_9  and  C_10
REMARK    6  A    between atoms: C_10  and  N_11
REMARK                            x       y       z     vdW  Elec       q    Type
REMARK                         _______ _______ _______ _____ _____    ______ ____
ROOT
ATOM      1  C   UNL     1       6.426   4.597  16.130  0.00  0.00    +0.000 C 
ATOM      2  N   UNL     1       7.553   4.571  16.792  0.00  0.00    +0.000 NA
ENDROOT
BRANCH   1   8
ATOM      3  C   UNL     1       5.216   2.518  11.667  0.00  0.00    +0.000 C 
ATOM      4  C   UNL     1       6.009   3.505  12.472  0.00  0.00    +0.000 A 
ATOM      5  C   UNL     1       7.032   4.254  11.875  0.00  0.00    +0.000 A 
ATOM      6  C   UNL     1       7.795   5.136  12.636  0.00  0.00    +0.000 A 
ATOM      7  C   UNL     1       7.567   5.254  14.007  0.00  0.00    +0.000 A 
ATOM      8  C   UNL     1       6.563   4.499  14.629  0.00  0.00    +0.000 A 
ATOM      9  C   UNL     1       5.760   3.656  13.846  0.00  0.00    +0.000 A 
ENDBRANCH   1   8
BRANCH   1  10
ATOM     10  C   UNL     1       5.038   4.666  16.721  0.00  0.00    +0.000 A 
ATOM     11  C   UNL     1       4.276   3.506  16.942  0.00  0.00    +0.000 A 
ATOM     12  C   UNL     1       2.979   3.592  17.467  0.00  0.00    +0.000 A 
ATOM     13  C   UNL     1       2.461   4.829  17.843  0.00  0.00    +0.000 A 
ATOM     14  C   UNL     1       3.229   5.970  17.665  0.00  0.00    +0.000 A 
ATOM     15  F   UNL     1       2.752   7.156  18.067  0.00  0.00    +0.000 F 
ATOM     16  C   UNL     1       4.494   5.905  17.085  0.00  0.00    +0.000 A 
ENDBRANCH   1  10
BRANCH   2  17
ATOM     17  N   UNL     1       7.585   4.495  18.147  0.00  0.00    +0.000 N 
ATOM     18  H   UNL     1       7.481   3.605  18.624  0.00  0.00    +0.000 HD
BRANCH  17  19
ATOM     19  C   UNL     1       7.881   5.589  18.916  0.00  0.00    +0.000 C 
ATOM     20  S   UNL     1       7.880   7.128  18.299  0.00  0.00    +0.000 S 
BRANCH  19  21
ATOM     21  N   UNL     1       8.178   5.339  20.213  0.00  0.00    +0.000 N 
ATOM     22  H   UNL     1       8.747   4.524  20.401  0.00  0.00    +0.000 HD
ATOM     23  H   UNL     1       7.689   5.809  20.963  0.00  0.00    +0.000 HD
ENDBRANCH  19  21
ENDBRANCH  17  19
ENDBRANCH   2  17
TORSDOF 5
ENDMDL
MODEL 3
REMARK VINA RESULT:      -8.1      3.884      6.503
REMARK  Name = 
REMARK  6 active torsions:
REMARK  status: ('A' for Active; 'I' for Inactive)
REMARK    1  A    between atoms: C_1  and  C_2
REMARK    2  A    between atoms: C_6  and  C_7
REMARK    3  A    between atoms: C_7  and  C_13
REMARK    4  A    between atoms: N_8  and  N_9
REMARK    5  A    between atoms: N_9  and  C_10
REMARK    6  A    between atoms: C_10  and  N_11
REMARK                            x       y       z     vdW  Elec       q    Type
REMARK                         _______ _______ _______ _____ _____    ______ ____
ROOT
ATOM      1  C   UNL     1       2.975   6.210  18.856  0.00  0.00    +0.000 C 
ATOM      2  N   UNL     1       4.054   6.251  18.118  0.00  0.00    +0.000 NA
ENDROOT
BRANCH   1   8
ATOM      3  C   UNL     1       0.282   9.503  21.614  0.00  0.00    +0.000 C 
ATOM      4  C   UNL     1       0.957   9.126  20.328  0.00  0.00    +0.000 A 
ATOM      5  C   UNL     1       0.803   9.920  19.183  0.00  0.00    +0.000 A 
ATOM      6  C   UNL     1       1.393   9.542  17.979  0.00  0.00    +0.000 A 
ATOM      7  C   UNL     1       2.115   8.351  17.899  0.00  0.00    +0.000 A 
ATOM      8  C   UNL     1       2.265   7.532  19.026  0.00  0.00    +0.000 A 
ATOM      9  C   UNL     1       1.716   7.948  20.248  0.00  0.00    +0.000 A 
ENDBRANCH   1   8
BRANCH   1  10
ATOM     10  C   UNL     1       2.369   4.982  19.492  0.00  0.00    +0.000 A 
ATOM     11  C   UNL     1       2.547   4.699  20.857  0.00  0.00    +0.000 A 
ATOM     12  C   UNL     1       1.998   3.540  21.424  0.00  0.00    +0.000 A 
ATOM     13  C   UNL     1       1.208   2.694  20.651  0.00  0.00    +0.000 A 
ATOM     14  C   UNL     1       0.996   2.995  19.314  0.00  0.00    +0.000 A 
ATOM     15  F   UNL     1       0.198   2.208  18.578  0.00  0.00    +0.000 F 
ATOM     16  C   UNL     1       1.588   4.108  18.723  0.00  0.00    +0.000 A 
ENDBRANCH   1  10
BRANCH   2  17
ATOM     17  N   UNL     1       4.711   5.123  17.748  0.00  0.00    +0.000 N 
ATOM     18  H   UNL     1       4.466   4.631  16.895  0.00  0.00    +0.000 HD
BRANCH  17  19
ATOM     19  C   UNL     1       5.804   4.674  18.440  0.00  0.00    +0.000 C 
ATOM     20  S   UNL     1       7.247   5.492  18.437  0.00  0.00    +0.000 S 
BRANCH  19  21
ATOM     21  N   UNL     1       5.639   3.519  19.125  0.00  0.00    +0.000 N 
ATOM     22  H   UNL     1       4.879   3.490  19.793  0.00  0.00    +0.000 HD
ATOM     23  H   UNL     1       6.354   2.803  19.128  0.00  0.00    +0.000 HD
ENDBRANCH  19  21
ENDBRANCH  17  19
ENDBRANCH   2  17
TORSDOF 5
ENDMDL
MODEL 4
REMARK VINA RESULT:      -8.1      3.667      6.432
REMARK  Name = 
REMARK  6 active torsions:
REMARK  status: ('A' for Active; 'I' for Inactive)
REMARK    1  A    between atoms: C_1  and  C_2
REMARK    2  A    between atoms: C_6  and  C_7
REMARK    3  A    between atoms: C_7  and  C_13
REMARK    4  A    between atoms: N_8  and  N_9
REMARK    5  A    between atoms: N_9  and  C_10
REMARK    6  A    between atoms: C_10  and  N_11
REMARK                            x       y       z     vdW  Elec       q    Type
REMARK                         _______ _______ _______ _____ _____    ______ ____
ROOT
ATOM      1  C   UNL     1       3.224   5.959  19.285  0.00  0.00    +0.000 C 
ATOM      2  N   UNL     1       4.526   6.001  19.170  0.00  0.00    +0.000 NA
ENDROOT
BRANCH   1   8
ATOM      3  C   UNL     1       0.229   9.558  21.229  0.00  0.00    +0.000 C 
ATOM      4  C   UNL     1       1.082   9.038  20.110  0.00  0.00    +0.000 A 
ATOM      5  C   UNL     1       1.127   9.704  18.879  0.00  0.00    +0.000 A 
ATOM      6  C   UNL     1       1.885   9.193  17.828  0.00  0.00    +0.000 A 
ATOM      7  C   UNL     1       2.579   7.993  17.986  0.00  0.00    +0.000 A 
ATOM      8  C   UNL     1       2.532   7.299  19.203  0.00  0.00    +0.000 A 
ATOM      9  C   UNL     1       1.814   7.850  20.275  0.00  0.00    +0.000 A 
ENDBRANCH   1   8
BRANCH   1  10
ATOM     10  C   UNL     1       2.375   4.721  19.438  0.00  0.00    +0.000 A 
ATOM     11  C   UNL     1       1.895   4.016  18.321  0.00  0.00    +0.000 A 
ATOM     12  C   UNL     1       1.085   2.883  18.485  0.00  0.00    +0.000 A 
ATOM     13  C   UNL     1       0.808   2.403  19.762  0.00  0.00    +0.000 A 
ATOM     14  C   UNL     1       1.316   3.073  20.864  0.00  0.00    +0.000 A 
ATOM     15  F   UNL     1       1.090   2.589  22.094  0.00  0.00    +0.000 F 
ATOM     16  C   UNL     1       2.069   4.237  20.718  0.00  0.00    +0.000 A 
ENDBRANCH   1  10
BRANCH   2  17
ATOM     17  N   UNL     1       5.271   4.870  19.069  0.00  0.00    +0.000 N 
ATOM     18  H   UNL     1       5.271   4.176  19.809  0.00  0.00    +0.000 HD
BRANCH  17  19
ATOM     19  C   UNL     1       5.953   4.565  17.922  0.00  0.00    +0.000 C 
ATOM     20  S   UNL     1       5.191   4.419  16.456  0.00  0.00    +0.000 S 
BRANCH  19  21
ATOM     21  N   UNL     1       7.287   4.385  18.055  0.00  0.00    +0.000 N 
ATOM     22  H   UNL     1       7.875   5.190  17.879  0.00  0.00    +0.000 HD
ATOM     23  H   UNL     1       7.689   3.458  18.116  0.00  0.00    +0.000 HD
ENDBRANCH  19  21
ENDBRANCH  17  19
ENDBRANCH   2  17
TORSDOF 5
ENDMDL
MODEL 5
REMARK VINA RESULT:      -8.0      3.980      6.520
REMARK  Name = 
REMARK  6 active torsions:
REMARK  status: ('A' for Active; 'I' for Inactive)
REMARK    1  A    between atoms: C_1  and  C_2
REMARK    2  A    between atoms: C_6  and  C_7
REMARK    3  A    between atoms: C_7  and  C_13
REMARK    4  A    between atoms: N_8  and  N_9
REMARK    5  A    between atoms: N_9  and  C_10
REMARK    6  A    between atoms: C_10  and  N_11
REMARK                            x       y       z     vdW  Elec       q    Type
REMARK                         _______ _______ _______ _____ _____    ______ ____
ROOT
ATOM      1  C   UNL     1       2.996   6.279  18.708  0.00  0.00    +0.000 C 
ATOM      2  N   UNL     1       4.169   6.374  18.138  0.00  0.00    +0.000 NA
ENDROOT
BRANCH   1   8
ATOM      3  C   UNL     1       0.330   9.471  21.607  0.00  0.00    +0.000 C 
ATOM      4  C   UNL     1       0.989   9.139  20.301  0.00  0.00    +0.000 A 
ATOM      5  C   UNL     1       0.818   9.970  19.185  0.00  0.00    +0.000 A 
ATOM      6  C   UNL     1       1.395   9.634  17.963  0.00  0.00    +0.000 A 
ATOM      7  C   UNL     1       2.119   8.449  17.834  0.00  0.00    +0.000 A 
ATOM      8  C   UNL     1       2.285   7.593  18.931  0.00  0.00    +0.000 A 
ATOM      9  C   UNL     1       1.751   7.966  20.173  0.00  0.00    +0.000 A 
ENDBRANCH   1   8
BRANCH   1  10
ATOM     10  C   UNL     1       2.291   5.005  19.106  0.00  0.00    +0.000 A 
ATOM     11  C   UNL     1       1.656   4.189  18.154  0.00  0.00    +0.000 A 
ATOM     12  C   UNL     1       0.984   3.023  18.547  0.00  0.00    +0.000 A 
ATOM     13  C   UNL     1       1.001   2.625  19.881  0.00  0.00    +0.000 A 
ATOM     14  C   UNL     1       1.664   3.407  20.815  0.00  0.00    +0.000 A 
ATOM     15  F   UNL     1       1.723   3.003  22.092  0.00  0.00    +0.000 F 
ATOM     16  C   UNL     1       2.281   4.601  20.449  0.00  0.00    +0.000 A 
ENDBRANCH   1  10
BRANCH   2  17
ATOM     17  N   UNL     1       4.859   5.277  17.734  0.00  0.00    +0.000 N 
ATOM     18  H   UNL     1       4.685   4.854  16.828  0.00  0.00    +0.000 HD
BRANCH  17  19
ATOM     19  C   UNL     1       5.895   4.773  18.473  0.00  0.00    +0.000 C 
ATOM     20  S   UNL     1       7.359   5.546  18.582  0.00  0.00    +0.000 S 
BRANCH  19  21
ATOM     21  N   UNL     1       5.656   3.603  19.109  0.00  0.00    +0.000 N 
ATOM     22  H   UNL     1       6.007   3.518  20.055  0.00  0.00    +0.000 HD
ATOM     23  H   UNL     1       5.337   2.786  18.604  0.00  0.00    +0.000 HD
ENDBRANCH  19  21
ENDBRANCH  17  19
ENDBRANCH   2  17
TORSDOF 5
ENDMDL
MODEL 6
REMARK VINA RESULT:      -8.0      3.060      5.946
REMARK  Name = 
REMARK  6 active torsions:
REMARK  status: ('A' for Active; 'I' for Inactive)
REMARK    1  A    between atoms: C_1  and  C_2
REMARK    2  A    between atoms: C_6  and  C_7
REMARK    3  A    between atoms: C_7  and  C_13
REMARK    4  A    between atoms: N_8  and  N_9
REMARK    5  A    between atoms: N_9  and  C_10
REMARK    6  A    between atoms: C_10  and  N_11
REMARK                            x       y       z     vdW  Elec       q    Type
REMARK                         _______ _______ _______ _____ _____    ______ ____
ROOT
ATOM      1  C   UNL     1       5.062   4.486  16.846  0.00  0.00    +0.000 C 
ATOM      2  N   UNL     1       5.181   3.722  15.791  0.00  0.00    +0.000 NA
ENDROOT
BRANCH   1   8
ATOM      3  C   UNL     1       1.834   5.928  20.479  0.00  0.00    +0.000 C 
ATOM      4  C   UNL     1       2.181   5.035  19.325  0.00  0.00    +0.000 A 
ATOM      5  C   UNL     1       1.363   3.947  18.994  0.00  0.00    +0.000 A 
ATOM      6  C   UNL     1       1.713   3.094  17.950  0.00  0.00    +0.000 A 
ATOM      7  C   UNL     1       2.901   3.300  17.248  0.00  0.00    +0.000 A 
ATOM      8  C   UNL     1       3.745   4.370  17.575  0.00  0.00    +0.000 A 
ATOM      9  C   UNL     1       3.357   5.258  18.590  0.00  0.00    +0.000 A 
ENDBRANCH   1   8
BRANCH   1  10
ATOM     10  C   UNL     1       6.115   5.411  17.408  0.00  0.00    +0.000 A 
ATOM     11  C   UNL     1       6.254   6.732  16.947  0.00  0.00    +0.000 A 
ATOM     12  C   UNL     1       7.255   7.567  17.464  0.00  0.00    +0.000 A 
ATOM     13  C   UNL     1       8.077   7.115  18.493  0.00  0.00    +0.000 A 
ATOM     14  C   UNL     1       7.912   5.827  18.977  0.00  0.00    +0.000 A 
ATOM     15  F   UNL     1       8.671   5.403  19.998  0.00  0.00    +0.000 F 
ATOM     16  C   UNL     1       6.965   4.965  18.429  0.00  0.00    +0.000 A 
ENDBRANCH   1  10
BRANCH   2  17
ATOM     17  N   UNL     1       6.357   3.602  15.124  0.00  0.00    +0.000 N 
ATOM     18  H   UNL     1       7.107   3.022  15.487  0.00  0.00    +0.000 HD
BRANCH  17  19
ATOM     19  C   UNL     1       6.534   4.154  13.884  0.00  0.00    +0.000 C 
ATOM     20  S   UNL     1       5.883   3.477  12.516  0.00  0.00    +0.000 S 
BRANCH  19  21
ATOM     21  N   UNL     1       7.275   5.284  13.838  0.00  0.00    +0.000 N 
ATOM     22  H   UNL     1       6.840   6.098  13.422  0.00  0.00    +0.000 HD
ATOM     23  H   UNL     1       8.272   5.266  14.012  0.00  0.00    +0.000 HD
ENDBRANCH  19  21
ENDBRANCH  17  19
ENDBRANCH   2  17
TORSDOF 5
ENDMDL
MODEL 7
REMARK VINA RESULT:      -7.9      3.138      6.042
REMARK  Name = 
REMARK  6 active torsions:
REMARK  status: ('A' for Active; 'I' for Inactive)
REMARK    1  A    between atoms: C_1  and  C_2
REMARK    2  A    between atoms: C_6  and  C_7
REMARK    3  A    between atoms: C_7  and  C_13
REMARK    4  A    between atoms: N_8  and  N_9
REMARK    5  A    between atoms: N_9  and  C_10
REMARK    6  A    between atoms: C_10  and  N_11
REMARK                            x       y       z     vdW  Elec       q    Type
REMARK                         _______ _______ _______ _____ _____    ______ ____
ROOT
ATOM      1  C   UNL     1       5.134   4.498  16.938  0.00  0.00    +0.000 C 
ATOM      2  N   UNL     1       5.265   3.768  15.861  0.00  0.00    +0.000 NA
ENDROOT
BRANCH   1   8
ATOM      3  C   UNL     1       1.824   5.913  20.508  0.00  0.00    +0.000 C 
ATOM      4  C   UNL     1       2.190   5.042  19.343  0.00  0.00    +0.000 A 
ATOM      5  C   UNL     1       1.363   3.977  18.962  0.00  0.00    +0.000 A 
ATOM      6  C   UNL     1       1.729   3.143  17.909  0.00  0.00    +0.000 A 
ATOM      7  C   UNL     1       2.940   3.343  17.247  0.00  0.00    +0.000 A 
ATOM      8  C   UNL     1       3.793   4.389  17.625  0.00  0.00    +0.000 A 
ATOM      9  C   UNL     1       3.391   5.260  18.649  0.00  0.00    +0.000 A 
ENDBRANCH   1   8
BRANCH   1  10
ATOM     10  C   UNL     1       6.191   5.377  17.562  0.00  0.00    +0.000 A 
ATOM     11  C   UNL     1       7.026   4.905  18.588  0.00  0.00    +0.000 A 
ATOM     12  C   UNL     1       7.985   5.745  19.174  0.00  0.00    +0.000 A 
ATOM     13  C   UNL     1       8.165   7.038  18.690  0.00  0.00    +0.000 A 
ATOM     14  C   UNL     1       7.370   7.491  17.649  0.00  0.00    +0.000 A 
ATOM     15  F   UNL     1       7.572   8.719  17.150  0.00  0.00    +0.000 F 
ATOM     16  C   UNL     1       6.371   6.689  17.101  0.00  0.00    +0.000 A 
ENDBRANCH   1  10
BRANCH   2  17
ATOM     17  N   UNL     1       6.457   3.642  15.224  0.00  0.00    +0.000 N 
ATOM     18  H   UNL     1       7.186   3.039  15.592  0.00  0.00    +0.000 HD
BRANCH  17  19
ATOM     19  C   UNL     1       6.679   4.221  14.003  0.00  0.00    +0.000 C 
ATOM     20  S   UNL     1       6.042   3.599  12.603  0.00  0.00    +0.000 S 
BRANCH  19  21
ATOM     21  N   UNL     1       7.452   5.331  14.005  0.00  0.00    +0.000 N 
ATOM     22  H   UNL     1       6.976   6.218  13.906  0.00  0.00    +0.000 HD
ATOM     23  H   UNL     1       8.456   5.271  13.897  0.00  0.00    +0.000 HD
ENDBRANCH  19  21
ENDBRANCH  17  19
ENDBRANCH   2  17
TORSDOF 5
ENDMDL
MODEL 8
REMARK VINA RESULT:      -7.8      3.088      6.096
REMARK  Name = 
REMARK  6 active torsions:
REMARK  status: ('A' for Active; 'I' for Inactive)
REMARK    1  A    between atoms: C_1  and  C_2
REMARK    2  A    between atoms: C_6  and  C_7
REMARK    3  A    between atoms: C_7  and  C_13
REMARK    4  A    between atoms: N_8  and  N_9
REMARK    5  A    between atoms: N_9  and  C_10
REMARK    6  A    between atoms: C_10  and  N_11
REMARK                            x       y       z     vdW  Elec       q    Type
REMARK                         _______ _______ _______ _____ _____    ______ ____
ROOT
ATOM      1  C   UNL     1       3.511   6.142  17.930  0.00  0.00    +0.000 C 
ATOM      2  N   UNL     1       4.475   6.431  17.095  0.00  0.00    +0.000 NA
ENDROOT
BRANCH   1   8
ATOM      3  C   UNL     1       0.738   8.444  21.495  0.00  0.00    +0.000 C 
ATOM      4  C   UNL     1       1.388   8.453  20.143  0.00  0.00    +0.000 A 
ATOM      5  C   UNL     1       1.154   9.503  19.246  0.00  0.00    +0.000 A 
ATOM      6  C   UNL     1       1.724   9.485  17.976  0.00  0.00    +0.000 A 
ATOM      7  C   UNL     1       2.506   8.401  17.576  0.00  0.00    +0.000 A 
ATOM      8  C   UNL     1       2.737   7.330  18.450  0.00  0.00    +0.000 A 
ATOM      9  C   UNL     1       2.207   7.382  19.748  0.00  0.00    +0.000 A 
ENDBRANCH   1   8
BRANCH   1  10
ATOM     10  C   UNL     1       3.086   4.761  18.368  0.00  0.00    +0.000 A 
ATOM     11  C   UNL     1       1.947   4.138  17.830  0.00  0.00    +0.000 A 
ATOM     12  C   UNL     1       1.554   2.865  18.270  0.00  0.00    +0.000 A 
ATOM     13  C   UNL     1       2.334   2.176  19.195  0.00  0.00    +0.000 A 
ATOM     14  C   UNL     1       3.481   2.773  19.695  0.00  0.00    +0.000 A 
ATOM     15  F   UNL     1       4.259   2.095  20.551  0.00  0.00    +0.000 F 
ATOM     16  C   UNL     1       3.848   4.062  19.315  0.00  0.00    +0.000 A 
ENDBRANCH   1  10
BRANCH   2  17
ATOM     17  N   UNL     1       5.156   5.465  16.427  0.00  0.00    +0.000 N 
ATOM     18  H   UNL     1       4.679   4.833  15.791  0.00  0.00    +0.000 HD
BRANCH  17  19
ATOM     19  C   UNL     1       6.521   5.383  16.487  0.00  0.00    +0.000 C 
ATOM     20  S   UNL     1       7.320   4.985  17.886  0.00  0.00    +0.000 S 
BRANCH  19  21
ATOM     21  N   UNL     1       7.183   5.649  15.337  0.00  0.00    +0.000 N 
ATOM     22  H   UNL     1       7.499   4.852  14.799  0.00  0.00    +0.000 HD
ATOM     23  H   UNL     1       7.529   6.578  15.134  0.00  0.00    +0.000 HD
ENDBRANCH  19  21
ENDBRANCH  17  19
ENDBRANCH   2  17
TORSDOF 5
ENDMDL
MODEL 9
REMARK VINA RESULT:      -7.8      3.615      4.880
REMARK  Name = 
REMARK  6 active torsions:
REMARK  status: ('A' for Active; 'I' for Inactive)
REMARK    1  A    between atoms: C_1  and  C_2
REMARK    2  A    between atoms: C_6  and  C_7
REMARK    3  A    between atoms: C_7  and  C_13
REMARK    4  A    between atoms: N_8  and  N_9
REMARK    5  A    between atoms: N_9  and  C_10
REMARK    6  A    between atoms: C_10  and  N_11
REMARK                            x       y       z     vdW  Elec       q    Type
REMARK                         _______ _______ _______ _____ _____    ______ ____
ROOT
ATOM      1  C   UNL     1       3.382   5.929  18.449  0.00  0.00    +0.000 C 
ATOM      2  N   UNL     1       3.068   7.192  18.322  0.00  0.00    +0.000 NA
ENDROOT
BRANCH   1   8
ATOM      3  C   UNL     1       6.038   4.149  14.515  0.00  0.00    +0.000 C 
ATOM      4  C   UNL     1       5.982   4.657  15.925  0.00  0.00    +0.000 A 
ATOM      5  C   UNL     1       7.117   4.611  16.745  0.00  0.00    +0.000 A 
ATOM      6  C   UNL     1       7.048   5.041  18.068  0.00  0.00    +0.000 A 
ATOM      7  C   UNL     1       5.837   5.490  18.595  0.00  0.00    +0.000 A 
ATOM      8  C   UNL     1       4.684   5.525  17.799  0.00  0.00    +0.000 A 
ATOM      9  C   UNL     1       4.774   5.145  16.451  0.00  0.00    +0.000 A 
ENDBRANCH   1   8
BRANCH   1  10
ATOM     10  C   UNL     1       2.604   4.881  19.208  0.00  0.00    +0.000 A 
ATOM     11  C   UNL     1       2.653   4.802  20.610  0.00  0.00    +0.000 A 
ATOM     12  C   UNL     1       1.943   3.805  21.295  0.00  0.00    +0.000 A 
ATOM     13  C   UNL     1       1.123   2.926  20.592  0.00  0.00    +0.000 A 
ATOM     14  C   UNL     1       1.041   3.031  19.212  0.00  0.00    +0.000 A 
ATOM     15  F   UNL     1       0.218   2.217  18.536  0.00  0.00    +0.000 F 
ATOM     16  C   UNL     1       1.790   3.975  18.513  0.00  0.00    +0.000 A 
ENDBRANCH   1  10
BRANCH   2  17
ATOM     17  N   UNL     1       2.012   7.736  18.980  0.00  0.00    +0.000 N 
ATOM     18  H   UNL     1       1.546   7.232  19.728  0.00  0.00    +0.000 HD
BRANCH  17  19
ATOM     19  C   UNL     1       1.614   9.025  18.747  0.00  0.00    +0.000 C 
ATOM     20  S   UNL     1       0.730   9.889  19.853  0.00  0.00    +0.000 S 
BRANCH  19  21
ATOM     21  N   UNL     1       1.980   9.553  17.556  0.00  0.00    +0.000 N 
ATOM     22  H   UNL     1       2.187  10.544  17.541  0.00  0.00    +0.000 HD
ATOM     23  H   UNL     1       1.851   9.041  16.693  0.00  0.00    +0.000 HD
ENDBRANCH  19  21
ENDBRANCH  17  19
ENDBRANCH   2  17
TORSDOF 5
ENDMDL
