MODEL 1
REMARK VINA RESULT:      -7.9      0.000      0.000
REMARK  Name = 
REMARK  6 active torsions:
REMARK  status: ('A' for Active; 'I' for Inactive)
REMARK    1  A    between atoms: C_1  and  C_2
REMARK    2  A    between atoms: C_2  and  C_3
REMARK    3  A    between atoms: C_3  and  C_4
REMARK    4  A    between atoms: C_4  and  N_5
REMARK    5  A    between atoms: C_12  and  C_13
REMARK    6  A    between atoms: N_15  and  C_16
REMARK                            x       y       z     vdW  Elec       q    Type
REMARK                         _______ _______ _______ _____ _____    ______ ____
ROOT
ATOM      1  N   UNL     1       6.195   6.376  18.130  0.00  0.00    +0.000 N 
ATOM      2  C   UNL     1       5.113   7.266  17.715  0.00  0.00    +0.000 C 
ATOM      3  C   UNL     1       3.746   6.582  17.561  0.00  0.00    +0.000 C 
ATOM      4  C   UNL     1       3.455   5.578  18.687  0.00  0.00    +0.000 C 
ATOM      5  C   UNL     1       2.264   4.667  18.422  0.00  0.00    +0.000 C 
ATOM      6  C   UNL     1       2.359   3.326  18.327  0.00  0.00    +0.000 C 
ATOM      7  C   UNL     1       3.674   2.579  18.340  0.00  0.00    +0.000 C 
ATOM      8  C   UNL     1       4.862   3.521  18.061  0.00  0.00    +0.000 C 
ATOM      9  C   UNL     1       4.679   4.723  19.020  0.00  0.00    +0.000 C 
ATOM     10  C   UNL     1       5.963   5.488  19.160  0.00  0.00    +0.000 C 
ATOM     11  O   UNL     1       6.803   5.175  19.999  0.00  0.00    +0.000 OA
ENDROOT
BRANCH   8  12
ATOM     12  C   UNL     1       4.882   3.808  16.536  0.00  0.00    +0.000 C 
ATOM     13  O   UNL     1       3.843   3.818  15.878  0.00  0.00    +0.000 OA
ATOM     14  N   UNL     1       6.136   3.992  15.983  0.00  0.00    +0.000 N 
ATOM     15  H   UNL     1       6.931   3.929  16.606  0.00  0.00    +0.000 HD
BRANCH  14  16
ATOM     16  C   UNL     1       6.427   4.114  14.597  0.00  0.00    +0.000 A 
ATOM     17  C   UNL     1       5.862   3.307  13.600  0.00  0.00    +0.000 A 
ATOM     18  C   UNL     1       6.251   3.439  12.258  0.00  0.00    +0.000 A 
ATOM     19  C   UNL     1       7.202   4.382  11.896  0.00  0.00    +0.000 A 
ATOM     20  C   UNL     1       7.753   5.209  12.872  0.00  0.00    +0.000 A 
ATOM     21  C   UNL     1       7.361   5.081  14.212  0.00  0.00    +0.000 A 
ENDBRANCH  14  16
ENDBRANCH   8  12
BRANCH   1  22
ATOM     22  C   UNL     1       7.581   6.715  17.825  0.00  0.00    +0.000 C 
BRANCH  22  23
ATOM     23  C   UNL     1       7.855   8.182  17.511  0.00  0.00    +0.000 C 
BRANCH  23  25
ATOM     24  C   UNL     1       9.008  10.327  18.332  0.00  0.00    +0.000 C 
ATOM     25  C   UNL     1       8.623   8.885  18.640  0.00  0.00    +0.000 C 
ENDBRANCH  23  25
ENDBRANCH  22  23
ENDBRANCH   1  22
TORSDOF 5
ENDMDL
MODEL 2
REMARK VINA RESULT:      -7.7      2.501      5.187
REMARK  Name = 
REMARK  6 active torsions:
REMARK  status: ('A' for Active; 'I' for Inactive)
REMARK    1  A    between atoms: C_1  and  C_2
REMARK    2  A    between atoms: C_2  and  C_3
REMARK    3  A    between atoms: C_3  and  C_4
REMARK    4  A    between atoms: C_4  and  N_5
REMARK    5  A    between atoms: C_12  and  C_13
REMARK    6  A    between atoms: N_15  and  C_16
REMARK                            x       y       z     vdW  Elec       q    Type
REMARK                         _______ _______ _______ _____ _____    ______ ____
ROOT
ATOM      1  N   UNL     1       5.753   5.697  17.848  0.00  0.00    +0.000 N 
ATOM      2  C   UNL     1       6.022   5.349  19.241  0.00  0.00    +0.000 C 
ATOM      3  C   UNL     1       5.086   4.281  19.826  0.00  0.00    +0.000 C 
ATOM      4  C   UNL     1       4.809   3.133  18.843  0.00  0.00    +0.000 C 
ATOM      5  C   UNL     1       3.667   2.216  19.257  0.00  0.00    +0.000 C 
ATOM      6  C   UNL     1       2.542   2.053  18.532  0.00  0.00    +0.000 C 
ATOM      7  C   UNL     1       2.224   2.859  17.293  0.00  0.00    +0.000 C 
ATOM      8  C   UNL     1       3.099   4.124  17.201  0.00  0.00    +0.000 C 
ATOM      9  C   UNL     1       4.555   3.645  17.424  0.00  0.00    +0.000 C 
ATOM     10  C   UNL     1       5.531   4.679  16.943  0.00  0.00    +0.000 C 
ATOM     11  O   UNL     1       5.908   4.705  15.775  0.00  0.00    +0.000 OA
ENDROOT
BRANCH   8  12
ATOM     12  C   UNL     1       2.519   5.166  18.195  0.00  0.00    +0.000 C 
ATOM     13  O   UNL     1       1.840   4.815  19.159  0.00  0.00    +0.000 OA
ATOM     14  N   UNL     1       2.775   6.489  17.885  0.00  0.00    +0.000 N 
ATOM     15  H   UNL     1       3.314   6.672  17.049  0.00  0.00    +0.000 HD
BRANCH  14  16
ATOM     16  C   UNL     1       2.227   7.622  18.546  0.00  0.00    +0.000 A 
ATOM     17  C   UNL     1       1.972   7.683  19.923  0.00  0.00    +0.000 A 
ATOM     18  C   UNL     1       1.365   8.811  20.496  0.00  0.00    +0.000 A 
ATOM     19  C   UNL     1       1.011   9.892  19.702  0.00  0.00    +0.000 A 
ATOM     20  C   UNL     1       1.283   9.857  18.336  0.00  0.00    +0.000 A 
ATOM     21  C   UNL     1       1.895   8.733  17.765  0.00  0.00    +0.000 A 
ENDBRANCH  14  16
ENDBRANCH   8  12
BRANCH   1  22
ATOM     22  C   UNL     1       6.164   6.995  17.322  0.00  0.00    +0.000 C 
BRANCH  22  23
ATOM     23  C   UNL     1       7.604   7.405  17.613  0.00  0.00    +0.000 C 
BRANCH  23  25
ATOM     24  C   UNL     1       8.789   9.423  18.676  0.00  0.00    +0.000 C 
ATOM     25  C   UNL     1       7.780   8.930  17.645  0.00  0.00    +0.000 C 
ENDBRANCH  23  25
ENDBRANCH  22  23
ENDBRANCH   1  22
TORSDOF 5
ENDMDL
MODEL 3
REMARK VINA RESULT:      -7.6      0.222      1.004
REMARK  Name = 
REMARK  6 active torsions:
REMARK  status: ('A' for Active; 'I' for Inactive)
REMARK    1  A    between atoms: C_1  and  C_2
REMARK    2  A    between atoms: C_2  and  C_3
REMARK    3  A    between atoms: C_3  and  C_4
REMARK    4  A    between atoms: C_4  and  N_5
REMARK    5  A    between atoms: C_12  and  C_13
REMARK    6  A    between atoms: N_15  and  C_16
REMARK                            x       y       z     vdW  Elec       q    Type
REMARK                         _______ _______ _______ _____ _____    ______ ____
ROOT
ATOM      1  N   UNL     1       6.188   6.426  18.092  0.00  0.00    +0.000 N 
ATOM      2  C   UNL     1       5.143   7.336  17.630  0.00  0.00    +0.000 C 
ATOM      3  C   UNL     1       3.786   6.669  17.363  0.00  0.00    +0.000 C 
ATOM      4  C   UNL     1       3.411   5.636  18.437  0.00  0.00    +0.000 C 
ATOM      5  C   UNL     1       2.235   4.744  18.065  0.00  0.00    +0.000 C 
ATOM      6  C   UNL     1       2.327   3.405  17.938  0.00  0.00    +0.000 C 
ATOM      7  C   UNL     1       3.634   2.647  18.020  0.00  0.00    +0.000 C 
ATOM      8  C   UNL     1       4.844   3.585  17.850  0.00  0.00    +0.000 C 
ATOM      9  C   UNL     1       4.604   4.762  18.829  0.00  0.00    +0.000 C 
ATOM     10  C   UNL     1       5.880   5.511  19.078  0.00  0.00    +0.000 C 
ATOM     11  O   UNL     1       6.658   5.168  19.963  0.00  0.00    +0.000 OA
ENDROOT
BRANCH   8  12
ATOM     12  C   UNL     1       4.970   3.916  16.339  0.00  0.00    +0.000 C 
ATOM     13  O   UNL     1       3.977   3.973  15.616  0.00  0.00    +0.000 OA
ATOM     14  N   UNL     1       6.262   4.079  15.874  0.00  0.00    +0.000 N 
ATOM     15  H   UNL     1       7.013   3.976  16.544  0.00  0.00    +0.000 HD
BRANCH  14  16
ATOM     16  C   UNL     1       6.646   4.232  14.513  0.00  0.00    +0.000 A 
ATOM     17  C   UNL     1       7.528   5.218  14.050  0.00  0.00    +0.000 A 
ATOM     18  C   UNL     1       7.807   5.353  12.682  0.00  0.00    +0.000 A 
ATOM     19  C   UNL     1       7.213   4.501  11.761  0.00  0.00    +0.000 A 
ATOM     20  C   UNL     1       6.355   3.500  12.209  0.00  0.00    +0.000 A 
ATOM     21  C   UNL     1       6.081   3.361  13.577  0.00  0.00    +0.000 A 
ENDBRANCH  14  16
ENDBRANCH   8  12
BRANCH   1  22
ATOM     22  C   UNL     1       7.594   6.761  17.892  0.00  0.00    +0.000 C 
BRANCH  22  23
ATOM     23  C   UNL     1       7.888   8.213  17.531  0.00  0.00    +0.000 C 
BRANCH  23  25
ATOM     24  C   UNL     1       9.014  10.389  18.310  0.00  0.00    +0.000 C 
ATOM     25  C   UNL     1       8.641   8.951  18.649  0.00  0.00    +0.000 C 
ENDBRANCH  23  25
ENDBRANCH  22  23
ENDBRANCH   1  22
TORSDOF 5
ENDMDL
MODEL 4
REMARK VINA RESULT:      -7.5      2.844      6.652
REMARK  Name = 
REMARK  6 active torsions:
REMARK  status: ('A' for Active; 'I' for Inactive)
REMARK    1  A    between atoms: C_1  and  C_2
REMARK    2  A    between atoms: C_2  and  C_3
REMARK    3  A    between atoms: C_3  and  C_4
REMARK    4  A    between atoms: C_4  and  N_5
REMARK    5  A    between atoms: C_12  and  C_13
REMARK    6  A    between atoms: N_15  and  C_16
REMARK                            x       y       z     vdW  Elec       q    Type
REMARK                         _______ _______ _______ _____ _____    ______ ____
ROOT
ATOM      1  N   UNL     1       3.042   3.238  18.213  0.00  0.00    +0.000 N 
ATOM      2  C   UNL     1       3.111   3.394  16.762  0.00  0.00    +0.000 C 
ATOM      3  C   UNL     1       4.307   4.220  16.264  0.00  0.00    +0.000 C 
ATOM      4  C   UNL     1       5.608   3.889  17.010  0.00  0.00    +0.000 C 
ATOM      5  C   UNL     1       6.740   4.877  16.765  0.00  0.00    +0.000 C 
ATOM      6  C   UNL     1       7.303   5.622  17.737  0.00  0.00    +0.000 C 
ATOM      7  C   UNL     1       6.790   5.661  19.160  0.00  0.00    +0.000 C 
ATOM      8  C   UNL     1       5.357   5.103  19.261  0.00  0.00    +0.000 C 
ATOM      9  C   UNL     1       5.382   3.745  18.516  0.00  0.00    +0.000 C 
ATOM     10  C   UNL     1       4.194   2.911  18.898  0.00  0.00    +0.000 C 
ATOM     11  O   UNL     1       4.223   2.171  19.878  0.00  0.00    +0.000 OA
ENDROOT
BRANCH   8  12
ATOM     12  C   UNL     1       4.391   6.199  18.736  0.00  0.00    +0.000 C 
ATOM     13  O   UNL     1       4.622   6.800  17.688  0.00  0.00    +0.000 OA
ATOM     14  N   UNL     1       3.308   6.475  19.550  0.00  0.00    +0.000 N 
ATOM     15  H   UNL     1       3.229   5.948  20.410  0.00  0.00    +0.000 HD
BRANCH  14  16
ATOM     16  C   UNL     1       2.375   7.532  19.368  0.00  0.00    +0.000 A 
ATOM     17  C   UNL     1       2.152   8.183  18.147  0.00  0.00    +0.000 A 
ATOM     18  C   UNL     1       1.265   9.267  18.058  0.00  0.00    +0.000 A 
ATOM     19  C   UNL     1       0.587   9.708  19.185  0.00  0.00    +0.000 A 
ATOM     20  C   UNL     1       0.778   9.054  20.400  0.00  0.00    +0.000 A 
ATOM     21  C   UNL     1       1.660   7.968  20.488  0.00  0.00    +0.000 A 
ENDBRANCH  14  16
ENDBRANCH   8  12
BRANCH   1  22
ATOM     22  C   UNL     1       1.764   2.961  18.861  0.00  0.00    +0.000 C 
BRANCH  22  23
ATOM     23  C   UNL     1       1.199   4.084  19.724  0.00  0.00    +0.000 C 
BRANCH  23  25
ATOM     24  C   UNL     1       1.505   2.581  21.785  0.00  0.00    +0.000 C 
ATOM     25  C   UNL     1       1.646   3.976  21.189  0.00  0.00    +0.000 C 
ENDBRANCH  23  25
ENDBRANCH  22  23
ENDBRANCH   1  22
TORSDOF 5
ENDMDL
MODEL 5
REMARK VINA RESULT:      -7.1      1.754      4.792
REMARK  Name = 
REMARK  6 active torsions:
REMARK  status: ('A' for Active; 'I' for Inactive)
REMARK    1  A    between atoms: C_1  and  C_2
REMARK    2  A    between atoms: C_2  and  C_3
REMARK    3  A    between atoms: C_3  and  C_4
REMARK    4  A    between atoms: C_4  and  N_5
REMARK    5  A    between atoms: C_12  and  C_13
REMARK    6  A    between atoms: N_15  and  C_16
REMARK                            x       y       z     vdW  Elec       q    Type
REMARK                         _______ _______ _______ _____ _____    ______ ____
ROOT
ATOM      1  N   UNL     1       3.934   4.582  17.951  0.00  0.00    +0.000 N 
ATOM      2  C   UNL     1       4.759   3.575  18.614  0.00  0.00    +0.000 C 
ATOM      3  C   UNL     1       6.219   3.993  18.844  0.00  0.00    +0.000 C 
ATOM      4  C   UNL     1       6.350   5.449  19.317  0.00  0.00    +0.000 C 
ATOM      5  C   UNL     1       7.770   5.996  19.271  0.00  0.00    +0.000 C 
ATOM      6  C   UNL     1       8.141   7.044  18.507  0.00  0.00    +0.000 C 
ATOM      7  C   UNL     1       7.223   7.713  17.508  0.00  0.00    +0.000 C 
ATOM      8  C   UNL     1       6.005   6.829  17.177  0.00  0.00    +0.000 C 
ATOM      9  C   UNL     1       5.423   6.387  18.543  0.00  0.00    +0.000 C 
ATOM     10  C   UNL     1       4.016   5.891  18.382  0.00  0.00    +0.000 C 
ATOM     11  O   UNL     1       3.060   6.660  18.425  0.00  0.00    +0.000 OA
ENDROOT
BRANCH   8  12
ATOM     12  C   UNL     1       6.485   5.720  16.202  0.00  0.00    +0.000 C 
ATOM     13  O   UNL     1       7.469   5.030  16.460  0.00  0.00    +0.000 OA
ATOM     14  N   UNL     1       5.766   5.614  15.025  0.00  0.00    +0.000 N 
ATOM     15  H   UNL     1       4.995   6.254  14.894  0.00  0.00    +0.000 HD
BRANCH  14  16
ATOM     16  C   UNL     1       6.100   4.790  13.916  0.00  0.00    +0.000 A 
ATOM     17  C   UNL     1       7.257   4.945  13.139  0.00  0.00    +0.000 A 
ATOM     18  C   UNL     1       7.486   4.137  12.015  0.00  0.00    +0.000 A 
ATOM     19  C   UNL     1       6.566   3.162  11.657  0.00  0.00    +0.000 A 
ATOM     20  C   UNL     1       5.425   2.978  12.434  0.00  0.00    +0.000 A 
ATOM     21  C   UNL     1       5.199   3.781  13.561  0.00  0.00    +0.000 A 
ENDBRANCH  14  16
ENDBRANCH   8  12
BRANCH   1  22
ATOM     22  C   UNL     1       2.741   4.184  17.211  0.00  0.00    +0.000 C 
BRANCH  22  23
ATOM     23  C   UNL     1       1.901   3.081  17.846  0.00  0.00    +0.000 C 
BRANCH  23  25
ATOM     24  C   UNL     1       1.430   2.944  20.369  0.00  0.00    +0.000 C 
ATOM     25  C   UNL     1       1.074   3.590  19.036  0.00  0.00    +0.000 C 
ENDBRANCH  23  25
ENDBRANCH  22  23
ENDBRANCH   1  22
TORSDOF 5
ENDMDL
MODEL 6
REMARK VINA RESULT:      -7.1      2.558      3.960
REMARK  Name = 
REMARK  6 active torsions:
REMARK  status: ('A' for Active; 'I' for Inactive)
REMARK    1  A    between atoms: C_1  and  C_2
REMARK    2  A    between atoms: C_2  and  C_3
REMARK    3  A    between atoms: C_3  and  C_4
REMARK    4  A    between atoms: C_4  and  N_5
REMARK    5  A    between atoms: C_12  and  C_13
REMARK    6  A    between atoms: N_15  and  C_16
REMARK                            x       y       z     vdW  Elec       q    Type
REMARK                         _______ _______ _______ _____ _____    ______ ____
ROOT
ATOM      1  N   UNL     1       2.067   6.038  19.157  0.00  0.00    +0.000 N 
ATOM      2  C   UNL     1       1.540   5.689  17.841  0.00  0.00    +0.000 C 
ATOM      3  C   UNL     1       1.987   4.316  17.317  0.00  0.00    +0.000 C 
ATOM      4  C   UNL     1       1.969   3.232  18.405  0.00  0.00    +0.000 C 
ATOM      5  C   UNL     1       2.678   1.942  18.016  0.00  0.00    +0.000 C 
ATOM      6  C   UNL     1       3.756   1.459  18.666  0.00  0.00    +0.000 C 
ATOM      7  C   UNL     1       4.466   2.207  19.773  0.00  0.00    +0.000 C 
ATOM      8  C   UNL     1       4.088   3.700  19.781  0.00  0.00    +0.000 C 
ATOM      9  C   UNL     1       2.540   3.742  19.729  0.00  0.00    +0.000 C 
ATOM     10  C   UNL     1       2.033   5.088  20.157  0.00  0.00    +0.000 C 
ATOM     11  O   UNL     1       1.822   5.343  21.340  0.00  0.00    +0.000 OA
ENDROOT
BRANCH   8  12
ATOM     12  C   UNL     1       4.869   4.386  18.628  0.00  0.00    +0.000 C 
ATOM     13  O   UNL     1       5.015   5.607  18.598  0.00  0.00    +0.000 OA
ATOM     14  N   UNL     1       5.326   3.539  17.635  0.00  0.00    +0.000 N 
ATOM     15  H   UNL     1       5.122   2.554  17.737  0.00  0.00    +0.000 HD
BRANCH  14  16
ATOM     16  C   UNL     1       5.927   3.938  16.410  0.00  0.00    +0.000 A 
ATOM     17  C   UNL     1       7.170   4.580  16.314  0.00  0.00    +0.000 A 
ATOM     18  C   UNL     1       7.668   5.007  15.074  0.00  0.00    +0.000 A 
ATOM     19  C   UNL     1       6.935   4.793  13.916  0.00  0.00    +0.000 A 
ATOM     20  C   UNL     1       5.711   4.133  13.992  0.00  0.00    +0.000 A 
ATOM     21  C   UNL     1       5.216   3.700  15.230  0.00  0.00    +0.000 A 
ENDBRANCH  14  16
ENDBRANCH   8  12
BRANCH   1  22
ATOM     22  C   UNL     1       2.181   7.438  19.555  0.00  0.00    +0.000 C 
BRANCH  22  23
ATOM     23  C   UNL     1       2.383   8.438  18.421  0.00  0.00    +0.000 C 
BRANCH  23  25
ATOM     24  C   UNL     1       0.548   9.795  19.604  0.00  0.00    +0.000 C 
ATOM     25  C   UNL     1       1.199   9.407  18.282  0.00  0.00    +0.000 C 
ENDBRANCH  23  25
ENDBRANCH  22  23
ENDBRANCH   1  22
TORSDOF 5
ENDMDL
MODEL 7
REMARK VINA RESULT:      -7.0      2.523      5.198
REMARK  Name = 
REMARK  6 active torsions:
REMARK  status: ('A' for Active; 'I' for Inactive)
REMARK    1  A    between atoms: C_1  and  C_2
REMARK    2  A    between atoms: C_2  and  C_3
REMARK    3  A    between atoms: C_3  and  C_4
REMARK    4  A    between atoms: C_4  and  N_5
REMARK    5  A    between atoms: C_12  and  C_13
REMARK    6  A    between atoms: N_15  and  C_16
REMARK                            x       y       z     vdW  Elec       q    Type
REMARK                         _______ _______ _______ _____ _____    ______ ____
ROOT
ATOM      1  N   UNL     1       7.189   6.020  17.789  0.00  0.00    +0.000 N 
ATOM      2  C   UNL     1       7.054   5.873  19.236  0.00  0.00    +0.000 C 
ATOM      3  C   UNL     1       5.772   5.159  19.690  0.00  0.00    +0.000 C 
ATOM      4  C   UNL     1       5.426   3.947  18.813  0.00  0.00    +0.000 C 
ATOM      5  C   UNL     1       4.025   3.393  19.034  0.00  0.00    +0.000 C 
ATOM      6  C   UNL     1       3.079   3.358  18.074  0.00  0.00    +0.000 C 
ATOM      7  C   UNL     1       3.253   3.982  16.707  0.00  0.00    +0.000 C 
ATOM      8  C   UNL     1       4.422   4.985  16.688  0.00  0.00    +0.000 C 
ATOM      9  C   UNL     1       5.623   4.243  17.326  0.00  0.00    +0.000 C 
ATOM     10  C   UNL     1       6.911   4.933  16.985  0.00  0.00    +0.000 C 
ATOM     11  O   UNL     1       7.524   4.668  15.954  0.00  0.00    +0.000 OA
ENDROOT
BRANCH   8  12
ATOM     12  C   UNL     1       3.930   6.289  17.374  0.00  0.00    +0.000 C 
ATOM     13  O   UNL     1       4.594   7.322  17.323  0.00  0.00    +0.000 OA
ATOM     14  N   UNL     1       2.744   6.179  18.075  0.00  0.00    +0.000 N 
ATOM     15  H   UNL     1       2.293   5.273  18.084  0.00  0.00    +0.000 HD
BRANCH  14  16
ATOM     16  C   UNL     1       2.172   7.179  18.908  0.00  0.00    +0.000 A 
ATOM     17  C   UNL     1       1.943   7.022  20.282  0.00  0.00    +0.000 A 
ATOM     18  C   UNL     1       1.309   8.028  21.028  0.00  0.00    +0.000 A 
ATOM     19  C   UNL     1       0.903   9.203  20.412  0.00  0.00    +0.000 A 
ATOM     20  C   UNL     1       1.148   9.384  19.053  0.00  0.00    +0.000 A 
ATOM     21  C   UNL     1       1.786   8.381  18.309  0.00  0.00    +0.000 A 
ENDBRANCH  14  16
ENDBRANCH   8  12
BRANCH   1  22
ATOM     22  C   UNL     1       8.023   7.081  17.233  0.00  0.00    +0.000 C 
BRANCH  22  23
ATOM     23  C   UNL     1       7.669   8.500  17.661  0.00  0.00    +0.000 C 
BRANCH  23  25
ATOM     24  C   UNL     1       9.040  10.578  18.299  0.00  0.00    +0.000 C 
ATOM     25  C   UNL     1       8.732   9.113  18.584  0.00  0.00    +0.000 C 
ENDBRANCH  23  25
ENDBRANCH  22  23
ENDBRANCH   1  22
TORSDOF 5
ENDMDL
MODEL 8
REMARK VINA RESULT:      -7.0      1.858      5.920
REMARK  Name = 
REMARK  6 active torsions:
REMARK  status: ('A' for Active; 'I' for Inactive)
REMARK    1  A    between atoms: C_1  and  C_2
REMARK    2  A    between atoms: C_2  and  C_3
REMARK    3  A    between atoms: C_3  and  C_4
REMARK    4  A    between atoms: C_4  and  N_5
REMARK    5  A    between atoms: C_12  and  C_13
REMARK    6  A    between atoms: N_15  and  C_16
REMARK                            x       y       z     vdW  Elec       q    Type
REMARK                         _______ _______ _______ _____ _____    ______ ____
ROOT
ATOM      1  N   UNL     1       5.722   5.152  15.076  0.00  0.00    +0.000 N 
ATOM      2  C   UNL     1       5.128   6.463  15.324  0.00  0.00    +0.000 C 
ATOM      3  C   UNL     1       5.583   7.135  16.628  0.00  0.00    +0.000 C 
ATOM      4  C   UNL     1       7.088   6.971  16.886  0.00  0.00    +0.000 C 
ATOM      5  C   UNL     1       7.528   7.354  18.292  0.00  0.00    +0.000 C 
ATOM      6  C   UNL     1       8.091   6.487  19.159  0.00  0.00    +0.000 C 
ATOM      7  C   UNL     1       8.230   5.006  18.884  0.00  0.00    +0.000 C 
ATOM      8  C   UNL     1       7.313   4.555  17.731  0.00  0.00    +0.000 C 
ATOM      9  C   UNL     1       7.570   5.553  16.575  0.00  0.00    +0.000 C 
ATOM     10  C   UNL     1       7.078   4.992  15.273  0.00  0.00    +0.000 C 
ATOM     11  O   UNL     1       7.793   4.276  14.577  0.00  0.00    +0.000 OA
ENDROOT
BRANCH   8  12
ATOM     12  C   UNL     1       5.869   4.456  18.294  0.00  0.00    +0.000 C 
ATOM     13  O   UNL     1       5.543   5.059  19.315  0.00  0.00    +0.000 OA
ATOM     14  N   UNL     1       5.019   3.612  17.603  0.00  0.00    +0.000 N 
ATOM     15  H   UNL     1       5.397   3.134  16.795  0.00  0.00    +0.000 HD
BRANCH  14  16
ATOM     16  C   UNL     1       3.709   3.236  18.005  0.00  0.00    +0.000 A 
ATOM     17  C   UNL     1       3.407   2.058  18.703  0.00  0.00    +0.000 A 
ATOM     18  C   UNL     1       2.079   1.718  19.005  0.00  0.00    +0.000 A 
ATOM     19  C   UNL     1       1.040   2.553  18.620  0.00  0.00    +0.000 A 
ATOM     20  C   UNL     1       1.326   3.739  17.949  0.00  0.00    +0.000 A 
ATOM     21  C   UNL     1       2.653   4.082  17.652  0.00  0.00    +0.000 A 
ENDBRANCH  14  16
ENDBRANCH   8  12
BRANCH   1  22
ATOM     22  C   UNL     1       5.043   4.189  14.215  0.00  0.00    +0.000 C 
BRANCH  22  23
ATOM     23  C   UNL     1       5.627   4.018  12.817  0.00  0.00    +0.000 C 
BRANCH  23  25
ATOM     24  C   UNL     1       3.829   3.424  11.079  0.00  0.00    +0.000 C 
ATOM     25  C   UNL     1       4.915   2.916  12.019  0.00  0.00    +0.000 C 
ENDBRANCH  23  25
ENDBRANCH  22  23
ENDBRANCH   1  22
TORSDOF 5
ENDMDL
MODEL 9
REMARK VINA RESULT:      -6.9      2.558      3.918
REMARK  Name = 
REMARK  6 active torsions:
REMARK  status: ('A' for Active; 'I' for Inactive)
REMARK    1  A    between atoms: C_1  and  C_2
REMARK    2  A    between atoms: C_2  and  C_3
REMARK    3  A    between atoms: C_3  and  C_4
REMARK    4  A    between atoms: C_4  and  N_5
REMARK    5  A    between atoms: C_12  and  C_13
REMARK    6  A    between atoms: N_15  and  C_16
REMARK                            x       y       z     vdW  Elec       q    Type
REMARK                         _______ _______ _______ _____ _____    ______ ____
ROOT
ATOM      1  N   UNL     1       2.078   5.945  19.304  0.00  0.00    +0.000 N 
ATOM      2  C   UNL     1       1.487   5.662  17.998  0.00  0.00    +0.000 C 
ATOM      3  C   UNL     1       1.896   4.312  17.391  0.00  0.00    +0.000 C 
ATOM      4  C   UNL     1       1.918   3.178  18.426  0.00  0.00    +0.000 C 
ATOM      5  C   UNL     1       2.597   1.902  17.945  0.00  0.00    +0.000 C 
ATOM      6  C   UNL     1       3.699   1.382  18.521  0.00  0.00    +0.000 C 
ATOM      7  C   UNL     1       4.466   2.071  19.628  0.00  0.00    +0.000 C 
ATOM      8  C   UNL     1       4.103   3.566  19.723  0.00  0.00    +0.000 C 
ATOM      9  C   UNL     1       2.555   3.621  19.744  0.00  0.00    +0.000 C 
ATOM     10  C   UNL     1       2.081   4.949  20.259  0.00  0.00    +0.000 C 
ATOM     11  O   UNL     1       1.927   5.149  21.460  0.00  0.00    +0.000 OA
ENDROOT
BRANCH   8  12
ATOM     12  C   UNL     1       4.837   4.299  18.568  0.00  0.00    +0.000 C 
ATOM     13  O   UNL     1       4.995   5.518  18.589  0.00  0.00    +0.000 OA
ATOM     14  N   UNL     1       5.237   3.497  17.515  0.00  0.00    +0.000 N 
ATOM     15  H   UNL     1       5.027   2.510  17.579  0.00  0.00    +0.000 HD
BRANCH  14  16
ATOM     16  C   UNL     1       5.784   3.949  16.283  0.00  0.00    +0.000 A 
ATOM     17  C   UNL     1       5.182   3.746  15.033  0.00  0.00    +0.000 A 
ATOM     18  C   UNL     1       5.815   4.160  13.851  0.00  0.00    +0.000 A 
ATOM     19  C   UNL     1       7.052   4.786  13.904  0.00  0.00    +0.000 A 
ATOM     20  C   UNL     1       7.650   5.018  15.141  0.00  0.00    +0.000 A 
ATOM     21  C   UNL     1       7.015   4.610  16.322  0.00  0.00    +0.000 A 
ENDBRANCH  14  16
ENDBRANCH   8  12
BRANCH   1  22
ATOM     22  C   UNL     1       2.224   7.323  19.760  0.00  0.00    +0.000 C 
BRANCH  22  23
ATOM     23  C   UNL     1       1.998   8.402  18.706  0.00  0.00    +0.000 C 
BRANCH  23  25
ATOM     24  C   UNL     1       0.023   9.989  18.276  0.00  0.00    +0.000 C 
ATOM     25  C   UNL     1       1.130   9.555  19.229  0.00  0.00    +0.000 C 
ENDBRANCH  23  25
ENDBRANCH  22  23
ENDBRANCH   1  22
TORSDOF 5
ENDMDL
