MODEL 1
REMARK VINA RESULT:      -7.9      0.000      0.000
REMARK  Name = 
REMARK  7 active torsions:
REMARK  status: ('A' for Active; 'I' for Inactive)
REMARK    1  A    between atoms: C_1  and  C_2
REMARK    2  A    between atoms: C_2  and  O_3
REMARK    3  A    between atoms: O_3  and  C_4
REMARK    4  A    between atoms: C_4  and  C_6
REMARK    5  A    between atoms: C_8  and  C_9
REMARK    6  A    between atoms: C_16  and  C_17
REMARK    7  A    between atoms: C_21  and  C_22
REMARK                            x       y       z     vdW  Elec       q    Type
REMARK                         _______ _______ _______ _____ _____    ______ ____
ROOT
ATOM      1  C   UNL     1       5.908   4.316  18.226  0.00  0.00    +0.000 A 
ATOM      2  N   UNL     1       5.187   3.822  19.315  0.00  0.00    +0.000 NA
ATOM      3  C   UNL     1       4.145   3.126  18.918  0.00  0.00    +0.000 A 
ATOM      4  S   UNL     1       3.923   3.080  17.221  0.00  0.00    +0.000 S 
ATOM      5  C   UNL     1       5.387   3.962  16.984  0.00  0.00    +0.000 A 
ENDROOT
BRANCH   3   6
ATOM      6  C   UNL     1       3.182   2.406  19.846  0.00  0.00    +0.000 C 
ATOM      7  C   UNL     1       2.954   3.163  21.167  0.00  0.00    +0.000 C 
ATOM      8  C   UNL     1       2.203   4.478  20.955  0.00  0.00    +0.000 C 
ATOM      9  C   UNL     1       0.871   4.252  20.245  0.00  0.00    +0.000 C 
ATOM     10  C   UNL     1       1.023   3.449  18.956  0.00  0.00    +0.000 C 
ATOM     11  C   UNL     1       1.821   2.158  19.168  0.00  0.00    +0.000 C 
ENDBRANCH   3   6
BRANCH   5  12
ATOM     12  C   UNL     1       5.901   4.161  15.616  0.00  0.00    +0.000 A 
ATOM     13  C   UNL     1       7.092   4.863  15.375  0.00  0.00    +0.000 A 
ATOM     14  C   UNL     1       7.552   5.080  14.074  0.00  0.00    +0.000 A 
ATOM     15  C   UNL     1       6.835   4.582  12.988  0.00  0.00    +0.000 A 
ATOM     16  C   UNL     1       5.653   3.874  13.203  0.00  0.00    +0.000 A 
ATOM     17  C   UNL     1       5.185   3.679  14.508  0.00  0.00    +0.000 A 
BRANCH  16  18
ATOM     18  C   UNL     1       4.910   3.353  12.093  0.00  0.00    +0.000 C 
ATOM     19  N   UNL     1       4.304   2.927  11.201  0.00  0.00    +0.000 NA
ENDBRANCH  16  18
ENDBRANCH   5  12
BRANCH   1  20
ATOM     20  C   UNL     1       7.108   5.135  18.427  0.00  0.00    +0.000 C 
ATOM     21  O   UNL     1       8.179   4.674  18.811  0.00  0.00    +0.000 OA
BRANCH  20  22
ATOM     22  O   UNL     1       6.885   6.466  18.216  0.00  0.00    +0.000 OA
BRANCH  22  24
ATOM     23  C   UNL     1       7.812   8.649  17.662  0.00  0.00    +0.000 C 
ATOM     24  C   UNL     1       8.043   7.309  18.343  0.00  0.00    +0.000 C 
ENDBRANCH  22  24
ENDBRANCH  20  22
ENDBRANCH   1  20
TORSDOF 6
ENDMDL
MODEL 2
REMARK VINA RESULT:      -7.7      1.112      1.745
REMARK  Name = 
REMARK  7 active torsions:
REMARK  status: ('A' for Active; 'I' for Inactive)
REMARK    1  A    between atoms: C_1  and  C_2
REMARK    2  A    between atoms: C_2  and  O_3
REMARK    3  A    between atoms: O_3  and  C_4
REMARK    4  A    between atoms: C_4  and  C_6
REMARK    5  A    between atoms: C_8  and  C_9
REMARK    6  A    between atoms: C_16  and  C_17
REMARK    7  A    between atoms: C_21  and  C_22
REMARK                            x       y       z     vdW  Elec       q    Type
REMARK                         _______ _______ _______ _____ _____    ______ ____
ROOT
ATOM      1  C   UNL     1       6.104   4.959  17.636  0.00  0.00    +0.000 A 
ATOM      2  N   UNL     1       5.167   4.967  18.671  0.00  0.00    +0.000 NA
ATOM      3  C   UNL     1       3.942   4.875  18.202  0.00  0.00    +0.000 A 
ATOM      4  S   UNL     1       3.834   4.846  16.493  0.00  0.00    +0.000 S 
ATOM      5  C   UNL     1       5.554   4.845  16.362  0.00  0.00    +0.000 A 
ENDROOT
BRANCH   3   6
ATOM      6  C   UNL     1       2.691   4.801  19.060  0.00  0.00    +0.000 C 
ATOM      7  C   UNL     1       1.527   4.084  18.353  0.00  0.00    +0.000 C 
ATOM      8  C   UNL     1       1.808   2.596  18.144  0.00  0.00    +0.000 C 
ATOM      9  C   UNL     1       2.128   1.898  19.463  0.00  0.00    +0.000 C 
ATOM     10  C   UNL     1       3.234   2.600  20.245  0.00  0.00    +0.000 C 
ATOM     11  C   UNL     1       2.969   4.101  20.405  0.00  0.00    +0.000 C 
ENDBRANCH   3   6
BRANCH   5  12
ATOM     12  C   UNL     1       6.181   4.673  15.039  0.00  0.00    +0.000 A 
ATOM     13  C   UNL     1       7.273   5.459  14.637  0.00  0.00    +0.000 A 
ATOM     14  C   UNL     1       7.837   5.316  13.367  0.00  0.00    +0.000 A 
ATOM     15  C   UNL     1       7.328   4.370  12.480  0.00  0.00    +0.000 A 
ATOM     16  C   UNL     1       6.249   3.572  12.860  0.00  0.00    +0.000 A 
ATOM     17  C   UNL     1       5.673   3.735  14.125  0.00  0.00    +0.000 A 
BRANCH  16  18
ATOM     18  C   UNL     1       5.720   2.592  11.956  0.00  0.00    +0.000 C 
ATOM     19  N   UNL     1       5.300   1.794  11.227  0.00  0.00    +0.000 NA
ENDBRANCH  16  18
ENDBRANCH   5  12
BRANCH   1  20
ATOM     20  C   UNL     1       7.539   5.065  17.922  0.00  0.00    +0.000 C 
ATOM     21  O   UNL     1       8.326   4.137  17.759  0.00  0.00    +0.000 OA
BRANCH  20  22
ATOM     22  O   UNL     1       7.888   6.273  18.456  0.00  0.00    +0.000 OA
BRANCH  22  24
ATOM     23  C   UNL     1       8.298   8.658  18.179  0.00  0.00    +0.000 C 
ATOM     24  C   UNL     1       7.637   7.411  17.613  0.00  0.00    +0.000 C 
ENDBRANCH  22  24
ENDBRANCH  20  22
ENDBRANCH   1  20
TORSDOF 6
ENDMDL
MODEL 3
REMARK VINA RESULT:      -7.6      3.946      7.606
REMARK  Name = 
REMARK  7 active torsions:
REMARK  status: ('A' for Active; 'I' for Inactive)
REMARK    1  A    between atoms: C_1  and  C_2
REMARK    2  A    between atoms: C_2  and  O_3
REMARK    3  A    between atoms: O_3  and  C_4
REMARK    4  A    between atoms: C_4  and  C_6
REMARK    5  A    between atoms: C_8  and  C_9
REMARK    6  A    between atoms: C_16  and  C_17
REMARK    7  A    between atoms: C_21  and  C_22
REMARK                            x       y       z     vdW  Elec       q    Type
REMARK                         _______ _______ _______ _____ _____    ______ ____
ROOT
ATOM      1  C   UNL     1       2.966   5.449  17.961  0.00  0.00    +0.000 A 
ATOM      2  N   UNL     1       4.144   4.809  17.570  0.00  0.00    +0.000 NA
ATOM      3  C   UNL     1       5.102   5.680  17.341  0.00  0.00    +0.000 A 
ATOM      4  S   UNL     1       4.633   7.318  17.509  0.00  0.00    +0.000 S 
ATOM      5  C   UNL     1       3.062   6.836  18.035  0.00  0.00    +0.000 A 
ENDROOT
BRANCH   3   6
ATOM      6  C   UNL     1       6.525   5.316  16.951  0.00  0.00    +0.000 C 
ATOM      7  C   UNL     1       7.325   6.523  16.430  0.00  0.00    +0.000 C 
ATOM      8  C   UNL     1       7.593   7.554  17.526  0.00  0.00    +0.000 C 
ATOM      9  C   UNL     1       8.310   6.927  18.719  0.00  0.00    +0.000 C 
ATOM     10  C   UNL     1       7.599   5.684  19.244  0.00  0.00    +0.000 C 
ATOM     11  C   UNL     1       7.288   4.679  18.129  0.00  0.00    +0.000 C 
ENDBRANCH   3   6
BRANCH   5  12
ATOM     12  C   UNL     1       2.114   7.857  18.519  0.00  0.00    +0.000 A 
ATOM     13  C   UNL     1       1.399   8.674  17.628  0.00  0.00    +0.000 A 
ATOM     14  C   UNL     1       0.531   9.664  18.096  0.00  0.00    +0.000 A 
ATOM     15  C   UNL     1       0.351   9.844  19.465  0.00  0.00    +0.000 A 
ATOM     16  C   UNL     1       1.044   9.039  20.369  0.00  0.00    +0.000 A 
ATOM     17  C   UNL     1       1.929   8.063  19.896  0.00  0.00    +0.000 A 
BRANCH  16  18
ATOM     18  C   UNL     1       0.862   9.212  21.781  0.00  0.00    +0.000 C 
ATOM     19  N   UNL     1       0.722   9.357  22.923  0.00  0.00    +0.000 NA
ENDBRANCH  16  18
ENDBRANCH   5  12
BRANCH   1  20
ATOM     20  C   UNL     1       1.755   4.676  18.260  0.00  0.00    +0.000 C 
ATOM     21  O   UNL     1       0.991   4.264  17.393  0.00  0.00    +0.000 OA
BRANCH  20  22
ATOM     22  O   UNL     1       1.533   4.533  19.600  0.00  0.00    +0.000 OA
BRANCH  22  24
ATOM     23  C   UNL     1       1.645   3.005  21.493  0.00  0.00    +0.000 C 
ATOM     24  C   UNL     1       1.253   3.192  20.035  0.00  0.00    +0.000 C 
ENDBRANCH  22  24
ENDBRANCH  20  22
ENDBRANCH   1  20
TORSDOF 6
ENDMDL
MODEL 4
REMARK VINA RESULT:      -7.6      4.002      7.740
REMARK  Name = 
REMARK  7 active torsions:
REMARK  status: ('A' for Active; 'I' for Inactive)
REMARK    1  A    between atoms: C_1  and  C_2
REMARK    2  A    between atoms: C_2  and  O_3
REMARK    3  A    between atoms: O_3  and  C_4
REMARK    4  A    between atoms: C_4  and  C_6
REMARK    5  A    between atoms: C_8  and  C_9
REMARK    6  A    between atoms: C_16  and  C_17
REMARK    7  A    between atoms: C_21  and  C_22
REMARK                            x       y       z     vdW  Elec       q    Type
REMARK                         _______ _______ _______ _____ _____    ______ ____
ROOT
ATOM      1  C   UNL     1       2.933   5.584  18.811  0.00  0.00    +0.000 A 
ATOM      2  N   UNL     1       4.066   4.918  18.339  0.00  0.00    +0.000 NA
ATOM      3  C   UNL     1       4.865   5.740  17.695  0.00  0.00    +0.000 A 
ATOM      4  S   UNL     1       4.277   7.342  17.553  0.00  0.00    +0.000 S 
ATOM      5  C   UNL     1       2.902   6.945  18.517  0.00  0.00    +0.000 A 
ENDROOT
BRANCH   3   6
ATOM      6  C   UNL     1       6.208   5.351  17.102  0.00  0.00    +0.000 C 
ATOM      7  C   UNL     1       6.947   6.545  16.471  0.00  0.00    +0.000 C 
ATOM      8  C   UNL     1       7.391   7.566  17.518  0.00  0.00    +0.000 C 
ATOM      9  C   UNL     1       8.262   6.921  18.593  0.00  0.00    +0.000 C 
ATOM     10  C   UNL     1       7.612   5.689  19.214  0.00  0.00    +0.000 C 
ATOM     11  C   UNL     1       7.123   4.695  18.155  0.00  0.00    +0.000 C 
ENDBRANCH   3   6
BRANCH   5  12
ATOM     12  C   UNL     1       1.974   8.013  18.932  0.00  0.00    +0.000 A 
ATOM     13  C   UNL     1       1.333   8.834  17.990  0.00  0.00    +0.000 A 
ATOM     14  C   UNL     1       0.484   9.868  18.392  0.00  0.00    +0.000 A 
ATOM     15  C   UNL     1       0.248  10.090  19.747  0.00  0.00    +0.000 A 
ATOM     16  C   UNL     1       0.867   9.282  20.701  0.00  0.00    +0.000 A 
ATOM     17  C   UNL     1       1.734   8.261  20.293  0.00  0.00    +0.000 A 
BRANCH  16  18
ATOM     18  C   UNL     1       0.627   9.499  22.098  0.00  0.00    +0.000 C 
ATOM     19  N   UNL     1       0.426   9.668  23.227  0.00  0.00    +0.000 NA
ENDBRANCH  16  18
ENDBRANCH   5  12
BRANCH   1  20
ATOM     20  C   UNL     1       1.892   4.864  19.552  0.00  0.00    +0.000 C 
ATOM     21  O   UNL     1       1.764   4.934  20.770  0.00  0.00    +0.000 OA
BRANCH  20  22
ATOM     22  O   UNL     1       1.135   4.054  18.753  0.00  0.00    +0.000 OA
BRANCH  22  24
ATOM     23  C   UNL     1       2.231   1.891  18.968  0.00  0.00    +0.000 C 
ATOM     24  C   UNL     1       0.973   2.705  19.224  0.00  0.00    +0.000 C 
ENDBRANCH  22  24
ENDBRANCH  20  22
ENDBRANCH   1  20
TORSDOF 6
ENDMDL
MODEL 5
REMARK VINA RESULT:      -7.4      6.457      8.609
REMARK  Name = 
REMARK  7 active torsions:
REMARK  status: ('A' for Active; 'I' for Inactive)
REMARK    1  A    between atoms: C_1  and  C_2
REMARK    2  A    between atoms: C_2  and  O_3
REMARK    3  A    between atoms: O_3  and  C_4
REMARK    4  A    between atoms: C_4  and  C_6
REMARK    5  A    between atoms: C_8  and  C_9
REMARK    6  A    between atoms: C_16  and  C_17
REMARK    7  A    between atoms: C_21  and  C_22
REMARK                            x       y       z     vdW  Elec       q    Type
REMARK                         _______ _______ _______ _____ _____    ______ ____
ROOT
ATOM      1  C   UNL     1       0.898   8.618  20.686  0.00  0.00    +0.000 A 
ATOM      2  N   UNL     1       1.608   7.418  20.737  0.00  0.00    +0.000 NA
ATOM      3  C   UNL     1       2.268   7.209  19.619  0.00  0.00    +0.000 A 
ATOM      4  S   UNL     1       2.022   8.401  18.414  0.00  0.00    +0.000 S 
ATOM      5  C   UNL     1       1.048   9.326  19.497  0.00  0.00    +0.000 A 
ENDROOT
BRANCH   3   6
ATOM      6  C   UNL     1       3.184   6.025  19.364  0.00  0.00    +0.000 C 
ATOM      7  C   UNL     1       2.976   4.885  20.377  0.00  0.00    +0.000 C 
ATOM      8  C   UNL     1       1.610   4.218  20.222  0.00  0.00    +0.000 C 
ATOM      9  C   UNL     1       1.399   3.699  18.802  0.00  0.00    +0.000 C 
ATOM     10  C   UNL     1       1.654   4.768  17.744  0.00  0.00    +0.000 C 
ATOM     11  C   UNL     1       3.003   5.467  17.938  0.00  0.00    +0.000 C 
ENDBRANCH   3   6
BRANCH   5  12
ATOM     12  C   UNL     1       0.586  10.667  19.092  0.00  0.00    +0.000 A 
ATOM     13  C   UNL     1      -0.757  10.911  18.763  0.00  0.00    +0.000 A 
ATOM     14  C   UNL     1      -1.179  12.176  18.344  0.00  0.00    +0.000 A 
ATOM     15  C   UNL     1      -0.265  13.224  18.262  0.00  0.00    +0.000 A 
ATOM     16  C   UNL     1       1.073  13.007  18.591  0.00  0.00    +0.000 A 
ATOM     17  C   UNL     1       1.495  11.733  18.989  0.00  0.00    +0.000 A 
BRANCH  16  18
ATOM     18  C   UNL     1       2.020  14.081  18.514  0.00  0.00    +0.000 C 
ATOM     19  N   UNL     1       2.791  14.945  18.459  0.00  0.00    +0.000 NA
ENDBRANCH  16  18
ENDBRANCH   5  12
BRANCH   1  20
ATOM     20  C   UNL     1       0.076   9.054  21.821  0.00  0.00    +0.000 C 
ATOM     21  O   UNL     1      -0.893   8.421  22.230  0.00  0.00    +0.000 OA
BRANCH  20  22
ATOM     22  O   UNL     1       0.457  10.268  22.319  0.00  0.00    +0.000 OA
BRANCH  22  24
ATOM     23  C   UNL     1      -0.511  12.490  22.081  0.00  0.00    +0.000 C 
ATOM     24  C   UNL     1      -0.619  11.123  22.739  0.00  0.00    +0.000 C 
ENDBRANCH  22  24
ENDBRANCH  20  22
ENDBRANCH   1  20
TORSDOF 6
ENDMDL
MODEL 6
REMARK VINA RESULT:      -7.4      6.298      8.319
REMARK  Name = 
REMARK  7 active torsions:
REMARK  status: ('A' for Active; 'I' for Inactive)
REMARK    1  A    between atoms: C_1  and  C_2
REMARK    2  A    between atoms: C_2  and  O_3
REMARK    3  A    between atoms: O_3  and  C_4
REMARK    4  A    between atoms: C_4  and  C_6
REMARK    5  A    between atoms: C_8  and  C_9
REMARK    6  A    between atoms: C_16  and  C_17
REMARK    7  A    between atoms: C_21  and  C_22
REMARK                            x       y       z     vdW  Elec       q    Type
REMARK                         _______ _______ _______ _____ _____    ______ ____
ROOT
ATOM      1  C   UNL     1       1.406   8.542  20.732  0.00  0.00    +0.000 A 
ATOM      2  N   UNL     1       2.138   7.353  20.727  0.00  0.00    +0.000 NA
ATOM      3  C   UNL     1       2.429   6.980  19.501  0.00  0.00    +0.000 A 
ATOM      4  S   UNL     1       1.784   7.989  18.277  0.00  0.00    +0.000 S 
ATOM      5  C   UNL     1       1.160   9.071  19.468  0.00  0.00    +0.000 A 
ENDROOT
BRANCH   3   6
ATOM      6  C   UNL     1       3.261   5.761  19.143  0.00  0.00    +0.000 C 
ATOM      7  C   UNL     1       3.143   4.635  20.185  0.00  0.00    +0.000 C 
ATOM      8  C   UNL     1       1.744   4.018  20.211  0.00  0.00    +0.000 C 
ATOM      9  C   UNL     1       1.337   3.501  18.834  0.00  0.00    +0.000 C 
ATOM     10  C   UNL     1       1.493   4.554  17.742  0.00  0.00    +0.000 C 
ATOM     11  C   UNL     1       2.881   5.204  17.757  0.00  0.00    +0.000 C 
ENDBRANCH   3   6
BRANCH   5  12
ATOM     12  C   UNL     1       0.551  10.345  19.043  0.00  0.00    +0.000 A 
ATOM     13  C   UNL     1       1.263  11.554  19.103  0.00  0.00    +0.000 A 
ATOM     14  C   UNL     1       0.667  12.762  18.734  0.00  0.00    +0.000 A 
ATOM     15  C   UNL     1      -0.650  12.781  18.281  0.00  0.00    +0.000 A 
ATOM     16  C   UNL     1      -1.375  11.591  18.204  0.00  0.00    +0.000 A 
ATOM     17  C   UNL     1      -0.780  10.386  18.597  0.00  0.00    +0.000 A 
BRANCH  16  18
ATOM     18  C   UNL     1      -2.730  11.598  17.734  0.00  0.00    +0.000 C 
ATOM     19  N   UNL     1      -3.828  11.602  17.363  0.00  0.00    +0.000 NA
ENDBRANCH  16  18
ENDBRANCH   5  12
BRANCH   1  20
ATOM     20  C   UNL     1       0.959   9.144  21.993  0.00  0.00    +0.000 C 
ATOM     21  O   UNL     1       1.729   9.481  22.886  0.00  0.00    +0.000 OA
BRANCH  20  22
ATOM     22  O   UNL     1      -0.402   9.218  22.093  0.00  0.00    +0.000 OA
BRANCH  22  24
ATOM     23  C   UNL     1      -1.028  11.565  22.256  0.00  0.00    +0.000 C 
ATOM     24  C   UNL     1      -0.897  10.235  22.981  0.00  0.00    +0.000 C 
ENDBRANCH  22  24
ENDBRANCH  20  22
ENDBRANCH   1  20
TORSDOF 6
ENDMDL
MODEL 7
REMARK VINA RESULT:      -7.2      1.303      1.679
REMARK  Name = 
REMARK  7 active torsions:
REMARK  status: ('A' for Active; 'I' for Inactive)
REMARK    1  A    between atoms: C_1  and  C_2
REMARK    2  A    between atoms: C_2  and  O_3
REMARK    3  A    between atoms: O_3  and  C_4
REMARK    4  A    between atoms: C_4  and  C_6
REMARK    5  A    between atoms: C_8  and  C_9
REMARK    6  A    between atoms: C_16  and  C_17
REMARK    7  A    between atoms: C_21  and  C_22
REMARK                            x       y       z     vdW  Elec       q    Type
REMARK                         _______ _______ _______ _____ _____    ______ ____
ROOT
ATOM      1  C   UNL     1       4.896   5.483  17.110  0.00  0.00    +0.000 A 
ATOM      2  N   UNL     1       4.419   5.202  18.392  0.00  0.00    +0.000 NA
ATOM      3  C   UNL     1       4.133   3.926  18.522  0.00  0.00    +0.000 A 
ATOM      4  S   UNL     1       4.351   2.998  17.099  0.00  0.00    +0.000 S 
ATOM      5  C   UNL     1       4.978   4.375  16.271  0.00  0.00    +0.000 A 
ENDROOT
BRANCH   3   6
ATOM      6  C   UNL     1       3.644   3.276  19.805  0.00  0.00    +0.000 C 
ATOM      7  C   UNL     1       2.940   4.273  20.743  0.00  0.00    +0.000 C 
ATOM      8  C   UNL     1       1.616   4.774  20.164  0.00  0.00    +0.000 C 
ATOM      9  C   UNL     1       0.679   3.617  19.831  0.00  0.00    +0.000 C 
ATOM     10  C   UNL     1       1.340   2.559  18.953  0.00  0.00    +0.000 C 
ATOM     11  C   UNL     1       2.691   2.101  19.515  0.00  0.00    +0.000 C 
ENDBRANCH   3   6
BRANCH   5  12
ATOM     12  C   UNL     1       5.537   4.215  14.916  0.00  0.00    +0.000 A 
ATOM     13  C   UNL     1       6.889   4.478  14.644  0.00  0.00    +0.000 A 
ATOM     14  C   UNL     1       7.402   4.359  13.350  0.00  0.00    +0.000 A 
ATOM     15  C   UNL     1       6.573   3.959  12.305  0.00  0.00    +0.000 A 
ATOM     16  C   UNL     1       5.228   3.683  12.552  0.00  0.00    +0.000 A 
ATOM     17  C   UNL     1       4.714   3.826  13.847  0.00  0.00    +0.000 A 
BRANCH  16  18
ATOM     18  C   UNL     1       4.367   3.265  11.484  0.00  0.00    +0.000 C 
ATOM     19  N   UNL     1       3.668   2.936  10.620  0.00  0.00    +0.000 NA
ENDBRANCH  16  18
ENDBRANCH   5  12
BRANCH   1  20
ATOM     20  C   UNL     1       5.269   6.851  16.730  0.00  0.00    +0.000 C 
ATOM     21  O   UNL     1       4.883   7.389  15.697  0.00  0.00    +0.000 OA
BRANCH  20  22
ATOM     22  O   UNL     1       6.146   7.426  17.606  0.00  0.00    +0.000 OA
BRANCH  22  24
ATOM     23  C   UNL     1       7.928   6.302  18.827  0.00  0.00    +0.000 C 
ATOM     24  C   UNL     1       7.500   6.949  17.520  0.00  0.00    +0.000 C 
ENDBRANCH  22  24
ENDBRANCH  20  22
ENDBRANCH   1  20
TORSDOF 6
ENDMDL
MODEL 8
REMARK VINA RESULT:      -7.1      4.258      7.781
REMARK  Name = 
REMARK  7 active torsions:
REMARK  status: ('A' for Active; 'I' for Inactive)
REMARK    1  A    between atoms: C_1  and  C_2
REMARK    2  A    between atoms: C_2  and  O_3
REMARK    3  A    between atoms: O_3  and  C_4
REMARK    4  A    between atoms: C_4  and  C_6
REMARK    5  A    between atoms: C_8  and  C_9
REMARK    6  A    between atoms: C_16  and  C_17
REMARK    7  A    between atoms: C_21  and  C_22
REMARK                            x       y       z     vdW  Elec       q    Type
REMARK                         _______ _______ _______ _____ _____    ______ ____
ROOT
ATOM      1  C   UNL     1       2.643   5.619  19.532  0.00  0.00    +0.000 A 
ATOM      2  N   UNL     1       3.574   4.978  18.713  0.00  0.00    +0.000 NA
ATOM      3  C   UNL     1       4.066   5.804  17.817  0.00  0.00    +0.000 A 
ATOM      4  S   UNL     1       3.393   7.378  17.854  0.00  0.00    +0.000 S 
ATOM      5  C   UNL     1       2.450   6.966  19.239  0.00  0.00    +0.000 A 
ENDROOT
BRANCH   3   6
ATOM      6  C   UNL     1       5.141   5.443  16.806  0.00  0.00    +0.000 C 
ATOM      7  C   UNL     1       5.877   6.678  16.256  0.00  0.00    +0.000 C 
ATOM      8  C   UNL     1       6.723   7.369  17.326  0.00  0.00    +0.000 C 
ATOM      9  C   UNL     1       7.722   6.403  17.958  0.00  0.00    +0.000 C 
ATOM     10  C   UNL     1       7.061   5.126  18.467  0.00  0.00    +0.000 C 
ATOM     11  C   UNL     1       6.174   4.468  17.404  0.00  0.00    +0.000 C 
ENDBRANCH   3   6
BRANCH   5  12
ATOM     12  C   UNL     1       1.673   8.014  19.925  0.00  0.00    +0.000 A 
ATOM     13  C   UNL     1       1.365   7.922  21.292  0.00  0.00    +0.000 A 
ATOM     14  C   UNL     1       0.596   8.901  21.926  0.00  0.00    +0.000 A 
ATOM     15  C   UNL     1       0.134  10.001  21.207  0.00  0.00    +0.000 A 
ATOM     16  C   UNL     1       0.435  10.118  19.849  0.00  0.00    +0.000 A 
ATOM     17  C   UNL     1       1.187   9.123  19.214  0.00  0.00    +0.000 A 
BRANCH  16  18
ATOM     18  C   UNL     1      -0.031  11.249  19.100  0.00  0.00    +0.000 C 
ATOM     19  N   UNL     1      -0.416  12.162  18.498  0.00  0.00    +0.000 NA
ENDBRANCH  16  18
ENDBRANCH   5  12
BRANCH   1  20
ATOM     20  C   UNL     1       1.952   4.887  20.600  0.00  0.00    +0.000 C 
ATOM     21  O   UNL     1       2.436   4.709  21.713  0.00  0.00    +0.000 OA
BRANCH  20  22
ATOM     22  O   UNL     1       0.755   4.366  20.199  0.00  0.00    +0.000 OA
BRANCH  22  24
ATOM     23  C   UNL     1       0.932   2.449  18.707  0.00  0.00    +0.000 C 
ATOM     24  C   UNL     1       0.703   2.931  20.131  0.00  0.00    +0.000 C 
ENDBRANCH  22  24
ENDBRANCH  20  22
ENDBRANCH   1  20
TORSDOF 6
ENDMDL
MODEL 9
REMARK VINA RESULT:      -7.0      1.387      1.905
REMARK  Name = 
REMARK  7 active torsions:
REMARK  status: ('A' for Active; 'I' for Inactive)
REMARK    1  A    between atoms: C_1  and  C_2
REMARK    2  A    between atoms: C_2  and  O_3
REMARK    3  A    between atoms: O_3  and  C_4
REMARK    4  A    between atoms: C_4  and  C_6
REMARK    5  A    between atoms: C_8  and  C_9
REMARK    6  A    between atoms: C_16  and  C_17
REMARK    7  A    between atoms: C_21  and  C_22
REMARK                            x       y       z     vdW  Elec       q    Type
REMARK                         _______ _______ _______ _____ _____    ______ ____
ROOT
ATOM      1  C   UNL     1       5.844   4.189  17.839  0.00  0.00    +0.000 A 
ATOM      2  N   UNL     1       5.173   3.731  18.975  0.00  0.00    +0.000 NA
ATOM      3  C   UNL     1       4.095   3.054  18.648  0.00  0.00    +0.000 A 
ATOM      4  S   UNL     1       3.780   2.984  16.966  0.00  0.00    +0.000 S 
ATOM      5  C   UNL     1       5.249   3.826  16.634  0.00  0.00    +0.000 A 
ENDROOT
BRANCH   3   6
ATOM      6  C   UNL     1       3.168   2.373  19.640  0.00  0.00    +0.000 C 
ATOM      7  C   UNL     1       3.114   3.099  20.996  0.00  0.00    +0.000 C 
ATOM      8  C   UNL     1       2.447   4.470  20.890  0.00  0.00    +0.000 C 
ATOM      9  C   UNL     1       1.044   4.363  20.297  0.00  0.00    +0.000 C 
ATOM     10  C   UNL     1       1.021   3.595  18.979  0.00  0.00    +0.000 C 
ATOM     11  C   UNL     1       1.738   2.245  19.082  0.00  0.00    +0.000 C 
ENDBRANCH   3   6
BRANCH   5  12
ATOM     12  C   UNL     1       5.691   3.989  15.237  0.00  0.00    +0.000 A 
ATOM     13  C   UNL     1       4.989   3.403  14.172  0.00  0.00    +0.000 A 
ATOM     14  C   UNL     1       5.436   3.531  12.855  0.00  0.00    +0.000 A 
ATOM     15  C   UNL     1       6.587   4.264  12.576  0.00  0.00    +0.000 A 
ATOM     16  C   UNL     1       7.297   4.864  13.618  0.00  0.00    +0.000 A 
ATOM     17  C   UNL     1       6.857   4.713  14.938  0.00  0.00    +0.000 A 
BRANCH  16  18
ATOM     18  C   UNL     1       8.481   5.625  13.342  0.00  0.00    +0.000 C 
ATOM     19  N   UNL     1       9.436   6.239  13.110  0.00  0.00    +0.000 NA
ENDBRANCH  16  18
ENDBRANCH   5  12
BRANCH   1  20
ATOM     20  C   UNL     1       7.073   4.982  17.961  0.00  0.00    +0.000 C 
ATOM     21  O   UNL     1       8.187   4.481  18.076  0.00  0.00    +0.000 OA
BRANCH  20  22
ATOM     22  O   UNL     1       6.835   6.327  18.007  0.00  0.00    +0.000 OA
BRANCH  22  24
ATOM     23  C   UNL     1       7.887   8.499  17.687  0.00  0.00    +0.000 C 
ATOM     24  C   UNL     1       7.968   7.138  18.360  0.00  0.00    +0.000 C 
ENDBRANCH  22  24
ENDBRANCH  20  22
ENDBRANCH   1  20
TORSDOF 6
ENDMDL
