MODEL 1
REMARK VINA RESULT:      -9.4      0.000      0.000
REMARK  Name = 
REMARK  5 active torsions:
REMARK  status: ('A' for Active; 'I' for Inactive)
REMARK    1  A    between atoms: C_1  and  C_2
REMARK    2  A    between atoms: C_3  and  C_4
REMARK    3  A    between atoms: C_7  and  C_8
REMARK    4  A    between atoms: N_11  and  C_12
REMARK    5  A    between atoms: C_12  and  C_13
REMARK                            x       y       z     vdW  Elec       q    Type
REMARK                         _______ _______ _______ _____ _____    ______ ____
ROOT
ATOM      1  C   UNL     1       7.446   5.051  16.646  0.00  0.00    +0.000 C 
ATOM      2  C   UNL     1       7.262   6.514  17.176  0.00  0.00    +0.000 C 
ATOM      3  C   UNL     1       5.819   7.093  17.130  0.00  0.00    +0.000 C 
ATOM      4  N   UNL     1       4.910   6.374  18.045  0.00  0.00    +0.000 NA
ATOM      5  C   UNL     1       5.268   4.954  18.168  0.00  0.00    +0.000 C 
ATOM      6  C   UNL     1       6.801   4.729  18.038  0.00  0.00    +0.000 C 
ATOM      7  N   UNL     1       7.582   5.935  18.554  0.00  0.00    +0.000 NA
ATOM      8  H   UNL     1       8.574   5.748  18.696  0.00  0.00    +0.000 HD
ENDROOT
BRANCH   1  12
ATOM      9  C   UNL     1       5.670   3.716  12.783  0.00  0.00    +0.000 A 
ATOM     10  C   UNL     1       6.918   4.345  12.823  0.00  0.00    +0.000 A 
ATOM     11  C   UNL     1       7.475   4.756  14.044  0.00  0.00    +0.000 A 
ATOM     12  C   UNL     1       6.812   4.566  15.271  0.00  0.00    +0.000 A 
ATOM     13  C   UNL     1       5.594   3.869  15.205  0.00  0.00    +0.000 A 
ATOM     14  C   UNL     1       5.018   3.480  13.992  0.00  0.00    +0.000 A 
BRANCH   9  17
ATOM     15  C   UNL     1       3.164   3.338   9.852  0.00  0.00    +0.000 C 
ATOM     16  C   UNL     1       3.741   3.576  11.205  0.00  0.00    +0.000 C 
ATOM     17  C   UNL     1       5.047   3.413  11.491  0.00  0.00    +0.000 C 
ENDBRANCH   9  17
ENDBRANCH   1  12
BRANCH   4  18
ATOM     18  C   UNL     1       3.483   6.571  17.772  0.00  0.00    +0.000 C 
BRANCH  18  19
ATOM     19  C   UNL     1       2.628   5.556  18.499  0.00  0.00    +0.000 A 
ATOM     20  C   UNL     1       1.905   4.582  17.763  0.00  0.00    +0.000 A 
ATOM     21  C   UNL     1       1.295   3.501  18.405  0.00  0.00    +0.000 A 
ATOM     22  C   UNL     1       1.460   3.408  19.767  0.00  0.00    +0.000 A 
ATOM     23  C   UNL     1       2.103   4.387  20.494  0.00  0.00    +0.000 A 
ATOM     24  C   UNL     1       2.660   5.494  19.899  0.00  0.00    +0.000 A 
ATOM     25  O   UNL     1       2.219   4.053  21.810  0.00  0.00    +0.000 OA
ATOM     26  C   UNL     1       1.910   2.651  21.712  0.00  0.00    +0.000 C 
ATOM     27  O   UNL     1       1.123   2.340  20.544  0.00  0.00    +0.000 OA
ENDBRANCH  18  19
ENDBRANCH   4  18
TORSDOF 4
ENDMDL
MODEL 2
REMARK VINA RESULT:      -9.0      3.560      5.678
REMARK  Name = 
REMARK  5 active torsions:
REMARK  status: ('A' for Active; 'I' for Inactive)
REMARK    1  A    between atoms: C_1  and  C_2
REMARK    2  A    between atoms: C_3  and  C_4
REMARK    3  A    between atoms: C_7  and  C_8
REMARK    4  A    between atoms: N_11  and  C_12
REMARK    5  A    between atoms: C_12  and  C_13
REMARK                            x       y       z     vdW  Elec       q    Type
REMARK                         _______ _______ _______ _____ _____    ______ ____
ROOT
ATOM      1  C   UNL     1       3.868   2.925  17.534  0.00  0.00    +0.000 C 
ATOM      2  C   UNL     1       3.476   2.205  18.869  0.00  0.00    +0.000 C 
ATOM      3  C   UNL     1       3.200   3.119  20.096  0.00  0.00    +0.000 C 
ATOM      4  N   UNL     1       2.001   3.957  19.897  0.00  0.00    +0.000 NA
ATOM      5  C   UNL     1       1.820   4.327  18.486  0.00  0.00    +0.000 C 
ATOM      6  C   UNL     1       2.328   3.215  17.526  0.00  0.00    +0.000 C 
ATOM      7  N   UNL     1       2.178   1.831  18.153  0.00  0.00    +0.000 NA
ATOM      8  H   UNL     1       2.285   1.067  17.488  0.00  0.00    +0.000 HD
ENDROOT
BRANCH   1  12
ATOM      9  C   UNL     1       6.922   6.169  17.427  0.00  0.00    +0.000 A 
ATOM     10  C   UNL     1       6.865   5.269  18.495  0.00  0.00    +0.000 A 
ATOM     11  C   UNL     1       5.904   4.245  18.519  0.00  0.00    +0.000 A 
ATOM     12  C   UNL     1       4.961   4.079  17.488  0.00  0.00    +0.000 A 
ATOM     13  C   UNL     1       5.090   4.954  16.397  0.00  0.00    +0.000 A 
ATOM     14  C   UNL     1       6.024   5.995  16.376  0.00  0.00    +0.000 A 
BRANCH   9  17
ATOM     15  C   UNL     1       8.466   9.693  17.886  0.00  0.00    +0.000 C 
ATOM     16  C   UNL     1       7.485   8.578  17.754  0.00  0.00    +0.000 C 
ATOM     17  C   UNL     1       7.843   7.308  17.483  0.00  0.00    +0.000 C 
ENDBRANCH   9  17
ENDBRANCH   1  12
BRANCH   4  18
ATOM     18  C   UNL     1       1.904   5.112  20.796  0.00  0.00    +0.000 C 
BRANCH  18  19
ATOM     19  C   UNL     1       2.144   6.414  20.063  0.00  0.00    +0.000 A 
ATOM     20  C   UNL     1       3.003   6.444  18.934  0.00  0.00    +0.000 A 
ATOM     21  C   UNL     1       3.067   7.568  18.107  0.00  0.00    +0.000 A 
ATOM     22  C   UNL     1       2.237   8.620  18.416  0.00  0.00    +0.000 A 
ATOM     23  C   UNL     1       1.452   8.623  19.550  0.00  0.00    +0.000 A 
ATOM     24  C   UNL     1       1.413   7.557  20.416  0.00  0.00    +0.000 A 
ATOM     25  O   UNL     1       0.655   9.726  19.617  0.00  0.00    +0.000 OA
ATOM     26  C   UNL     1       0.786  10.178  18.256  0.00  0.00    +0.000 C 
ATOM     27  O   UNL     1       2.001   9.712  17.635  0.00  0.00    +0.000 OA
ENDBRANCH  18  19
ENDBRANCH   4  18
TORSDOF 4
ENDMDL
MODEL 3
REMARK VINA RESULT:      -8.9      2.381      3.097
REMARK  Name = 
REMARK  5 active torsions:
REMARK  status: ('A' for Active; 'I' for Inactive)
REMARK    1  A    between atoms: C_1  and  C_2
REMARK    2  A    between atoms: C_3  and  C_4
REMARK    3  A    between atoms: C_7  and  C_8
REMARK    4  A    between atoms: N_11  and  C_12
REMARK    5  A    between atoms: C_12  and  C_13
REMARK                            x       y       z     vdW  Elec       q    Type
REMARK                         _______ _______ _______ _____ _____    ______ ____
ROOT
ATOM      1  C   UNL     1       7.337   5.130  16.863  0.00  0.00    +0.000 C 
ATOM      2  C   UNL     1       6.983   6.550  17.424  0.00  0.00    +0.000 C 
ATOM      3  C   UNL     1       5.482   6.956  17.388  0.00  0.00    +0.000 C 
ATOM      4  N   UNL     1       4.665   6.115  18.286  0.00  0.00    +0.000 NA
ATOM      5  C   UNL     1       5.187   4.745  18.378  0.00  0.00    +0.000 C 
ATOM      6  C   UNL     1       6.735   4.704  18.246  0.00  0.00    +0.000 C 
ATOM      7  N   UNL     1       7.370   5.981  18.790  0.00  0.00    +0.000 NA
ATOM      8  H   UNL     1       8.377   5.909  18.930  0.00  0.00    +0.000 HD
ENDROOT
BRANCH   1  12
ATOM      9  C   UNL     1       5.726   3.682  12.968  0.00  0.00    +0.000 A 
ATOM     10  C   UNL     1       6.890   4.455  13.024  0.00  0.00    +0.000 A 
ATOM     11  C   UNL     1       7.396   4.902  14.255  0.00  0.00    +0.000 A 
ATOM     12  C   UNL     1       6.763   4.605  15.476  0.00  0.00    +0.000 A 
ATOM     13  C   UNL     1       5.638   3.768  15.393  0.00  0.00    +0.000 A 
ATOM     14  C   UNL     1       5.110   3.341  14.170  0.00  0.00    +0.000 A 
BRANCH   9  17
ATOM     15  C   UNL     1       3.301   3.179   9.989  0.00  0.00    +0.000 C 
ATOM     16  C   UNL     1       3.839   3.460  11.350  0.00  0.00    +0.000 C 
ATOM     17  C   UNL     1       5.143   3.336  11.669  0.00  0.00    +0.000 C 
ENDBRANCH   9  17
ENDBRANCH   1  12
BRANCH   4  18
ATOM     18  C   UNL     1       3.224   6.150  18.014  0.00  0.00    +0.000 C 
BRANCH  18  19
ATOM     19  C   UNL     1       2.574   7.386  18.599  0.00  0.00    +0.000 A 
ATOM     20  C   UNL     1       2.202   8.460  17.749  0.00  0.00    +0.000 A 
ATOM     21  C   UNL     1       1.403   9.506  18.218  0.00  0.00    +0.000 A 
ATOM     22  C   UNL     1       0.968   9.425  19.520  0.00  0.00    +0.000 A 
ATOM     23  C   UNL     1       1.382   8.420  20.368  0.00  0.00    +0.000 A 
ATOM     24  C   UNL     1       2.217   7.410  19.954  0.00  0.00    +0.000 A 
ATOM     25  O   UNL     1       0.768   8.491  21.582  0.00  0.00    +0.000 OA
ATOM     26  C   UNL     1      -0.293   9.402  21.242  0.00  0.00    +0.000 C 
ATOM     27  O   UNL     1       0.030  10.224  20.102  0.00  0.00    +0.000 OA
ENDBRANCH  18  19
ENDBRANCH   4  18
TORSDOF 4
ENDMDL
MODEL 4
REMARK VINA RESULT:      -8.4      2.481      3.382
REMARK  Name = 
REMARK  5 active torsions:
REMARK  status: ('A' for Active; 'I' for Inactive)
REMARK    1  A    between atoms: C_1  and  C_2
REMARK    2  A    between atoms: C_3  and  C_4
REMARK    3  A    between atoms: C_7  and  C_8
REMARK    4  A    between atoms: N_11  and  C_12
REMARK    5  A    between atoms: C_12  and  C_13
REMARK                            x       y       z     vdW  Elec       q    Type
REMARK                         _______ _______ _______ _____ _____    ______ ____
ROOT
ATOM      1  C   UNL     1       7.428   5.369  16.514  0.00  0.00    +0.000 C 
ATOM      2  C   UNL     1       6.853   6.651  17.207  0.00  0.00    +0.000 C 
ATOM      3  C   UNL     1       5.314   6.694  17.420  0.00  0.00    +0.000 C 
ATOM      4  N   UNL     1       4.863   5.663  18.376  0.00  0.00    +0.000 NA
ATOM      5  C   UNL     1       5.692   4.452  18.306  0.00  0.00    +0.000 C 
ATOM      6  C   UNL     1       7.168   4.780  17.942  0.00  0.00    +0.000 C 
ATOM      7  N   UNL     1       7.572   6.157  18.462  0.00  0.00    +0.000 NA
ATOM      8  H   UNL     1       8.578   6.320  18.446  0.00  0.00    +0.000 HD
ENDROOT
BRANCH   1  12
ATOM      9  C   UNL     1       5.604   3.678  12.816  0.00  0.00    +0.000 A 
ATOM     10  C   UNL     1       6.880   4.250  12.794  0.00  0.00    +0.000 A 
ATOM     11  C   UNL     1       7.451   4.774  13.964  0.00  0.00    +0.000 A 
ATOM     12  C   UNL     1       6.777   4.758  15.199  0.00  0.00    +0.000 A 
ATOM     13  C   UNL     1       5.529   4.114  15.204  0.00  0.00    +0.000 A 
ATOM     14  C   UNL     1       4.938   3.613  14.039  0.00  0.00    +0.000 A 
BRANCH   9  17
ATOM     15  C   UNL     1       3.156   3.219   9.848  0.00  0.00    +0.000 C 
ATOM     16  C   UNL     1       3.729   3.598  11.171  0.00  0.00    +0.000 C 
ATOM     17  C   UNL     1       4.972   3.256  11.563  0.00  0.00    +0.000 C 
ENDBRANCH   9  17
ENDBRANCH   1  12
BRANCH   4  18
ATOM     18  C   UNL     1       3.428   5.365  18.325  0.00  0.00    +0.000 C 
BRANCH  18  19
ATOM     19  C   UNL     1       2.592   6.568  18.705  0.00  0.00    +0.000 A 
ATOM     20  C   UNL     1       2.198   6.759  20.055  0.00  0.00    +0.000 A 
ATOM     21  C   UNL     1       1.627   7.963  20.475  0.00  0.00    +0.000 A 
ATOM     22  C   UNL     1       1.500   8.957  19.534  0.00  0.00    +0.000 A 
ATOM     23  C   UNL     1       1.818   8.753  18.208  0.00  0.00    +0.000 A 
ATOM     24  C   UNL     1       2.325   7.560  17.752  0.00  0.00    +0.000 A 
ATOM     25  O   UNL     1       1.691   9.892  17.471  0.00  0.00    +0.000 OA
ATOM     26  C   UNL     1       1.619  10.846  18.546  0.00  0.00    +0.000 C 
ATOM     27  O   UNL     1       1.161  10.254  19.779  0.00  0.00    +0.000 OA
ENDBRANCH  18  19
ENDBRANCH   4  18
TORSDOF 4
ENDMDL
MODEL 5
REMARK VINA RESULT:      -8.3      2.413      5.590
REMARK  Name = 
REMARK  5 active torsions:
REMARK  status: ('A' for Active; 'I' for Inactive)
REMARK    1  A    between atoms: C_1  and  C_2
REMARK    2  A    between atoms: C_3  and  C_4
REMARK    3  A    between atoms: C_7  and  C_8
REMARK    4  A    between atoms: N_11  and  C_12
REMARK    5  A    between atoms: C_12  and  C_13
REMARK                            x       y       z     vdW  Elec       q    Type
REMARK                         _______ _______ _______ _____ _____    ______ ____
ROOT
ATOM      1  C   UNL     1       5.585   6.805  16.751  0.00  0.00    +0.000 C 
ATOM      2  C   UNL     1       6.729   5.781  17.062  0.00  0.00    +0.000 C 
ATOM      3  C   UNL     1       6.286   4.368  17.536  0.00  0.00    +0.000 C 
ATOM      4  N   UNL     1       5.566   3.634  16.475  0.00  0.00    +0.000 NA
ATOM      5  C   UNL     1       4.793   4.538  15.613  0.00  0.00    +0.000 C 
ATOM      6  C   UNL     1       5.480   5.924  15.460  0.00  0.00    +0.000 C 
ATOM      7  N   UNL     1       6.999   5.801  15.557  0.00  0.00    +0.000 NA
ATOM      8  H   UNL     1       7.497   6.633  15.244  0.00  0.00    +0.000 HD
ENDROOT
BRANCH   1  12
ATOM      9  C   UNL     1       2.162   7.455  19.532  0.00  0.00    +0.000 A 
ATOM     10  C   UNL     1       2.270   8.179  18.341  0.00  0.00    +0.000 A 
ATOM     11  C   UNL     1       3.347   7.964  17.466  0.00  0.00    +0.000 A 
ATOM     12  C   UNL     1       4.361   7.028  17.743  0.00  0.00    +0.000 A 
ATOM     13  C   UNL     1       4.187   6.268  18.910  0.00  0.00    +0.000 A 
ATOM     14  C   UNL     1       3.134   6.493  19.802  0.00  0.00    +0.000 A 
BRANCH   9  17
ATOM     15  C   UNL     1       0.041   9.133  22.305  0.00  0.00    +0.000 C 
ATOM     16  C   UNL     1       1.172   8.775  21.404  0.00  0.00    +0.000 C 
ATOM     17  C   UNL     1       1.106   7.785  20.492  0.00  0.00    +0.000 C 
ENDBRANCH   9  17
ENDBRANCH   1  12
BRANCH   4  18
ATOM     18  C   UNL     1       4.773   2.495  16.949  0.00  0.00    +0.000 C 
BRANCH  18  19
ATOM     19  C   UNL     1       3.722   2.922  17.951  0.00  0.00    +0.000 A 
ATOM     20  C   UNL     1       2.442   3.336  17.501  0.00  0.00    +0.000 A 
ATOM     21  C   UNL     1       1.386   3.516  18.399  0.00  0.00    +0.000 A 
ATOM     22  C   UNL     1       1.637   3.240  19.722  0.00  0.00    +0.000 A 
ATOM     23  C   UNL     1       2.896   2.903  20.173  0.00  0.00    +0.000 A 
ATOM     24  C   UNL     1       3.969   2.777  19.323  0.00  0.00    +0.000 A 
ATOM     25  O   UNL     1       2.899   2.596  21.501  0.00  0.00    +0.000 OA
ATOM     26  C   UNL     1       1.482   2.438  21.695  0.00  0.00    +0.000 C 
ATOM     27  O   UNL     1       0.706   3.157  20.715  0.00  0.00    +0.000 OA
ENDBRANCH  18  19
ENDBRANCH   4  18
TORSDOF 4
ENDMDL
MODEL 6
REMARK VINA RESULT:      -8.3      0.872      1.462
REMARK  Name = 
REMARK  5 active torsions:
REMARK  status: ('A' for Active; 'I' for Inactive)
REMARK    1  A    between atoms: C_1  and  C_2
REMARK    2  A    between atoms: C_3  and  C_4
REMARK    3  A    between atoms: C_7  and  C_8
REMARK    4  A    between atoms: N_11  and  C_12
REMARK    5  A    between atoms: C_12  and  C_13
REMARK                            x       y       z     vdW  Elec       q    Type
REMARK                         _______ _______ _______ _____ _____    ______ ____
ROOT
ATOM      1  C   UNL     1       7.677   5.526  16.601  0.00  0.00    +0.000 C 
ATOM      2  C   UNL     1       7.380   7.007  17.015  0.00  0.00    +0.000 C 
ATOM      3  C   UNL     1       5.885   7.436  17.036  0.00  0.00    +0.000 C 
ATOM      4  N   UNL     1       5.123   6.722  18.079  0.00  0.00    +0.000 NA
ATOM      5  C   UNL     1       5.634   5.361  18.294  0.00  0.00    +0.000 C 
ATOM      6  C   UNL     1       7.169   5.274  18.062  0.00  0.00    +0.000 C 
ATOM      7  N   UNL     1       7.855   6.593  18.408  0.00  0.00    +0.000 NA
ATOM      8  H   UNL     1       8.868   6.518  18.486  0.00  0.00    +0.000 HD
ENDROOT
BRANCH   1  12
ATOM      9  C   UNL     1       5.779   3.669  13.021  0.00  0.00    +0.000 A 
ATOM     10  C   UNL     1       6.924   4.462  12.900  0.00  0.00    +0.000 A 
ATOM     11  C   UNL     1       7.521   5.038  14.033  0.00  0.00    +0.000 A 
ATOM     12  C   UNL     1       7.001   4.855  15.327  0.00  0.00    +0.000 A 
ATOM     13  C   UNL     1       5.893   3.997  15.424  0.00  0.00    +0.000 A 
ATOM     14  C   UNL     1       5.274   3.441  14.300  0.00  0.00    +0.000 A 
BRANCH   9  17
ATOM     15  C   UNL     1       3.257   3.139  10.129  0.00  0.00    +0.000 C 
ATOM     16  C   UNL     1       3.879   3.591  11.405  0.00  0.00    +0.000 C 
ATOM     17  C   UNL     1       5.096   3.187  11.818  0.00  0.00    +0.000 C 
ENDBRANCH   9  17
ENDBRANCH   1  12
BRANCH   4  18
ATOM     18  C   UNL     1       3.667   6.753  17.904  0.00  0.00    +0.000 C 
BRANCH  18  19
ATOM     19  C   UNL     1       2.991   5.611  18.632  0.00  0.00    +0.000 A 
ATOM     20  C   UNL     1       2.379   5.838  19.892  0.00  0.00    +0.000 A 
ATOM     21  C   UNL     1       1.558   4.871  20.478  0.00  0.00    +0.000 A 
ATOM     22  C   UNL     1       1.346   3.715  19.765  0.00  0.00    +0.000 A 
ATOM     23  C   UNL     1       1.993   3.462  18.574  0.00  0.00    +0.000 A 
ATOM     24  C   UNL     1       2.853   4.367  18.001  0.00  0.00    +0.000 A 
ATOM     25  O   UNL     1       1.575   2.297  18.003  0.00  0.00    +0.000 OA
ATOM     26  C   UNL     1       0.384   2.083  18.781  0.00  0.00    +0.000 C 
ATOM     27  O   UNL     1       0.433   2.747  20.060  0.00  0.00    +0.000 OA
ENDBRANCH  18  19
ENDBRANCH   4  18
TORSDOF 4
ENDMDL
MODEL 7
REMARK VINA RESULT:      -8.2      2.602      3.452
REMARK  Name = 
REMARK  5 active torsions:
REMARK  status: ('A' for Active; 'I' for Inactive)
REMARK    1  A    between atoms: C_1  and  C_2
REMARK    2  A    between atoms: C_3  and  C_4
REMARK    3  A    between atoms: C_7  and  C_8
REMARK    4  A    between atoms: N_11  and  C_12
REMARK    5  A    between atoms: C_12  and  C_13
REMARK                            x       y       z     vdW  Elec       q    Type
REMARK                         _______ _______ _______ _____ _____    ______ ____
ROOT
ATOM      1  C   UNL     1       7.124   4.894  17.470  0.00  0.00    +0.000 C 
ATOM      2  C   UNL     1       6.781   6.250  18.177  0.00  0.00    +0.000 C 
ATOM      3  C   UNL     1       5.300   6.716  18.103  0.00  0.00    +0.000 C 
ATOM      4  N   UNL     1       4.400   5.808  18.841  0.00  0.00    +0.000 NA
ATOM      5  C   UNL     1       4.871   4.417  18.797  0.00  0.00    +0.000 C 
ATOM      6  C   UNL     1       6.422   4.330  18.753  0.00  0.00    +0.000 C 
ATOM      7  N   UNL     1       7.063   5.508  19.484  0.00  0.00    +0.000 NA
ATOM      8  H   UNL     1       8.055   5.380  19.674  0.00  0.00    +0.000 HD
ENDROOT
BRANCH   1  12
ATOM      9  C   UNL     1       5.717   3.936  13.351  0.00  0.00    +0.000 A 
ATOM     10  C   UNL     1       4.916   3.671  14.466  0.00  0.00    +0.000 A 
ATOM     11  C   UNL     1       5.363   3.982  15.760  0.00  0.00    +0.000 A 
ATOM     12  C   UNL     1       6.623   4.561  15.998  0.00  0.00    +0.000 A 
ATOM     13  C   UNL     1       7.373   4.881  14.855  0.00  0.00    +0.000 A 
ATOM     14  C   UNL     1       6.950   4.550  13.563  0.00  0.00    +0.000 A 
BRANCH   9  17
ATOM     15  C   UNL     1       3.628   3.041  10.214  0.00  0.00    +0.000 C 
ATOM     16  C   UNL     1       4.013   3.423  11.602  0.00  0.00    +0.000 C 
ATOM     17  C   UNL     1       5.291   3.485  12.023  0.00  0.00    +0.000 C 
ENDBRANCH   9  17
ENDBRANCH   1  12
BRANCH   4  18
ATOM     18  C   UNL     1       2.981   5.931  18.492  0.00  0.00    +0.000 C 
BRANCH  18  19
ATOM     19  C   UNL     1       2.443   7.308  18.816  0.00  0.00    +0.000 A 
ATOM     20  C   UNL     1       2.252   8.257  17.778  0.00  0.00    +0.000 A 
ATOM     21  C   UNL     1       1.552   9.444  18.007  0.00  0.00    +0.000 A 
ATOM     22  C   UNL     1       1.029   9.629  19.265  0.00  0.00    +0.000 A 
ATOM     23  C   UNL     1       1.269   8.743  20.294  0.00  0.00    +0.000 A 
ATOM     24  C   UNL     1       2.006   7.597  20.116  0.00  0.00    +0.000 A 
ATOM     25  O   UNL     1       0.592   9.080  21.427  0.00  0.00    +0.000 OA
ATOM     26  C   UNL     1      -0.333  10.026  20.861  0.00  0.00    +0.000 C 
ATOM     27  O   UNL     1       0.154  10.607  19.634  0.00  0.00    +0.000 OA
ENDBRANCH  18  19
ENDBRANCH   4  18
TORSDOF 4
ENDMDL
MODEL 8
REMARK VINA RESULT:      -8.0      3.684      7.261
REMARK  Name = 
REMARK  5 active torsions:
REMARK  status: ('A' for Active; 'I' for Inactive)
REMARK    1  A    between atoms: C_1  and  C_2
REMARK    2  A    between atoms: C_3  and  C_4
REMARK    3  A    between atoms: C_7  and  C_8
REMARK    4  A    between atoms: N_11  and  C_12
REMARK    5  A    between atoms: C_12  and  C_13
REMARK                            x       y       z     vdW  Elec       q    Type
REMARK                         _______ _______ _______ _____ _____    ______ ____
ROOT
ATOM      1  C   UNL     1       1.943   3.764  19.461  0.00  0.00    +0.000 C 
ATOM      2  C   UNL     1       1.874   2.880  18.170  0.00  0.00    +0.000 C 
ATOM      3  C   UNL     1       2.825   3.278  17.005  0.00  0.00    +0.000 C 
ATOM      4  N   UNL     1       4.244   3.091  17.368  0.00  0.00    +0.000 NA
ATOM      5  C   UNL     1       4.480   3.334  18.797  0.00  0.00    +0.000 C 
ATOM      6  C   UNL     1       3.255   2.932  19.664  0.00  0.00    +0.000 C 
ATOM      7  N   UNL     1       2.485   1.775  19.031  0.00  0.00    +0.000 NA
ATOM      8  H   UNL     1       1.818   1.334  19.662  0.00  0.00    +0.000 HD
ENDROOT
BRANCH   1  12
ATOM      9  C   UNL     1       1.891   8.218  19.290  0.00  0.00    +0.000 A 
ATOM     10  C   UNL     1       1.626   7.539  20.483  0.00  0.00    +0.000 A 
ATOM     11  C   UNL     1       1.651   6.136  20.532  0.00  0.00    +0.000 A 
ATOM     12  C   UNL     1       1.933   5.353  19.397  0.00  0.00    +0.000 A 
ATOM     13  C   UNL     1       2.265   6.064  18.233  0.00  0.00    +0.000 A 
ATOM     14  C   UNL     1       2.216   7.460  18.166  0.00  0.00    +0.000 A 
BRANCH   9  17
ATOM     15  C   UNL     1       0.464  11.793  18.862  0.00  0.00    +0.000 C 
ATOM     16  C   UNL     1       0.614  10.311  18.829  0.00  0.00    +0.000 C 
ATOM     17  C   UNL     1       1.731   9.673  19.227  0.00  0.00    +0.000 C 
ENDBRANCH   9  17
ENDBRANCH   1  12
BRANCH   4  18
ATOM     18  C   UNL     1       5.195   3.808  16.512  0.00  0.00    +0.000 C 
BRANCH  18  19
ATOM     19  C   UNL     1       5.950   4.870  17.281  0.00  0.00    +0.000 A 
ATOM     20  C   UNL     1       6.996   4.495  18.164  0.00  0.00    +0.000 A 
ATOM     21  C   UNL     1       7.856   5.452  18.710  0.00  0.00    +0.000 A 
ATOM     22  C   UNL     1       7.662   6.758  18.325  0.00  0.00    +0.000 A 
ATOM     23  C   UNL     1       6.607   7.135  17.523  0.00  0.00    +0.000 A 
ATOM     24  C   UNL     1       5.708   6.225  17.019  0.00  0.00    +0.000 A 
ATOM     25  O   UNL     1       6.654   8.459  17.204  0.00  0.00    +0.000 OA
ATOM     26  C   UNL     1       8.012   8.733  17.593  0.00  0.00    +0.000 C 
ATOM     27  O   UNL     1       8.503   7.801  18.579  0.00  0.00    +0.000 OA
ENDBRANCH  18  19
ENDBRANCH   4  18
TORSDOF 4
ENDMDL
MODEL 9
REMARK VINA RESULT:      -8.0      3.834      5.875
REMARK  Name = 
REMARK  5 active torsions:
REMARK  status: ('A' for Active; 'I' for Inactive)
REMARK    1  A    between atoms: C_1  and  C_2
REMARK    2  A    between atoms: C_3  and  C_4
REMARK    3  A    between atoms: C_7  and  C_8
REMARK    4  A    between atoms: N_11  and  C_12
REMARK    5  A    between atoms: C_12  and  C_13
REMARK                            x       y       z     vdW  Elec       q    Type
REMARK                         _______ _______ _______ _____ _____    ______ ____
ROOT
ATOM      1  C   UNL     1       4.210   3.594  17.319  0.00  0.00    +0.000 C 
ATOM      2  C   UNL     1       3.822   2.697  18.543  0.00  0.00    +0.000 C 
ATOM      3  C   UNL     1       3.535   3.434  19.881  0.00  0.00    +0.000 C 
ATOM      4  N   UNL     1       2.329   4.281  19.793  0.00  0.00    +0.000 NA
ATOM      5  C   UNL     1       2.147   4.836  18.445  0.00  0.00    +0.000 C 
ATOM      6  C   UNL     1       2.667   3.869  17.345  0.00  0.00    +0.000 C 
ATOM      7  N   UNL     1       2.529   2.412  17.779  0.00  0.00    +0.000 NA
ATOM      8  H   UNL     1       2.645   1.746  17.017  0.00  0.00    +0.000 HD
ENDROOT
BRANCH   1  12
ATOM      9  C   UNL     1       7.245   6.840  17.663  0.00  0.00    +0.000 A 
ATOM     10  C   UNL     1       7.531   5.538  18.085  0.00  0.00    +0.000 A 
ATOM     11  C   UNL     1       6.573   4.519  17.967  0.00  0.00    +0.000 A 
ATOM     12  C   UNL     1       5.292   4.754  17.433  0.00  0.00    +0.000 A 
ATOM     13  C   UNL     1       5.060   6.053  16.953  0.00  0.00    +0.000 A 
ATOM     14  C   UNL     1       5.997   7.082  17.091  0.00  0.00    +0.000 A 
BRANCH   9  17
ATOM     15  C   UNL     1       8.917  10.295  18.188  0.00  0.00    +0.000 C 
ATOM     16  C   UNL     1       7.932   9.232  17.840  0.00  0.00    +0.000 C 
ATOM     17  C   UNL     1       8.208   7.916  17.915  0.00  0.00    +0.000 C 
ENDBRANCH   9  17
ENDBRANCH   1  12
BRANCH   4  18
ATOM     18  C   UNL     1       2.219   5.303  20.840  0.00  0.00    +0.000 C 
BRANCH  18  19
ATOM     19  C   UNL     1       1.736   6.625  20.283  0.00  0.00    +0.000 A 
ATOM     20  C   UNL     1       0.977   7.503  21.100  0.00  0.00    +0.000 A 
ATOM     21  C   UNL     1       0.712   8.814  20.697  0.00  0.00    +0.000 A 
ATOM     22  C   UNL     1       1.250   9.220  19.498  0.00  0.00    +0.000 A 
ATOM     23  C   UNL     1       1.929   8.352  18.670  0.00  0.00    +0.000 A 
ATOM     24  C   UNL     1       2.153   7.039  19.011  0.00  0.00    +0.000 A 
ATOM     25  O   UNL     1       2.441   8.983  17.576  0.00  0.00    +0.000 OA
ATOM     26  C   UNL     1       2.306  10.345  18.022  0.00  0.00    +0.000 C 
ATOM     27  O   UNL     1       1.281  10.498  19.025  0.00  0.00    +0.000 OA
ENDBRANCH  18  19
ENDBRANCH   4  18
TORSDOF 4
ENDMDL
