MODEL 1
REMARK VINA RESULT:      -7.9      0.000      0.000
REMARK  Name = 
REMARK  5 active torsions:
REMARK  status: ('A' for Active; 'I' for Inactive)
REMARK    1  A    between atoms: C_2  and  C_11
REMARK    2  A    between atoms: N_3  and  C_4
REMARK    3  A    between atoms: C_4  and  C_5
REMARK    4  A    between atoms: C_17  and  S_18
REMARK    5  A    between atoms: S_18  and  N_21
REMARK                            x       y       z     vdW  Elec       q    Type
REMARK                         _______ _______ _______ _____ _____    ______ ____
ROOT
ATOM      1  C   UNL     1       6.975   6.831  17.454  0.00  0.00    +0.000 A 
ATOM      2  C   UNL     1       7.269   8.161  17.250  0.00  0.00    +0.000 A 
ATOM      3  N   UNL     1       8.178   8.522  18.210  0.00  0.00    +0.000 N 
ATOM      4  C   UNL     1       8.734   9.816  18.422  0.00  0.00    +0.000 A 
ATOM      5  C   UNL     1       8.293  10.875  17.624  0.00  0.00    +0.000 A 
ATOM      6  C   UNL     1       8.793  12.150  17.849  0.00  0.00    +0.000 A 
ATOM      7  C   UNL     1       9.720  12.338  18.865  0.00  0.00    +0.000 A 
ATOM      8  C   UNL     1      10.139  11.246  19.602  0.00  0.00    +0.000 A 
ATOM      9  N   UNL     1       9.654   9.985  19.410  0.00  0.00    +0.000 NA
ATOM     10  C   UNL     1       8.424   7.376  18.939  0.00  0.00    +0.000 A 
ATOM     11  N   UNL     1       7.707   6.348  18.521  0.00  0.00    +0.000 NA
ENDROOT
BRANCH   1  13
ATOM     12  O   UNL     1       5.537   6.535  15.614  0.00  0.00    +0.000 OA
ATOM     13  C   UNL     1       6.023   6.076  16.644  0.00  0.00    +0.000 C 
ATOM     14  N   UNL     1       5.711   4.839  17.138  0.00  0.00    +0.000 N 
ATOM     15  H   UNL     1       6.123   4.568  18.026  0.00  0.00    +0.000 HD
BRANCH  14  16
ATOM     16  C   UNL     1       4.778   3.964  16.466  0.00  0.00    +0.000 C 
BRANCH  16  17
ATOM     17  C   UNL     1       3.539   3.647  17.274  0.00  0.00    +0.000 A 
ATOM     18  C   UNL     1       3.270   2.346  17.703  0.00  0.00    +0.000 A 
ATOM     19  C   UNL     1       2.141   2.110  18.485  0.00  0.00    +0.000 A 
ATOM     20  C   UNL     1       1.317   3.174  18.828  0.00  0.00    +0.000 A 
ATOM     21  C   UNL     1       1.654   4.433  18.368  0.00  0.00    +0.000 A 
ATOM     22  N   UNL     1       2.736   4.692  17.599  0.00  0.00    +0.000 NA
ENDBRANCH  16  17
ENDBRANCH  14  16
ENDBRANCH   1  13
BRANCH   7  23
ATOM     23  S   UNL     1      10.328  13.946  19.221  0.00  0.00    +0.000 S 
ATOM     24  O   UNL     1       9.230  14.708  19.771  0.00  0.00    +0.000 OA
ATOM     25  O   UNL     1      11.574  13.796  19.952  0.00  0.00    +0.000 OA
BRANCH  23  26
ATOM     26  N   UNL     1      10.724  14.599  17.700  0.00  0.00    +0.000 NA
ATOM     27  C   UNL     1      12.154  14.879  17.421  0.00  0.00    +0.000 C 
ATOM     28  C   UNL     1      12.322  16.367  17.639  0.00  0.00    +0.000 C 
ATOM     29  C   UNL     1      11.006  16.951  17.169  0.00  0.00    +0.000 C 
ATOM     30  C   UNL     1       9.969  15.854  17.388  0.00  0.00    +0.000 C 
ENDBRANCH  23  26
ENDBRANCH   7  23
TORSDOF 5
ENDMDL
MODEL 2
REMARK VINA RESULT:      -7.9      6.386     11.271
REMARK  Name = 
REMARK  5 active torsions:
REMARK  status: ('A' for Active; 'I' for Inactive)
REMARK    1  A    between atoms: C_2  and  C_11
REMARK    2  A    between atoms: N_3  and  C_4
REMARK    3  A    between atoms: C_4  and  C_5
REMARK    4  A    between atoms: C_17  and  S_18
REMARK    5  A    between atoms: S_18  and  N_21
REMARK                            x       y       z     vdW  Elec       q    Type
REMARK                         _______ _______ _______ _____ _____    ______ ____
ROOT
ATOM      1  C   UNL     1       0.423  10.844  19.635  0.00  0.00    +0.000 A 
ATOM      2  C   UNL     1       1.167   9.981  18.863  0.00  0.00    +0.000 A 
ATOM      3  N   UNL     1       1.418   8.873  19.630  0.00  0.00    +0.000 N 
ATOM      4  C   UNL     1       2.195   7.736  19.267  0.00  0.00    +0.000 A 
ATOM      5  C   UNL     1       2.833   7.728  18.024  0.00  0.00    +0.000 A 
ATOM      6  C   UNL     1       3.630   6.646  17.676  0.00  0.00    +0.000 A 
ATOM      7  C   UNL     1       3.769   5.598  18.575  0.00  0.00    +0.000 A 
ATOM      8  C   UNL     1       3.089   5.649  19.778  0.00  0.00    +0.000 A 
ATOM      9  N   UNL     1       2.312   6.707  20.150  0.00  0.00    +0.000 NA
ATOM     10  C   UNL     1       0.780   9.101  20.833  0.00  0.00    +0.000 A 
ATOM     11  N   UNL     1       0.187  10.281  20.874  0.00  0.00    +0.000 NA
ENDROOT
BRANCH   1  13
ATOM     12  O   UNL     1      -0.789  12.286  18.223  0.00  0.00    +0.000 OA
ATOM     13  C   UNL     1      -0.030  12.156  19.180  0.00  0.00    +0.000 C 
ATOM     14  N   UNL     1       0.473  13.210  19.892  0.00  0.00    +0.000 N 
ATOM     15  H   UNL     1       1.135  13.006  20.634  0.00  0.00    +0.000 HD
BRANCH  14  16
ATOM     16  C   UNL     1       0.134  14.578  19.569  0.00  0.00    +0.000 C 
BRANCH  16  17
ATOM     17  C   UNL     1       1.220  15.321  18.822  0.00  0.00    +0.000 A 
ATOM     18  C   UNL     1       2.401  14.682  18.441  0.00  0.00    +0.000 A 
ATOM     19  C   UNL     1       3.353  15.394  17.714  0.00  0.00    +0.000 A 
ATOM     20  C   UNL     1       3.101  16.717  17.375  0.00  0.00    +0.000 A 
ATOM     21  C   UNL     1       1.905  17.276  17.786  0.00  0.00    +0.000 A 
ATOM     22  N   UNL     1       0.968  16.616  18.502  0.00  0.00    +0.000 NA
ENDBRANCH  16  17
ENDBRANCH  14  16
ENDBRANCH   1  13
BRANCH   7  23
ATOM     23  S   UNL     1       4.817   4.242  18.197  0.00  0.00    +0.000 S 
ATOM     24  O   UNL     1       5.619   4.623  17.056  0.00  0.00    +0.000 OA
ATOM     25  O   UNL     1       5.440   3.804  19.433  0.00  0.00    +0.000 OA
BRANCH  23  26
ATOM     26  N   UNL     1       3.755   3.003  17.713  0.00  0.00    +0.000 NA
ATOM     27  C   UNL     1       2.432   3.403  17.171  0.00  0.00    +0.000 C 
ATOM     28  C   UNL     1       1.458   3.221  18.316  0.00  0.00    +0.000 C 
ATOM     29  C   UNL     1       1.991   2.010  19.053  0.00  0.00    +0.000 C 
ATOM     30  C   UNL     1       3.494   2.000  18.794  0.00  0.00    +0.000 C 
ENDBRANCH  23  26
ENDBRANCH   7  23
TORSDOF 5
ENDMDL
MODEL 3
REMARK VINA RESULT:      -7.8      8.048     12.000
REMARK  Name = 
REMARK  5 active torsions:
REMARK  status: ('A' for Active; 'I' for Inactive)
REMARK    1  A    between atoms: C_2  and  C_11
REMARK    2  A    between atoms: N_3  and  C_4
REMARK    3  A    between atoms: C_4  and  C_5
REMARK    4  A    between atoms: C_17  and  S_18
REMARK    5  A    between atoms: S_18  and  N_21
REMARK                            x       y       z     vdW  Elec       q    Type
REMARK                         _______ _______ _______ _____ _____    ______ ____
ROOT
ATOM      1  C   UNL     1      -0.871  11.444  21.207  0.00  0.00    +0.000 A 
ATOM      2  C   UNL     1      -0.140  10.288  21.366  0.00  0.00    +0.000 A 
ATOM      3  N   UNL     1       0.445  10.015  20.157  0.00  0.00    +0.000 N 
ATOM      4  C   UNL     1       1.253   8.889  19.830  0.00  0.00    +0.000 A 
ATOM      5  C   UNL     1       1.456   7.903  20.800  0.00  0.00    +0.000 A 
ATOM      6  C   UNL     1       2.204   6.779  20.481  0.00  0.00    +0.000 A 
ATOM      7  C   UNL     1       2.734   6.666  19.202  0.00  0.00    +0.000 A 
ATOM      8  C   UNL     1       2.524   7.688  18.295  0.00  0.00    +0.000 A 
ATOM      9  N   UNL     1       1.780   8.796  18.579  0.00  0.00    +0.000 NA
ATOM     10  C   UNL     1       0.067  11.045  19.320  0.00  0.00    +0.000 A 
ATOM     11  N   UNL     1      -0.734  11.911  19.915  0.00  0.00    +0.000 NA
ENDROOT
BRANCH   1  13
ATOM     12  O   UNL     1      -1.252  12.139  23.424  0.00  0.00    +0.000 OA
ATOM     13  C   UNL     1      -1.664  12.057  22.270  0.00  0.00    +0.000 C 
ATOM     14  N   UNL     1      -2.894  12.506  21.875  0.00  0.00    +0.000 N 
ATOM     15  H   UNL     1      -3.168  12.346  20.910  0.00  0.00    +0.000 HD
BRANCH  14  16
ATOM     16  C   UNL     1      -3.810  13.131  22.802  0.00  0.00    +0.000 C 
BRANCH  16  17
ATOM     17  C   UNL     1      -5.262  12.780  22.562  0.00  0.00    +0.000 A 
ATOM     18  C   UNL     1      -5.752  12.575  21.272  0.00  0.00    +0.000 A 
ATOM     19  C   UNL     1      -7.086  12.208  21.102  0.00  0.00    +0.000 A 
ATOM     20  C   UNL     1      -7.893  12.044  22.220  0.00  0.00    +0.000 A 
ATOM     21  C   UNL     1      -7.332  12.261  23.466  0.00  0.00    +0.000 A 
ATOM     22  N   UNL     1      -6.046  12.628  23.661  0.00  0.00    +0.000 NA
ENDBRANCH  16  17
ENDBRANCH  14  16
ENDBRANCH   1  13
BRANCH   7  23
ATOM     23  S   UNL     1       3.633   5.231  18.742  0.00  0.00    +0.000 S 
ATOM     24  O   UNL     1       3.448   5.044  17.320  0.00  0.00    +0.000 OA
ATOM     25  O   UNL     1       4.964   5.339  19.313  0.00  0.00    +0.000 OA
BRANCH  23  26
ATOM     26  N   UNL     1       2.849   3.957  19.554  0.00  0.00    +0.000 NA
ATOM     27  C   UNL     1       3.595   2.685  19.723  0.00  0.00    +0.000 C 
ATOM     28  C   UNL     1       3.069   1.765  18.642  0.00  0.00    +0.000 C 
ATOM     29  C   UNL     1       1.607   2.141  18.529  0.00  0.00    +0.000 C 
ATOM     30  C   UNL     1       1.525   3.604  18.950  0.00  0.00    +0.000 C 
ENDBRANCH  23  26
ENDBRANCH   7  23
TORSDOF 5
ENDMDL
MODEL 4
REMARK VINA RESULT:      -7.8      0.992      1.398
REMARK  Name = 
REMARK  5 active torsions:
REMARK  status: ('A' for Active; 'I' for Inactive)
REMARK    1  A    between atoms: C_2  and  C_11
REMARK    2  A    between atoms: N_3  and  C_4
REMARK    3  A    between atoms: C_4  and  C_5
REMARK    4  A    between atoms: C_17  and  S_18
REMARK    5  A    between atoms: S_18  and  N_21
REMARK                            x       y       z     vdW  Elec       q    Type
REMARK                         _______ _______ _______ _____ _____    ______ ____
ROOT
ATOM      1  C   UNL     1       7.035   6.789  17.492  0.00  0.00    +0.000 A 
ATOM      2  C   UNL     1       7.311   8.119  17.264  0.00  0.00    +0.000 A 
ATOM      3  N   UNL     1       8.187   8.519  18.239  0.00  0.00    +0.000 N 
ATOM      4  C   UNL     1       8.713   9.828  18.436  0.00  0.00    +0.000 A 
ATOM      5  C   UNL     1       8.276  10.859  17.600  0.00  0.00    +0.000 A 
ATOM      6  C   UNL     1       8.746  12.149  17.808  0.00  0.00    +0.000 A 
ATOM      7  C   UNL     1       9.641  12.377  18.844  0.00  0.00    +0.000 A 
ATOM      8  C   UNL     1      10.059  11.311  19.619  0.00  0.00    +0.000 A 
ATOM      9  N   UNL     1       9.602  10.038  19.444  0.00  0.00    +0.000 NA
ATOM     10  C   UNL     1       8.432   7.396  19.002  0.00  0.00    +0.000 A 
ATOM     11  N   UNL     1       7.746   6.345  18.590  0.00  0.00    +0.000 NA
ENDROOT
BRANCH   1  13
ATOM     12  O   UNL     1       5.687   6.406  15.600  0.00  0.00    +0.000 OA
ATOM     13  C   UNL     1       6.120   5.997  16.675  0.00  0.00    +0.000 C 
ATOM     14  N   UNL     1       5.778   4.787  17.214  0.00  0.00    +0.000 N 
ATOM     15  H   UNL     1       6.144   4.559  18.133  0.00  0.00    +0.000 HD
BRANCH  14  16
ATOM     16  C   UNL     1       4.874   3.882  16.540  0.00  0.00    +0.000 C 
BRANCH  16  17
ATOM     17  C   UNL     1       3.670   3.487  17.367  0.00  0.00    +0.000 A 
ATOM     18  C   UNL     1       2.566   4.333  17.486  0.00  0.00    +0.000 A 
ATOM     19  C   UNL     1       1.461   3.907  18.220  0.00  0.00    +0.000 A 
ATOM     20  C   UNL     1       1.478   2.648  18.805  0.00  0.00    +0.000 A 
ATOM     21  C   UNL     1       2.607   1.868  18.638  0.00  0.00    +0.000 A 
ATOM     22  N   UNL     1       3.698   2.257  17.942  0.00  0.00    +0.000 NA
ENDBRANCH  16  17
ENDBRANCH  14  16
ENDBRANCH   1  13
BRANCH   7  23
ATOM     23  S   UNL     1      10.211  14.004  19.178  0.00  0.00    +0.000 S 
ATOM     24  O   UNL     1       9.818  14.328  20.530  0.00  0.00    +0.000 OA
ATOM     25  O   UNL     1      11.601  14.081  18.765  0.00  0.00    +0.000 OA
BRANCH  23  26
ATOM     26  N   UNL     1       9.324  14.993  18.113  0.00  0.00    +0.000 NA
ATOM     27  C   UNL     1      10.055  16.076  17.409  0.00  0.00    +0.000 C 
ATOM     28  C   UNL     1       9.740  17.340  18.180  0.00  0.00    +0.000 C 
ATOM     29  C   UNL     1       8.312  17.135  18.640  0.00  0.00    +0.000 C 
ATOM     30  C   UNL     1       8.130  15.626  18.759  0.00  0.00    +0.000 C 
ENDBRANCH  23  26
ENDBRANCH   7  23
TORSDOF 5
ENDMDL
MODEL 5
REMARK VINA RESULT:      -7.8      7.940     11.068
REMARK  Name = 
REMARK  5 active torsions:
REMARK  status: ('A' for Active; 'I' for Inactive)
REMARK    1  A    between atoms: C_2  and  C_11
REMARK    2  A    between atoms: N_3  and  C_4
REMARK    3  A    between atoms: C_4  and  C_5
REMARK    4  A    between atoms: C_17  and  S_18
REMARK    5  A    between atoms: S_18  and  N_21
REMARK                            x       y       z     vdW  Elec       q    Type
REMARK                         _______ _______ _______ _____ _____    ______ ____
ROOT
ATOM      1  C   UNL     1      -0.688  11.291  21.098  0.00  0.00    +0.000 A 
ATOM      2  C   UNL     1       0.049  10.129  21.153  0.00  0.00    +0.000 A 
ATOM      3  N   UNL     1       0.621   9.961  19.918  0.00  0.00    +0.000 N 
ATOM      4  C   UNL     1       1.430   8.870  19.489  0.00  0.00    +0.000 A 
ATOM      5  C   UNL     1       1.648   7.808  20.371  0.00  0.00    +0.000 A 
ATOM      6  C   UNL     1       2.397   6.718  19.951  0.00  0.00    +0.000 A 
ATOM      7  C   UNL     1       2.912   6.715  18.662  0.00  0.00    +0.000 A 
ATOM      8  C   UNL     1       2.688   7.808  17.845  0.00  0.00    +0.000 A 
ATOM      9  N   UNL     1       1.943   8.884  18.229  0.00  0.00    +0.000 NA
ATOM     10  C   UNL     1       0.230  11.055  19.175  0.00  0.00    +0.000 A 
ATOM     11  N   UNL     1      -0.568  11.865  19.848  0.00  0.00    +0.000 NA
ENDROOT
BRANCH   1  13
ATOM     12  O   UNL     1      -1.162  11.587  23.386  0.00  0.00    +0.000 OA
ATOM     13  C   UNL     1      -1.471  11.809  22.217  0.00  0.00    +0.000 C 
ATOM     14  N   UNL     1      -2.572  12.534  21.854  0.00  0.00    +0.000 N 
ATOM     15  H   UNL     1      -2.775  12.619  20.863  0.00  0.00    +0.000 HD
BRANCH  14  16
ATOM     16  C   UNL     1      -3.462  13.112  22.836  0.00  0.00    +0.000 C 
BRANCH  16  17
ATOM     17  C   UNL     1      -4.924  12.810  22.593  0.00  0.00    +0.000 A 
ATOM     18  C   UNL     1      -5.412  12.589  21.304  0.00  0.00    +0.000 A 
ATOM     19  C   UNL     1      -6.758  12.269  21.133  0.00  0.00    +0.000 A 
ATOM     20  C   UNL     1      -7.579  12.167  22.249  0.00  0.00    +0.000 A 
ATOM     21  C   UNL     1      -7.019  12.397  23.492  0.00  0.00    +0.000 A 
ATOM     22  N   UNL     1      -5.722  12.720  23.689  0.00  0.00    +0.000 NA
ENDBRANCH  16  17
ENDBRANCH  14  16
ENDBRANCH   1  13
BRANCH   7  23
ATOM     23  S   UNL     1       3.813   5.327  18.073  0.00  0.00    +0.000 S 
ATOM     24  O   UNL     1       4.665   4.879  19.151  0.00  0.00    +0.000 OA
ATOM     25  O   UNL     1       2.869   4.422  17.442  0.00  0.00    +0.000 OA
BRANCH  23  26
ATOM     26  N   UNL     1       4.801   5.953  16.836  0.00  0.00    +0.000 NA
ATOM     27  C   UNL     1       5.231   5.023  15.762  0.00  0.00    +0.000 C 
ATOM     28  C   UNL     1       6.647   4.626  16.120  0.00  0.00    +0.000 C 
ATOM     29  C   UNL     1       7.225   5.877  16.748  0.00  0.00    +0.000 C 
ATOM     30  C   UNL     1       6.038   6.618  17.354  0.00  0.00    +0.000 C 
ENDBRANCH  23  26
ENDBRANCH   7  23
TORSDOF 5
ENDMDL
MODEL 6
REMARK VINA RESULT:      -7.7      6.146      9.430
REMARK  Name = 
REMARK  5 active torsions:
REMARK  status: ('A' for Active; 'I' for Inactive)
REMARK    1  A    between atoms: C_2  and  C_11
REMARK    2  A    between atoms: N_3  and  C_4
REMARK    3  A    between atoms: C_4  and  C_5
REMARK    4  A    between atoms: C_17  and  S_18
REMARK    5  A    between atoms: S_18  and  N_21
REMARK                            x       y       z     vdW  Elec       q    Type
REMARK                         _______ _______ _______ _____ _____    ______ ____
ROOT
ATOM      1  C   UNL     1       0.723   9.247  20.515  0.00  0.00    +0.000 A 
ATOM      2  C   UNL     1       1.441   8.960  19.375  0.00  0.00    +0.000 A 
ATOM      3  N   UNL     1       2.042   7.745  19.577  0.00  0.00    +0.000 N 
ATOM      4  C   UNL     1       2.926   7.067  18.689  0.00  0.00    +0.000 A 
ATOM      5  C   UNL     1       3.290   7.695  17.495  0.00  0.00    +0.000 A 
ATOM      6  C   UNL     1       4.185   7.066  16.641  0.00  0.00    +0.000 A 
ATOM      7  C   UNL     1       4.695   5.825  16.999  0.00  0.00    +0.000 A 
ATOM      8  C   UNL     1       4.274   5.241  18.179  0.00  0.00    +0.000 A 
ATOM      9  N   UNL     1       3.407   5.844  19.042  0.00  0.00    +0.000 NA
ATOM     10  C   UNL     1       1.631   7.329  20.826  0.00  0.00    +0.000 A 
ATOM     11  N   UNL     1       0.850   8.214  21.421  0.00  0.00    +0.000 NA
ENDROOT
BRANCH   1  13
ATOM     12  O   UNL     1      -0.457  10.823  21.806  0.00  0.00    +0.000 OA
ATOM     13  C   UNL     1      -0.047  10.474  20.702  0.00  0.00    +0.000 C 
ATOM     14  N   UNL     1      -0.285  11.177  19.553  0.00  0.00    +0.000 N 
ATOM     15  H   UNL     1       0.048  10.781  18.679  0.00  0.00    +0.000 HD
BRANCH  14  16
ATOM     16  C   UNL     1      -1.040  12.410  19.558  0.00  0.00    +0.000 C 
BRANCH  16  17
ATOM     17  C   UNL     1      -2.504  12.236  19.218  0.00  0.00    +0.000 A 
ATOM     18  C   UNL     1      -2.902  11.589  18.047  0.00  0.00    +0.000 A 
ATOM     19  C   UNL     1      -4.261  11.410  17.799  0.00  0.00    +0.000 A 
ATOM     20  C   UNL     1      -5.188  11.870  18.725  0.00  0.00    +0.000 A 
ATOM     21  C   UNL     1      -4.714  12.497  19.863  0.00  0.00    +0.000 A 
ATOM     22  N   UNL     1      -3.403  12.695  20.126  0.00  0.00    +0.000 NA
ENDBRANCH  16  17
ENDBRANCH  14  16
ENDBRANCH   1  13
BRANCH   7  23
ATOM     23  S   UNL     1       5.876   5.026  15.975  0.00  0.00    +0.000 S 
ATOM     24  O   UNL     1       5.672   3.602  16.114  0.00  0.00    +0.000 OA
ATOM     25  O   UNL     1       5.835   5.663  14.671  0.00  0.00    +0.000 OA
BRANCH  23  26
ATOM     26  N   UNL     1       7.379   5.421  16.671  0.00  0.00    +0.000 NA
ATOM     27  C   UNL     1       7.821   4.633  17.848  0.00  0.00    +0.000 C 
ATOM     28  C   UNL     1       7.509   5.499  19.050  0.00  0.00    +0.000 C 
ATOM     29  C   UNL     1       7.753   6.908  18.552  0.00  0.00    +0.000 C 
ATOM     30  C   UNL     1       7.488   6.865  17.050  0.00  0.00    +0.000 C 
ENDBRANCH  23  26
ENDBRANCH   7  23
TORSDOF 5
ENDMDL
MODEL 7
REMARK VINA RESULT:      -7.7      7.292     11.296
REMARK  Name = 
REMARK  5 active torsions:
REMARK  status: ('A' for Active; 'I' for Inactive)
REMARK    1  A    between atoms: C_2  and  C_11
REMARK    2  A    between atoms: N_3  and  C_4
REMARK    3  A    between atoms: C_4  and  C_5
REMARK    4  A    between atoms: C_17  and  S_18
REMARK    5  A    between atoms: S_18  and  N_21
REMARK                            x       y       z     vdW  Elec       q    Type
REMARK                         _______ _______ _______ _____ _____    ______ ____
ROOT
ATOM      1  C   UNL     1       0.065  10.447  19.952  0.00  0.00    +0.000 A 
ATOM      2  C   UNL     1       0.729   9.282  20.266  0.00  0.00    +0.000 A 
ATOM      3  N   UNL     1       1.461   8.930  19.161  0.00  0.00    +0.000 N 
ATOM      4  C   UNL     1       2.267   7.767  19.003  0.00  0.00    +0.000 A 
ATOM      5  C   UNL     1       2.305   6.829  20.038  0.00  0.00    +0.000 A 
ATOM      6  C   UNL     1       3.052   5.670  19.879  0.00  0.00    +0.000 A 
ATOM      7  C   UNL     1       3.743   5.475  18.691  0.00  0.00    +0.000 A 
ATOM      8  C   UNL     1       3.691   6.453  17.715  0.00  0.00    +0.000 A 
ATOM      9  N   UNL     1       2.954   7.594  17.840  0.00  0.00    +0.000 NA
ATOM     10  C   UNL     1       1.233   9.924  18.232  0.00  0.00    +0.000 A 
ATOM     11  N   UNL     1       0.389  10.841  18.669  0.00  0.00    +0.000 NA
ENDROOT
BRANCH   1  13
ATOM     12  O   UNL     1      -0.851  10.904  22.073  0.00  0.00    +0.000 OA
ATOM     13  C   UNL     1      -0.842  11.136  20.866  0.00  0.00    +0.000 C 
ATOM     14  N   UNL     1      -1.681  12.035  20.266  0.00  0.00    +0.000 N 
ATOM     15  H   UNL     1      -1.636  12.120  19.255  0.00  0.00    +0.000 HD
BRANCH  14  16
ATOM     16  C   UNL     1      -2.648  12.797  21.023  0.00  0.00    +0.000 C 
BRANCH  16  17
ATOM     17  C   UNL     1      -4.084  12.536  20.625  0.00  0.00    +0.000 A 
ATOM     18  C   UNL     1      -4.427  12.255  19.301  0.00  0.00    +0.000 A 
ATOM     19  C   UNL     1      -5.756  11.975  18.989  0.00  0.00    +0.000 A 
ATOM     20  C   UNL     1      -6.706  11.973  20.002  0.00  0.00    +0.000 A 
ATOM     21  C   UNL     1      -6.286  12.257  21.289  0.00  0.00    +0.000 A 
ATOM     22  N   UNL     1      -5.008  12.543  21.620  0.00  0.00    +0.000 NA
ENDBRANCH  16  17
ENDBRANCH  14  16
ENDBRANCH   1  13
BRANCH   7  23
ATOM     23  S   UNL     1       4.648   3.994  18.428  0.00  0.00    +0.000 S 
ATOM     24  O   UNL     1       5.486   4.202  17.268  0.00  0.00    +0.000 OA
ATOM     25  O   UNL     1       5.221   3.593  19.700  0.00  0.00    +0.000 OA
BRANCH  23  26
ATOM     26  N   UNL     1       3.465   2.836  18.031  0.00  0.00    +0.000 NA
ATOM     27  C   UNL     1       2.309   3.284  17.216  0.00  0.00    +0.000 C 
ATOM     28  C   UNL     1       1.179   3.490  18.202  0.00  0.00    +0.000 C 
ATOM     29  C   UNL     1       1.403   2.408  19.237  0.00  0.00    +0.000 C 
ATOM     30  C   UNL     1       2.904   2.137  19.230  0.00  0.00    +0.000 C 
ENDBRANCH  23  26
ENDBRANCH   7  23
TORSDOF 5
ENDMDL
MODEL 8
REMARK VINA RESULT:      -7.7      8.607     11.432
REMARK  Name = 
REMARK  5 active torsions:
REMARK  status: ('A' for Active; 'I' for Inactive)
REMARK    1  A    between atoms: C_2  and  C_11
REMARK    2  A    between atoms: N_3  and  C_4
REMARK    3  A    between atoms: C_4  and  C_5
REMARK    4  A    between atoms: C_17  and  S_18
REMARK    5  A    between atoms: S_18  and  N_21
REMARK                            x       y       z     vdW  Elec       q    Type
REMARK                         _______ _______ _______ _____ _____    ______ ____
ROOT
ATOM      1  C   UNL     1       1.503   8.718  19.698  0.00  0.00    +0.000 A 
ATOM      2  C   UNL     1       0.621   9.776  19.673  0.00  0.00    +0.000 A 
ATOM      3  N   UNL     1       0.145   9.929  20.949  0.00  0.00    +0.000 N 
ATOM      4  C   UNL     1      -0.831  10.867  21.394  0.00  0.00    +0.000 A 
ATOM      5  C   UNL     1      -1.434  11.705  20.452  0.00  0.00    +0.000 A 
ATOM      6  C   UNL     1      -2.419  12.592  20.864  0.00  0.00    +0.000 A 
ATOM      7  C   UNL     1      -2.777  12.623  22.205  0.00  0.00    +0.000 A 
ATOM      8  C   UNL     1      -2.123  11.789  23.094  0.00  0.00    +0.000 A 
ATOM      9  N   UNL     1      -1.163  10.899  22.713  0.00  0.00    +0.000 NA
ATOM     10  C   UNL     1       0.790   8.972  21.705  0.00  0.00    +0.000 A 
ATOM     11  N   UNL     1       1.601   8.220  20.982  0.00  0.00    +0.000 NA
ENDROOT
BRANCH   1  13
ATOM     12  O   UNL     1       2.244   8.855  17.468  0.00  0.00    +0.000 OA
ATOM     13  C   UNL     1       2.211   8.223  18.521  0.00  0.00    +0.000 C 
ATOM     14  N   UNL     1       2.808   7.004  18.687  0.00  0.00    +0.000 N 
ATOM     15  H   UNL     1       2.681   6.533  19.578  0.00  0.00    +0.000 HD
BRANCH  14  16
ATOM     16  C   UNL     1       3.543   6.364  17.619  0.00  0.00    +0.000 C 
BRANCH  16  17
ATOM     17  C   UNL     1       5.027   6.232  17.886  0.00  0.00    +0.000 A 
ATOM     18  C   UNL     1       5.964   6.921  17.114  0.00  0.00    +0.000 A 
ATOM     19  C   UNL     1       7.317   6.805  17.426  0.00  0.00    +0.000 A 
ATOM     20  C   UNL     1       7.701   6.018  18.503  0.00  0.00    +0.000 A 
ATOM     21  C   UNL     1       6.712   5.371  19.222  0.00  0.00    +0.000 A 
ATOM     22  N   UNL     1       5.394   5.455  18.937  0.00  0.00    +0.000 NA
ENDBRANCH  16  17
ENDBRANCH  14  16
ENDBRANCH   1  13
BRANCH   7  23
ATOM     23  S   UNL     1      -4.061  13.687  22.753  0.00  0.00    +0.000 S 
ATOM     24  O   UNL     1      -3.715  14.127  24.086  0.00  0.00    +0.000 OA
ATOM     25  O   UNL     1      -4.324  14.646  21.695  0.00  0.00    +0.000 OA
BRANCH  23  26
ATOM     26  N   UNL     1      -5.431  12.682  22.862  0.00  0.00    +0.000 NA
ATOM     27  C   UNL     1      -6.510  12.880  21.863  0.00  0.00    +0.000 C 
ATOM     28  C   UNL     1      -7.569  13.697  22.573  0.00  0.00    +0.000 C 
ATOM     29  C   UNL     1      -7.511  13.198  24.001  0.00  0.00    +0.000 C 
ATOM     30  C   UNL     1      -6.078  12.719  24.211  0.00  0.00    +0.000 C 
ENDBRANCH  23  26
ENDBRANCH   7  23
TORSDOF 5
ENDMDL
MODEL 9
REMARK VINA RESULT:      -7.6      6.380     10.818
REMARK  Name = 
REMARK  5 active torsions:
REMARK  status: ('A' for Active; 'I' for Inactive)
REMARK    1  A    between atoms: C_2  and  C_11
REMARK    2  A    between atoms: N_3  and  C_4
REMARK    3  A    between atoms: C_4  and  C_5
REMARK    4  A    between atoms: C_17  and  S_18
REMARK    5  A    between atoms: S_18  and  N_21
REMARK                            x       y       z     vdW  Elec       q    Type
REMARK                         _______ _______ _______ _____ _____    ______ ____
ROOT
ATOM      1  C   UNL     1       0.482  10.907  21.275  0.00  0.00    +0.000 A 
ATOM      2  C   UNL     1       1.006  10.168  20.237  0.00  0.00    +0.000 A 
ATOM      3  N   UNL     1       1.219   8.901  20.716  0.00  0.00    +0.000 N 
ATOM      4  C   UNL     1       1.796   7.804  20.014  0.00  0.00    +0.000 A 
ATOM      5  C   UNL     1       2.258   8.010  18.712  0.00  0.00    +0.000 A 
ATOM      6  C   UNL     1       2.864   6.961  18.032  0.00  0.00    +0.000 A 
ATOM      7  C   UNL     1       2.992   5.734  18.668  0.00  0.00    +0.000 A 
ATOM      8  C   UNL     1       2.488   5.584  19.947  0.00  0.00    +0.000 A 
ATOM      9  N   UNL     1       1.902   6.602  20.642  0.00  0.00    +0.000 NA
ATOM     10  C   UNL     1       0.779   8.919  22.024  0.00  0.00    +0.000 A 
ATOM     11  N   UNL     1       0.345  10.111  22.395  0.00  0.00    +0.000 NA
ENDROOT
BRANCH   1  13
ATOM     12  O   UNL     1      -0.024  13.028  22.163  0.00  0.00    +0.000 OA
ATOM     13  C   UNL     1       0.137  12.322  21.170  0.00  0.00    +0.000 C 
ATOM     14  N   UNL     1      -0.009  12.779  19.889  0.00  0.00    +0.000 N 
ATOM     15  H   UNL     1       0.091  12.107  19.134  0.00  0.00    +0.000 HD
BRANCH  14  16
ATOM     16  C   UNL     1      -0.359  14.152  19.606  0.00  0.00    +0.000 C 
BRANCH  16  17
ATOM     17  C   UNL     1       0.753  14.950  18.960  0.00  0.00    +0.000 A 
ATOM     18  C   UNL     1       0.623  16.322  18.740  0.00  0.00    +0.000 A 
ATOM     19  C   UNL     1       1.691  17.024  18.185  0.00  0.00    +0.000 A 
ATOM     20  C   UNL     1       2.863  16.346  17.875  0.00  0.00    +0.000 A 
ATOM     21  C   UNL     1       2.914  14.987  18.127  0.00  0.00    +0.000 A 
ATOM     22  N   UNL     1       1.891  14.277  18.654  0.00  0.00    +0.000 NA
ENDBRANCH  16  17
ENDBRANCH  14  16
ENDBRANCH   1  13
BRANCH   7  23
ATOM     23  S   UNL     1       3.806   4.403  17.865  0.00  0.00    +0.000 S 
ATOM     24  O   UNL     1       4.599   3.720  18.862  0.00  0.00    +0.000 OA
ATOM     25  O   UNL     1       2.817   3.687  17.079  0.00  0.00    +0.000 OA
BRANCH  23  26
ATOM     26  N   UNL     1       4.865   5.153  16.763  0.00  0.00    +0.000 NA
ATOM     27  C   UNL     1       5.031   4.523  15.429  0.00  0.00    +0.000 C 
ATOM     28  C   UNL     1       6.330   3.750  15.509  0.00  0.00    +0.000 C 
ATOM     29  C   UNL     1       7.202   4.604  16.406  0.00  0.00    +0.000 C 
ATOM     30  C   UNL     1       6.240   5.357  17.318  0.00  0.00    +0.000 C 
ENDBRANCH  23  26
ENDBRANCH   7  23
TORSDOF 5
ENDMDL
