MODEL 1
REMARK VINA RESULT:      -7.5      0.000      0.000
REMARK  Name = 
REMARK  6 active torsions:
REMARK  status: ('A' for Active; 'I' for Inactive)
REMARK    1  A    between atoms: C_1  and  O_2
REMARK    2  A    between atoms: O_2  and  C_3
REMARK    3  A    between atoms: C_6  and  C_7
REMARK    4  A    between atoms: C_7  and  N_8
REMARK    5  A    between atoms: C_9  and  C_11
REMARK    6  A    between atoms: C_20  and  O_21
REMARK                            x       y       z     vdW  Elec       q    Type
REMARK                         _______ _______ _______ _____ _____    ______ ____
ROOT
ATOM      1  N   UNL     1       3.848   5.311  18.451  0.00  0.00    +0.000 N 
ATOM      2  C   UNL     1       5.204   5.313  18.182  0.00  0.00    +0.000 C 
ATOM      3  O   UNL     1       6.028   5.703  18.998  0.00  0.00    +0.000 OA
ATOM      4  H   UNL     1       3.226   5.088  17.680  0.00  0.00    +0.000 HD
ENDROOT
BRANCH   2   5
ATOM      5  C   UNL     1       5.564   4.840  16.796  0.00  0.00    +0.000 A 
ATOM      6  N   UNL     1       4.736   3.878  16.283  0.00  0.00    +0.000 NA
ATOM      7  C   UNL     1       4.987   3.476  15.016  0.00  0.00    +0.000 A 
ATOM      8  C   UNL     1       6.006   3.996  14.215  0.00  0.00    +0.000 A 
ATOM      9  C   UNL     1       6.223   3.613  12.882  0.00  0.00    +0.000 A 
ATOM     10  C   UNL     1       7.249   4.208  12.155  0.00  0.00    +0.000 A 
ATOM     11  C   UNL     1       8.033   5.152  12.790  0.00  0.00    +0.000 A 
ATOM     12  N   UNL     1       7.859   5.533  14.076  0.00  0.00    +0.000 NA
ATOM     13  C   UNL     1       6.848   4.969  14.774  0.00  0.00    +0.000 A 
ATOM     14  C   UNL     1       6.627   5.381  16.082  0.00  0.00    +0.000 A 
BRANCH  14  15
ATOM     15  O   UNL     1       7.482   6.321  16.598  0.00  0.00    +0.000 OA
ATOM     16  H   UNL     1       6.937   7.125  16.725  0.00  0.00    +0.000 HD
ENDBRANCH  14  15
ENDBRANCH   2   5
BRANCH   1  17
ATOM     17  C   UNL     1       3.325   5.890  19.663  0.00  0.00    +0.000 C 
BRANCH  17  21
ATOM     18  C   UNL     1       1.099   9.518  18.923  0.00  0.00    +0.000 A 
ATOM     19  C   UNL     1       1.069   8.912  20.180  0.00  0.00    +0.000 A 
ATOM     20  C   UNL     1       1.784   7.737  20.416  0.00  0.00    +0.000 A 
ATOM     21  C   UNL     1       2.522   7.133  19.389  0.00  0.00    +0.000 A 
ATOM     22  C   UNL     1       2.535   7.737  18.125  0.00  0.00    +0.000 A 
ATOM     23  C   UNL     1       1.827   8.923  17.893  0.00  0.00    +0.000 A 
BRANCH  18  25
ATOM     24  C   UNL     1      -0.766  10.757  19.682  0.00  0.00    +0.000 C 
ATOM     25  O   UNL     1       0.355  10.661  18.812  0.00  0.00    +0.000 OA
ENDBRANCH  18  25
ENDBRANCH  17  21
ENDBRANCH   1  17
TORSDOF 5
ENDMDL
MODEL 2
REMARK VINA RESULT:      -7.4      0.256      1.037
REMARK  Name = 
REMARK  6 active torsions:
REMARK  status: ('A' for Active; 'I' for Inactive)
REMARK    1  A    between atoms: C_1  and  O_2
REMARK    2  A    between atoms: O_2  and  C_3
REMARK    3  A    between atoms: C_6  and  C_7
REMARK    4  A    between atoms: C_7  and  N_8
REMARK    5  A    between atoms: C_9  and  C_11
REMARK    6  A    between atoms: C_20  and  O_21
REMARK                            x       y       z     vdW  Elec       q    Type
REMARK                         _______ _______ _______ _____ _____    ______ ____
ROOT
ATOM      1  N   UNL     1       3.855   5.269  18.434  0.00  0.00    +0.000 N 
ATOM      2  C   UNL     1       5.216   5.245  18.187  0.00  0.00    +0.000 C 
ATOM      3  O   UNL     1       6.035   5.594  19.026  0.00  0.00    +0.000 OA
ATOM      4  H   UNL     1       3.242   5.080  17.648  0.00  0.00    +0.000 HD
ENDROOT
BRANCH   2   5
ATOM      5  C   UNL     1       5.588   4.798  16.796  0.00  0.00    +0.000 A 
ATOM      6  N   UNL     1       4.791   3.813  16.276  0.00  0.00    +0.000 NA
ATOM      7  C   UNL     1       5.052   3.433  15.004  0.00  0.00    +0.000 A 
ATOM      8  C   UNL     1       6.050   3.995  14.206  0.00  0.00    +0.000 A 
ATOM      9  C   UNL     1       6.277   3.632  12.868  0.00  0.00    +0.000 A 
ATOM     10  C   UNL     1       7.279   4.269  12.145  0.00  0.00    +0.000 A 
ATOM     11  C   UNL     1       8.033   5.233  12.787  0.00  0.00    +0.000 A 
ATOM     12  N   UNL     1       7.850   5.595  14.077  0.00  0.00    +0.000 NA
ATOM     13  C   UNL     1       6.861   4.990  14.772  0.00  0.00    +0.000 A 
ATOM     14  C   UNL     1       6.630   5.381  16.084  0.00  0.00    +0.000 A 
BRANCH  14  15
ATOM     15  O   UNL     1       7.454   6.345  16.608  0.00  0.00    +0.000 OA
ATOM     16  H   UNL     1       7.161   7.186  16.200  0.00  0.00    +0.000 HD
ENDBRANCH  14  15
ENDBRANCH   2   5
BRANCH   1  17
ATOM     17  C   UNL     1       3.326   5.830  19.652  0.00  0.00    +0.000 C 
BRANCH  17  21
ATOM     18  C   UNL     1       1.110   9.458  18.883  0.00  0.00    +0.000 A 
ATOM     19  C   UNL     1       1.867   8.862  17.873  0.00  0.00    +0.000 A 
ATOM     20  C   UNL     1       2.586   7.692  18.124  0.00  0.00    +0.000 A 
ATOM     21  C   UNL     1       2.582   7.113  19.400  0.00  0.00    +0.000 A 
ATOM     22  C   UNL     1       1.834   7.725  20.414  0.00  0.00    +0.000 A 
ATOM     23  C   UNL     1       1.101   8.891  20.157  0.00  0.00    +0.000 A 
BRANCH  18  25
ATOM     24  C   UNL     1      -0.968  10.541  18.569  0.00  0.00    +0.000 C 
ATOM     25  O   UNL     1       0.453  10.600  18.518  0.00  0.00    +0.000 OA
ENDBRANCH  18  25
ENDBRANCH  17  21
ENDBRANCH   1  17
TORSDOF 5
ENDMDL
MODEL 3
REMARK VINA RESULT:      -7.2      3.000      7.903
REMARK  Name = 
REMARK  6 active torsions:
REMARK  status: ('A' for Active; 'I' for Inactive)
REMARK    1  A    between atoms: C_1  and  O_2
REMARK    2  A    between atoms: O_2  and  C_3
REMARK    3  A    between atoms: C_6  and  C_7
REMARK    4  A    between atoms: C_7  and  N_8
REMARK    5  A    between atoms: C_9  and  C_11
REMARK    6  A    between atoms: C_20  and  O_21
REMARK                            x       y       z     vdW  Elec       q    Type
REMARK                         _______ _______ _______ _____ _____    ______ ____
ROOT
ATOM      1  N   UNL     1       6.125   5.632  16.705  0.00  0.00    +0.000 N 
ATOM      2  C   UNL     1       6.249   5.047  17.951  0.00  0.00    +0.000 C 
ATOM      3  O   UNL     1       7.322   4.637  18.373  0.00  0.00    +0.000 OA
ATOM      4  H   UNL     1       5.184   5.833  16.383  0.00  0.00    +0.000 HD
ENDROOT
BRANCH   2   5
ATOM      5  C   UNL     1       4.953   4.922  18.712  0.00  0.00    +0.000 A 
ATOM      6  N   UNL     1       4.156   6.034  18.678  0.00  0.00    +0.000 NA
ATOM      7  C   UNL     1       2.955   5.937  19.293  0.00  0.00    +0.000 A 
ATOM      8  C   UNL     1       2.487   4.783  19.923  0.00  0.00    +0.000 A 
ATOM      9  C   UNL     1       1.216   4.675  20.510  0.00  0.00    +0.000 A 
ATOM     10  C   UNL     1       0.828   3.473  21.092  0.00  0.00    +0.000 A 
ATOM     11  C   UNL     1       1.731   2.425  21.084  0.00  0.00    +0.000 A 
ATOM     12  N   UNL     1       2.967   2.502  20.540  0.00  0.00    +0.000 NA
ATOM     13  C   UNL     1       3.333   3.664  19.956  0.00  0.00    +0.000 A 
ATOM     14  C   UNL     1       4.582   3.746  19.354  0.00  0.00    +0.000 A 
BRANCH  14  15
ATOM     15  O   UNL     1       5.386   2.637  19.422  0.00  0.00    +0.000 OA
ATOM     16  H   UNL     1       4.966   2.051  20.085  0.00  0.00    +0.000 HD
ENDBRANCH  14  15
ENDBRANCH   2   5
BRANCH   1  17
ATOM     17  C   UNL     1       7.233   5.674  15.784  0.00  0.00    +0.000 C 
BRANCH  17  21
ATOM     18  C   UNL     1       6.347   3.470  12.176  0.00  0.00    +0.000 A 
ATOM     19  C   UNL     1       5.614   3.244  13.343  0.00  0.00    +0.000 A 
ATOM     20  C   UNL     1       5.905   3.953  14.509  0.00  0.00    +0.000 A 
ATOM     21  C   UNL     1       6.953   4.883  14.535  0.00  0.00    +0.000 A 
ATOM     22  C   UNL     1       7.695   5.093  13.365  0.00  0.00    +0.000 A 
ATOM     23  C   UNL     1       7.394   4.391  12.192  0.00  0.00    +0.000 A 
BRANCH  18  25
ATOM     24  C   UNL     1       5.973   1.304  11.303  0.00  0.00    +0.000 C 
ATOM     25  O   UNL     1       5.972   2.712  11.100  0.00  0.00    +0.000 OA
ENDBRANCH  18  25
ENDBRANCH  17  21
ENDBRANCH   1  17
TORSDOF 5
ENDMDL
MODEL 4
REMARK VINA RESULT:      -7.2      2.349      8.184
REMARK  Name = 
REMARK  6 active torsions:
REMARK  status: ('A' for Active; 'I' for Inactive)
REMARK    1  A    between atoms: C_1  and  O_2
REMARK    2  A    between atoms: O_2  and  C_3
REMARK    3  A    between atoms: C_6  and  C_7
REMARK    4  A    between atoms: C_7  and  N_8
REMARK    5  A    between atoms: C_9  and  C_11
REMARK    6  A    between atoms: C_20  and  O_21
REMARK                            x       y       z     vdW  Elec       q    Type
REMARK                         _______ _______ _______ _____ _____    ______ ____
ROOT
ATOM      1  N   UNL     1       3.736   6.079  19.610  0.00  0.00    +0.000 N 
ATOM      2  C   UNL     1       2.593   6.342  18.879  0.00  0.00    +0.000 C 
ATOM      3  O   UNL     1       2.117   5.527  18.100  0.00  0.00    +0.000 OA
ATOM      4  H   UNL     1       4.132   6.849  20.139  0.00  0.00    +0.000 HD
ENDROOT
BRANCH   2   5
ATOM      5  C   UNL     1       2.020   7.721  19.094  0.00  0.00    +0.000 A 
ATOM      6  N   UNL     1       1.918   8.484  17.962  0.00  0.00    +0.000 NA
ATOM      7  C   UNL     1       1.347   9.702  18.104  0.00  0.00    +0.000 A 
ATOM      8  C   UNL     1       0.846  10.199  19.308  0.00  0.00    +0.000 A 
ATOM      9  C   UNL     1       0.204  11.442  19.434  0.00  0.00    +0.000 A 
ATOM     10  C   UNL     1      -0.286  11.840  20.673  0.00  0.00    +0.000 A 
ATOM     11  C   UNL     1      -0.102  10.990  21.748  0.00  0.00    +0.000 A 
ATOM     12  N   UNL     1       0.524   9.794  21.664  0.00  0.00    +0.000 NA
ATOM     13  C   UNL     1       0.980   9.401  20.454  0.00  0.00    +0.000 A 
ATOM     14  C   UNL     1       1.586   8.156  20.341  0.00  0.00    +0.000 A 
BRANCH  14  15
ATOM     15  O   UNL     1       1.713   7.411  21.486  0.00  0.00    +0.000 OA
ATOM     16  H   UNL     1       0.866   6.928  21.576  0.00  0.00    +0.000 HD
ENDBRANCH  14  15
ENDBRANCH   2   5
BRANCH   1  17
ATOM     17  C   UNL     1       4.500   4.875  19.396  0.00  0.00    +0.000 C 
BRANCH  17  21
ATOM     18  C   UNL     1       6.948   5.232  15.855  0.00  0.00    +0.000 A 
ATOM     19  C   UNL     1       5.947   4.263  15.929  0.00  0.00    +0.000 A 
ATOM     20  C   UNL     1       5.160   4.145  17.076  0.00  0.00    +0.000 A 
ATOM     21  C   UNL     1       5.380   4.980  18.180  0.00  0.00    +0.000 A 
ATOM     22  C   UNL     1       6.398   5.941  18.105  0.00  0.00    +0.000 A 
ATOM     23  C   UNL     1       7.177   6.067  16.949  0.00  0.00    +0.000 A 
BRANCH  18  25
ATOM     24  C   UNL     1       7.036   4.600  13.578  0.00  0.00    +0.000 C 
ATOM     25  O   UNL     1       7.655   5.248  14.684  0.00  0.00    +0.000 OA
ENDBRANCH  18  25
ENDBRANCH  17  21
ENDBRANCH   1  17
TORSDOF 5
ENDMDL
MODEL 5
REMARK VINA RESULT:      -7.1      2.348      8.172
REMARK  Name = 
REMARK  6 active torsions:
REMARK  status: ('A' for Active; 'I' for Inactive)
REMARK    1  A    between atoms: C_1  and  O_2
REMARK    2  A    between atoms: O_2  and  C_3
REMARK    3  A    between atoms: C_6  and  C_7
REMARK    4  A    between atoms: C_7  and  N_8
REMARK    5  A    between atoms: C_9  and  C_11
REMARK    6  A    between atoms: C_20  and  O_21
REMARK                            x       y       z     vdW  Elec       q    Type
REMARK                         _______ _______ _______ _____ _____    ______ ____
ROOT
ATOM      1  N   UNL     1       3.734   5.993  19.575  0.00  0.00    +0.000 N 
ATOM      2  C   UNL     1       2.615   6.279  18.815  0.00  0.00    +0.000 C 
ATOM      3  O   UNL     1       2.171   5.492  17.990  0.00  0.00    +0.000 OA
ATOM      4  H   UNL     1       4.107   6.745  20.145  0.00  0.00    +0.000 HD
ENDROOT
BRANCH   2   5
ATOM      5  C   UNL     1       2.027   7.646  19.062  0.00  0.00    +0.000 A 
ATOM      6  N   UNL     1       1.898   8.427  17.946  0.00  0.00    +0.000 NA
ATOM      7  C   UNL     1       1.312   9.634  18.117  0.00  0.00    +0.000 A 
ATOM      8  C   UNL     1       0.823  10.103  19.337  0.00  0.00    +0.000 A 
ATOM      9  C   UNL     1       0.166  11.335  19.494  0.00  0.00    +0.000 A 
ATOM     10  C   UNL     1      -0.310  11.705  20.747  0.00  0.00    +0.000 A 
ATOM     11  C   UNL     1      -0.099  10.839  21.805  0.00  0.00    +0.000 A 
ATOM     12  N   UNL     1       0.542   9.654  21.690  0.00  0.00    +0.000 NA
ATOM     13  C   UNL     1       0.985   9.287  20.467  0.00  0.00    +0.000 A 
ATOM     14  C   UNL     1       1.606   8.053  20.323  0.00  0.00    +0.000 A 
BRANCH  14  15
ATOM     15  O   UNL     1       1.761   7.291  21.453  0.00  0.00    +0.000 OA
ATOM     16  H   UNL     1       0.875   7.265  21.872  0.00  0.00    +0.000 HD
ENDBRANCH  14  15
ENDBRANCH   2   5
BRANCH   1  17
ATOM     17  C   UNL     1       4.513   4.803  19.341  0.00  0.00    +0.000 C 
BRANCH  17  21
ATOM     18  C   UNL     1       6.980   5.074  15.806  0.00  0.00    +0.000 A 
ATOM     19  C   UNL     1       7.091   6.025  16.821  0.00  0.00    +0.000 A 
ATOM     20  C   UNL     1       6.289   5.939  17.961  0.00  0.00    +0.000 A 
ATOM     21  C   UNL     1       5.343   4.913  18.091  0.00  0.00    +0.000 A 
ATOM     22  C   UNL     1       5.226   3.971  17.061  0.00  0.00    +0.000 A 
ATOM     23  C   UNL     1       6.040   4.051  15.924  0.00  0.00    +0.000 A 
BRANCH  18  25
ATOM     24  C   UNL     1       7.281   4.921  13.465  0.00  0.00    +0.000 C 
ATOM     25  O   UNL     1       7.814   5.266  14.738  0.00  0.00    +0.000 OA
ENDBRANCH  18  25
ENDBRANCH  17  21
ENDBRANCH   1  17
TORSDOF 5
ENDMDL
MODEL 6
REMARK VINA RESULT:      -7.1      3.642      9.273
REMARK  Name = 
REMARK  6 active torsions:
REMARK  status: ('A' for Active; 'I' for Inactive)
REMARK    1  A    between atoms: C_1  and  O_2
REMARK    2  A    between atoms: O_2  and  C_3
REMARK    3  A    between atoms: C_6  and  C_7
REMARK    4  A    between atoms: C_7  and  N_8
REMARK    5  A    between atoms: C_9  and  C_11
REMARK    6  A    between atoms: C_20  and  O_21
REMARK                            x       y       z     vdW  Elec       q    Type
REMARK                         _______ _______ _______ _____ _____    ______ ____
ROOT
ATOM      1  N   UNL     1       2.359   7.969  18.751  0.00  0.00    +0.000 N 
ATOM      2  C   UNL     1       1.662   9.138  18.507  0.00  0.00    +0.000 C 
ATOM      3  O   UNL     1       1.751   9.738  17.444  0.00  0.00    +0.000 OA
ATOM      4  H   UNL     1       2.325   7.601  19.696  0.00  0.00    +0.000 HD
ENDROOT
BRANCH   2   5
ATOM      5  C   UNL     1       0.830   9.620  19.668  0.00  0.00    +0.000 A 
ATOM      6  N   UNL     1       1.060   8.969  20.850  0.00  0.00    +0.000 NA
ATOM      7  C   UNL     1       0.380   9.419  21.930  0.00  0.00    +0.000 A 
ATOM      8  C   UNL     1      -0.501  10.501  21.908  0.00  0.00    +0.000 A 
ATOM      9  C   UNL     1      -1.159  10.996  23.047  0.00  0.00    +0.000 A 
ATOM     10  C   UNL     1      -1.999  12.097  22.929  0.00  0.00    +0.000 A 
ATOM     11  C   UNL     1      -2.169  12.656  21.676  0.00  0.00    +0.000 A 
ATOM     12  N   UNL     1      -1.562  12.195  20.559  0.00  0.00    +0.000 NA
ATOM     13  C   UNL     1      -0.729  11.138  20.679  0.00  0.00    +0.000 A 
ATOM     14  C   UNL     1      -0.063  10.679  19.550  0.00  0.00    +0.000 A 
BRANCH  14  15
ATOM     15  O   UNL     1      -0.324  11.317  18.363  0.00  0.00    +0.000 OA
ATOM     16  H   UNL     1       0.097  10.764  17.674  0.00  0.00    +0.000 HD
ENDBRANCH  14  15
ENDBRANCH   2   5
BRANCH   1  17
ATOM     17  C   UNL     1       3.328   7.465  17.810  0.00  0.00    +0.000 C 
BRANCH  17  21
ATOM     18  C   UNL     1       3.287   3.151  17.580  0.00  0.00    +0.000 A 
ATOM     19  C   UNL     1       2.171   3.847  18.050  0.00  0.00    +0.000 A 
ATOM     20  C   UNL     1       2.188   5.240  18.129  0.00  0.00    +0.000 A 
ATOM     21  C   UNL     1       3.333   5.961  17.762  0.00  0.00    +0.000 A 
ATOM     22  C   UNL     1       4.454   5.256  17.306  0.00  0.00    +0.000 A 
ATOM     23  C   UNL     1       4.432   3.859  17.215  0.00  0.00    +0.000 A 
BRANCH  18  25
ATOM     24  C   UNL     1       3.769   1.086  18.624  0.00  0.00    +0.000 C 
ATOM     25  O   UNL     1       3.152   1.790  17.553  0.00  0.00    +0.000 OA
ENDBRANCH  18  25
ENDBRANCH  17  21
ENDBRANCH   1  17
TORSDOF 5
ENDMDL
MODEL 7
REMARK VINA RESULT:      -7.1      4.858      6.646
REMARK  Name = 
REMARK  6 active torsions:
REMARK  status: ('A' for Active; 'I' for Inactive)
REMARK    1  A    between atoms: C_1  and  O_2
REMARK    2  A    between atoms: O_2  and  C_3
REMARK    3  A    between atoms: C_6  and  C_7
REMARK    4  A    between atoms: C_7  and  N_8
REMARK    5  A    between atoms: C_9  and  C_11
REMARK    6  A    between atoms: C_20  and  O_21
REMARK                            x       y       z     vdW  Elec       q    Type
REMARK                         _______ _______ _______ _____ _____    ______ ____
ROOT
ATOM      1  N   UNL     1       7.366   8.110  17.859  0.00  0.00    +0.000 N 
ATOM      2  C   UNL     1       7.042   6.913  17.246  0.00  0.00    +0.000 C 
ATOM      3  O   UNL     1       7.671   6.481  16.290  0.00  0.00    +0.000 OA
ATOM      4  H   UNL     1       6.723   8.455  18.564  0.00  0.00    +0.000 HD
ENDROOT
BRANCH   2   5
ATOM      5  C   UNL     1       5.834   6.223  17.829  0.00  0.00    +0.000 A 
ATOM      6  N   UNL     1       4.653   6.894  17.663  0.00  0.00    +0.000 NA
ATOM      7  C   UNL     1       3.537   6.275  18.113  0.00  0.00    +0.000 A 
ATOM      8  C   UNL     1       3.525   5.009  18.701  0.00  0.00    +0.000 A 
ATOM      9  C   UNL     1       2.355   4.350  19.114  0.00  0.00    +0.000 A 
ATOM     10  C   UNL     1       2.442   3.077  19.666  0.00  0.00    +0.000 A 
ATOM     11  C   UNL     1       3.697   2.512  19.803  0.00  0.00    +0.000 A 
ATOM     12  N   UNL     1       4.843   3.124  19.428  0.00  0.00    +0.000 NA
ATOM     13  C   UNL     1       4.753   4.353  18.872  0.00  0.00    +0.000 A 
ATOM     14  C   UNL     1       5.917   4.978  18.442  0.00  0.00    +0.000 A 
BRANCH  14  15
ATOM     15  O   UNL     1       7.100   4.313  18.642  0.00  0.00    +0.000 OA
ATOM     16  H   UNL     1       7.017   3.478  18.136  0.00  0.00    +0.000 HD
ENDBRANCH  14  15
ENDBRANCH   2   5
BRANCH   1  17
ATOM     17  C   UNL     1       8.386   8.974  17.319  0.00  0.00    +0.000 C 
BRANCH  17  21
ATOM     18  C   UNL     1       9.428  12.208  19.987  0.00  0.00    +0.000 A 
ATOM     19  C   UNL     1       9.449  10.885  20.434  0.00  0.00    +0.000 A 
ATOM     20  C   UNL     1       9.107   9.842  19.572  0.00  0.00    +0.000 A 
ATOM     21  C   UNL     1       8.712  10.107  18.254  0.00  0.00    +0.000 A 
ATOM     22  C   UNL     1       8.677  11.437  17.816  0.00  0.00    +0.000 A 
ATOM     23  C   UNL     1       9.034  12.482  18.678  0.00  0.00    +0.000 A 
BRANCH  18  25
ATOM     24  C   UNL     1       9.228  12.954  22.222  0.00  0.00    +0.000 C 
ATOM     25  O   UNL     1       9.778  13.142  20.923  0.00  0.00    +0.000 OA
ENDBRANCH  18  25
ENDBRANCH  17  21
ENDBRANCH   1  17
TORSDOF 5
ENDMDL
MODEL 8
REMARK VINA RESULT:      -7.0      2.183      8.042
REMARK  Name = 
REMARK  6 active torsions:
REMARK  status: ('A' for Active; 'I' for Inactive)
REMARK    1  A    between atoms: C_1  and  O_2
REMARK    2  A    between atoms: O_2  and  C_3
REMARK    3  A    between atoms: C_6  and  C_7
REMARK    4  A    between atoms: C_7  and  N_8
REMARK    5  A    between atoms: C_9  and  C_11
REMARK    6  A    between atoms: C_20  and  O_21
REMARK                            x       y       z     vdW  Elec       q    Type
REMARK                         _______ _______ _______ _____ _____    ______ ____
ROOT
ATOM      1  N   UNL     1       4.555   5.945  18.740  0.00  0.00    +0.000 N 
ATOM      2  C   UNL     1       3.181   5.902  18.891  0.00  0.00    +0.000 C 
ATOM      3  O   UNL     1       2.569   4.845  18.970  0.00  0.00    +0.000 OA
ATOM      4  H   UNL     1       4.970   6.854  18.561  0.00  0.00    +0.000 HD
ENDROOT
BRANCH   2   5
ATOM      5  C   UNL     1       2.513   7.253  18.905  0.00  0.00    +0.000 A 
ATOM      6  N   UNL     1       2.582   7.941  17.724  0.00  0.00    +0.000 NA
ATOM      7  C   UNL     1       1.936   9.129  17.678  0.00  0.00    +0.000 A 
ATOM      8  C   UNL     1       1.201   9.665  18.737  0.00  0.00    +0.000 A 
ATOM      9  C   UNL     1       0.488  10.872  18.660  0.00  0.00    +0.000 A 
ATOM     10  C   UNL     1      -0.237  11.312  19.762  0.00  0.00    +0.000 A 
ATOM     11  C   UNL     1      -0.211  10.540  20.909  0.00  0.00    +0.000 A 
ATOM     12  N   UNL     1       0.477   9.381  21.019  0.00  0.00    +0.000 NA
ATOM     13  C   UNL     1       1.163   8.945  19.940  0.00  0.00    +0.000 A 
ATOM     14  C   UNL     1       1.839   7.734  20.022  0.00  0.00    +0.000 A 
BRANCH  14  15
ATOM     15  O   UNL     1       1.792   7.068  21.220  0.00  0.00    +0.000 OA
ATOM     16  H   UNL     1       2.672   7.205  21.628  0.00  0.00    +0.000 HD
ENDBRANCH  14  15
ENDBRANCH   2   5
BRANCH   1  17
ATOM     17  C   UNL     1       5.324   4.743  18.539  0.00  0.00    +0.000 C 
BRANCH  17  21
ATOM     18  C   UNL     1       6.463   4.360  14.389  0.00  0.00    +0.000 A 
ATOM     19  C   UNL     1       5.225   3.889  14.830  0.00  0.00    +0.000 A 
ATOM     20  C   UNL     1       4.860   4.009  16.173  0.00  0.00    +0.000 A 
ATOM     21  C   UNL     1       5.741   4.579  17.102  0.00  0.00    +0.000 A 
ATOM     22  C   UNL     1       6.988   5.035  16.656  0.00  0.00    +0.000 A 
ATOM     23  C   UNL     1       7.348   4.927  15.307  0.00  0.00    +0.000 A 
BRANCH  18  25
ATOM     24  C   UNL     1       5.741   3.421  12.343  0.00  0.00    +0.000 C 
ATOM     25  O   UNL     1       6.708   4.183  13.055  0.00  0.00    +0.000 OA
ENDBRANCH  18  25
ENDBRANCH  17  21
ENDBRANCH   1  17
TORSDOF 5
ENDMDL
MODEL 9
REMARK VINA RESULT:      -7.0      2.166      8.124
REMARK  Name = 
REMARK  6 active torsions:
REMARK  status: ('A' for Active; 'I' for Inactive)
REMARK    1  A    between atoms: C_1  and  O_2
REMARK    2  A    between atoms: O_2  and  C_3
REMARK    3  A    between atoms: C_6  and  C_7
REMARK    4  A    between atoms: C_7  and  N_8
REMARK    5  A    between atoms: C_9  and  C_11
REMARK    6  A    between atoms: C_20  and  O_21
REMARK                            x       y       z     vdW  Elec       q    Type
REMARK                         _______ _______ _______ _____ _____    ______ ____
ROOT
ATOM      1  N   UNL     1       4.611   6.025  18.737  0.00  0.00    +0.000 N 
ATOM      2  C   UNL     1       3.244   5.939  18.926  0.00  0.00    +0.000 C 
ATOM      3  O   UNL     1       2.665   4.864  19.001  0.00  0.00    +0.000 OA
ATOM      4  H   UNL     1       4.995   6.948  18.565  0.00  0.00    +0.000 HD
ENDROOT
BRANCH   2   5
ATOM      5  C   UNL     1       2.540   7.271  18.987  0.00  0.00    +0.000 A 
ATOM      6  N   UNL     1       2.603   8.008  17.836  0.00  0.00    +0.000 NA
ATOM      7  C   UNL     1       1.926   9.179  17.830  0.00  0.00    +0.000 A 
ATOM      8  C   UNL     1       1.164   9.651  18.900  0.00  0.00    +0.000 A 
ATOM      9  C   UNL     1       0.419  10.841  18.864  0.00  0.00    +0.000 A 
ATOM     10  C   UNL     1      -0.331  11.216  19.973  0.00  0.00    +0.000 A 
ATOM     11  C   UNL     1      -0.298  10.398  21.087  0.00  0.00    +0.000 A 
ATOM     12  N   UNL     1       0.420   9.254  21.159  0.00  0.00    +0.000 NA
ATOM     13  C   UNL     1       1.131   8.881  20.072  0.00  0.00    +0.000 A 
ATOM     14  C   UNL     1       1.839   7.687  20.114  0.00  0.00    +0.000 A 
BRANCH  14  15
ATOM     15  O   UNL     1       1.796   6.970  21.283  0.00  0.00    +0.000 OA
ATOM     16  H   UNL     1       0.887   6.609  21.332  0.00  0.00    +0.000 HD
ENDBRANCH  14  15
ENDBRANCH   2   5
BRANCH   1  17
ATOM     17  C   UNL     1       5.408   4.849  18.489  0.00  0.00    +0.000 C 
BRANCH  17  21
ATOM     18  C   UNL     1       6.447   4.337  14.328  0.00  0.00    +0.000 A 
ATOM     19  C   UNL     1       7.341   4.943  15.212  0.00  0.00    +0.000 A 
ATOM     20  C   UNL     1       7.002   5.113  16.555  0.00  0.00    +0.000 A 
ATOM     21  C   UNL     1       5.749   4.701  17.031  0.00  0.00    +0.000 A 
ATOM     22  C   UNL     1       4.851   4.107  16.135  0.00  0.00    +0.000 A 
ATOM     23  C   UNL     1       5.197   3.925  14.791  0.00  0.00    +0.000 A 
BRANCH  18  25
ATOM     24  C   UNL     1       6.181   3.312  12.213  0.00  0.00    +0.000 C 
ATOM     25  O   UNL     1       6.890   4.230  13.038  0.00  0.00    +0.000 OA
ENDBRANCH  18  25
ENDBRANCH  17  21
ENDBRANCH   1  17
TORSDOF 5
ENDMDL
