MODEL 1
REMARK VINA RESULT:      -8.5      0.000      0.000
REMARK  Name = 
REMARK  4 active torsions:
REMARK  status: ('A' for Active; 'I' for Inactive)
REMARK    1  A    between atoms: C_1  and  C_2
REMARK    2  A    between atoms: C_5  and  N_6
REMARK    3  A    between atoms: C_7  and  C_9
REMARK    4  A    between atoms: C_9  and  N_10
REMARK                            x       y       z     vdW  Elec       q    Type
REMARK                         _______ _______ _______ _____ _____    ______ ____
ROOT
ATOM      1  N   UNL     1       4.785   4.252  18.391  0.00  0.00    +0.000 N 
ATOM      2  C   UNL     1       4.330   3.886  17.068  0.00  0.00    +0.000 A 
ATOM      3  O   UNL     1       3.210   3.419  16.947  0.00  0.00    +0.000 OA
ATOM      4  C   UNL     1       5.243   4.149  15.914  0.00  0.00    +0.000 A 
ATOM      5  C   UNL     1       4.891   3.707  14.636  0.00  0.00    +0.000 A 
ATOM      6  C   UNL     1       5.730   3.984  13.550  0.00  0.00    +0.000 A 
ATOM      7  C   UNL     1       6.910   4.710  13.736  0.00  0.00    +0.000 A 
ATOM      8 CL   UNL     1       7.910   5.067  12.384  0.00  0.00    +0.000 Cl
ATOM      9  C   UNL     1       7.284   5.147  15.006  0.00  0.00    +0.000 A 
ATOM     10  C   UNL     1       6.450   4.853  16.090  0.00  0.00    +0.000 A 
ATOM     11  N   UNL     1       6.782   5.235  17.393  0.00  0.00    +0.000 N 
ATOM     12  N   UNL     1       7.873   5.924  17.761  0.00  0.00    +0.000 NA
ATOM     13  N   UNL     1       7.827   6.066  19.082  0.00  0.00    +0.000 NA
ATOM     14  C   UNL     1       6.688   5.455  19.544  0.00  0.00    +0.000 A 
ATOM     15  C   UNL     1       5.998   4.931  18.482  0.00  0.00    +0.000 A 
ENDROOT
BRANCH   1  16
ATOM     16  C   UNL     1       3.936   3.898  19.545  0.00  0.00    +0.000 C 
BRANCH  16  18
ATOM     17  N   UNL     1       3.105   6.210  19.507  0.00  0.00    +0.000 N 
ATOM     18  C   UNL     1       2.771   4.877  19.704  0.00  0.00    +0.000 C 
ATOM     19  O   UNL     1       1.651   4.437  19.956  0.00  0.00    +0.000 OA
ATOM     20  H   UNL     1       4.009   6.406  19.082  0.00  0.00    +0.000 HD
BRANCH  17  25
ATOM     21  C   UNL     1      -0.233  10.855  20.056  0.00  0.00    +0.000 C 
ATOM     22  C   UNL     1       0.629   9.633  19.922  0.00  0.00    +0.000 A 
ATOM     23  C   UNL     1       0.764   8.736  20.984  0.00  0.00    +0.000 A 
ATOM     24  C   UNL     1       1.575   7.603  20.867  0.00  0.00    +0.000 A 
ATOM     25  C   UNL     1       2.264   7.335  19.684  0.00  0.00    +0.000 A 
ATOM     26  C   UNL     1       2.131   8.234  18.614  0.00  0.00    +0.000 A 
ATOM     27  C   UNL     1       1.322   9.373  18.735  0.00  0.00    +0.000 A 
ENDBRANCH  17  25
ENDBRANCH  16  18
ENDBRANCH   1  16
TORSDOF 3
ENDMDL
MODEL 2
REMARK VINA RESULT:      -8.1      4.644      6.696
REMARK  Name = 
REMARK  4 active torsions:
REMARK  status: ('A' for Active; 'I' for Inactive)
REMARK    1  A    between atoms: C_1  and  C_2
REMARK    2  A    between atoms: C_5  and  N_6
REMARK    3  A    between atoms: C_7  and  C_9
REMARK    4  A    between atoms: C_9  and  N_10
REMARK                            x       y       z     vdW  Elec       q    Type
REMARK                         _______ _______ _______ _____ _____    ______ ____
ROOT
ATOM      1  N   UNL     1       5.648   6.061  17.760  0.00  0.00    +0.000 N 
ATOM      2  C   UNL     1       5.797   4.807  18.464  0.00  0.00    +0.000 A 
ATOM      3  O   UNL     1       6.899   4.286  18.497  0.00  0.00    +0.000 OA
ATOM      4  C   UNL     1       4.598   4.244  19.157  0.00  0.00    +0.000 A 
ATOM      5  C   UNL     1       4.670   2.981  19.751  0.00  0.00    +0.000 A 
ATOM      6  C   UNL     1       3.557   2.469  20.430  0.00  0.00    +0.000 A 
ATOM      7  C   UNL     1       2.381   3.220  20.526  0.00  0.00    +0.000 A 
ATOM      8 CL   UNL     1       1.037   2.587  21.392  0.00  0.00    +0.000 Cl
ATOM      9  C   UNL     1       2.288   4.476  19.928  0.00  0.00    +0.000 A 
ATOM     10  C   UNL     1       3.397   4.975  19.237  0.00  0.00    +0.000 A 
ATOM     11  N   UNL     1       3.359   6.213  18.590  0.00  0.00    +0.000 N 
ATOM     12  N   UNL     1       2.319   7.061  18.565  0.00  0.00    +0.000 NA
ATOM     13  N   UNL     1       2.678   8.109  17.832  0.00  0.00    +0.000 NA
ATOM     14  C   UNL     1       3.963   7.911  17.392  0.00  0.00    +0.000 A 
ATOM     15  C   UNL     1       4.423   6.714  17.875  0.00  0.00    +0.000 A 
ENDROOT
BRANCH   1  16
ATOM     16  C   UNL     1       6.796   6.568  16.985  0.00  0.00    +0.000 C 
BRANCH  16  18
ATOM     17  N   UNL     1       7.572   8.840  17.509  0.00  0.00    +0.000 N 
ATOM     18  C   UNL     1       7.677   7.493  17.828  0.00  0.00    +0.000 C 
ATOM     19  O   UNL     1       8.370   7.008  18.721  0.00  0.00    +0.000 OA
ATOM     20  H   UNL     1       6.796   9.119  16.912  0.00  0.00    +0.000 HD
BRANCH  17  25
ATOM     21  C   UNL     1      10.611  13.275  19.539  0.00  0.00    +0.000 C 
ATOM     22  C   UNL     1       9.816  12.110  19.023  0.00  0.00    +0.000 A 
ATOM     23  C   UNL     1       9.934  10.850  19.613  0.00  0.00    +0.000 A 
ATOM     24  C   UNL     1       9.203   9.761  19.129  0.00  0.00    +0.000 A 
ATOM     25  C   UNL     1       8.332   9.906  18.049  0.00  0.00    +0.000 A 
ATOM     26  C   UNL     1       8.211  11.171  17.454  0.00  0.00    +0.000 A 
ATOM     27  C   UNL     1       8.948  12.262  17.937  0.00  0.00    +0.000 A 
ENDBRANCH  17  25
ENDBRANCH  16  18
ENDBRANCH   1  16
TORSDOF 3
ENDMDL
MODEL 3
REMARK VINA RESULT:      -7.9      5.496     10.050
REMARK  Name = 
REMARK  4 active torsions:
REMARK  status: ('A' for Active; 'I' for Inactive)
REMARK    1  A    between atoms: C_1  and  C_2
REMARK    2  A    between atoms: C_5  and  N_6
REMARK    3  A    between atoms: C_7  and  C_9
REMARK    4  A    between atoms: C_9  and  N_10
REMARK                            x       y       z     vdW  Elec       q    Type
REMARK                         _______ _______ _______ _____ _____    ______ ____
ROOT
ATOM      1  N   UNL     1       0.356  10.583  21.571  0.00  0.00    +0.000 N 
ATOM      2  C   UNL     1      -0.564  10.809  22.662  0.00  0.00    +0.000 A 
ATOM      3  O   UNL     1      -0.333  10.279  23.736  0.00  0.00    +0.000 OA
ATOM      4  C   UNL     1      -1.723  11.723  22.427  0.00  0.00    +0.000 A 
ATOM      5  C   UNL     1      -2.697  11.877  23.418  0.00  0.00    +0.000 A 
ATOM      6  C   UNL     1      -3.764  12.760  23.210  0.00  0.00    +0.000 A 
ATOM      7  C   UNL     1      -3.853  13.495  22.024  0.00  0.00    +0.000 A 
ATOM      8 CL   UNL     1      -5.153  14.597  21.802  0.00  0.00    +0.000 Cl
ATOM      9  C   UNL     1      -2.897  13.343  21.020  0.00  0.00    +0.000 A 
ATOM     10  C   UNL     1      -1.843  12.447  21.226  0.00  0.00    +0.000 A 
ATOM     11  N   UNL     1      -0.869  12.226  20.247  0.00  0.00    +0.000 N 
ATOM     12  N   UNL     1      -0.800  12.829  19.051  0.00  0.00    +0.000 NA
ATOM     13  N   UNL     1       0.254  12.329  18.414  0.00  0.00    +0.000 NA
ATOM     14  C   UNL     1       0.852  11.400  19.228  0.00  0.00    +0.000 A 
ATOM     15  C   UNL     1       0.160  11.327  20.409  0.00  0.00    +0.000 A 
ENDROOT
BRANCH   1  16
ATOM     16  C   UNL     1       1.440   9.601  21.761  0.00  0.00    +0.000 C 
BRANCH  16  18
ATOM     17  N   UNL     1       2.128   7.511  20.665  0.00  0.00    +0.000 N 
ATOM     18  C   UNL     1       1.063   8.233  21.189  0.00  0.00    +0.000 C 
ATOM     19  O   UNL     1      -0.107   7.860  21.253  0.00  0.00    +0.000 OA
ATOM     20  H   UNL     1       3.066   7.840  20.885  0.00  0.00    +0.000 HD
BRANCH  17  25
ATOM     21  C   UNL     1       1.868   2.381  18.090  0.00  0.00    +0.000 C 
ATOM     22  C   UNL     1       1.931   3.729  18.750  0.00  0.00    +0.000 A 
ATOM     23  C   UNL     1       2.269   4.866  18.014  0.00  0.00    +0.000 A 
ATOM     24  C   UNL     1       2.339   6.121  18.627  0.00  0.00    +0.000 A 
ATOM     25  C   UNL     1       2.066   6.270  19.987  0.00  0.00    +0.000 A 
ATOM     26  C   UNL     1       1.726   5.129  20.729  0.00  0.00    +0.000 A 
ATOM     27  C   UNL     1       1.661   3.870  20.115  0.00  0.00    +0.000 A 
ENDBRANCH  17  25
ENDBRANCH  16  18
ENDBRANCH   1  16
TORSDOF 3
ENDMDL
MODEL 4
REMARK VINA RESULT:      -7.6      1.943      2.953
REMARK  Name = 
REMARK  4 active torsions:
REMARK  status: ('A' for Active; 'I' for Inactive)
REMARK    1  A    between atoms: C_1  and  C_2
REMARK    2  A    between atoms: C_5  and  N_6
REMARK    3  A    between atoms: C_7  and  C_9
REMARK    4  A    between atoms: C_9  and  N_10
REMARK                            x       y       z     vdW  Elec       q    Type
REMARK                         _______ _______ _______ _____ _____    ______ ____
ROOT
ATOM      1  N   UNL     1       3.822   4.482  19.266  0.00  0.00    +0.000 N 
ATOM      2  C   UNL     1       5.081   5.043  18.832  0.00  0.00    +0.000 A 
ATOM      3  O   UNL     1       5.766   5.634  19.649  0.00  0.00    +0.000 OA
ATOM      4  C   UNL     1       5.496   4.822  17.413  0.00  0.00    +0.000 A 
ATOM      5  C   UNL     1       6.649   5.443  16.923  0.00  0.00    +0.000 A 
ATOM      6  C   UNL     1       7.057   5.209  15.604  0.00  0.00    +0.000 A 
ATOM      7  C   UNL     1       6.324   4.348  14.781  0.00  0.00    +0.000 A 
ATOM      8 CL   UNL     1       6.859   4.048  13.175  0.00  0.00    +0.000 Cl
ATOM      9  C   UNL     1       5.165   3.731  15.249  0.00  0.00    +0.000 A 
ATOM     10  C   UNL     1       4.753   3.982  16.562  0.00  0.00    +0.000 A 
ATOM     11  N   UNL     1       3.584   3.419  17.082  0.00  0.00    +0.000 N 
ATOM     12  N   UNL     1       2.754   2.584  16.439  0.00  0.00    +0.000 NA
ATOM     13  N   UNL     1       1.757   2.296  17.269  0.00  0.00    +0.000 NA
ATOM     14  C   UNL     1       1.970   2.963  18.450  0.00  0.00    +0.000 A 
ATOM     15  C   UNL     1       3.138   3.675  18.359  0.00  0.00    +0.000 A 
ENDROOT
BRANCH   1  16
ATOM     16  C   UNL     1       3.354   4.785  20.632  0.00  0.00    +0.000 C 
BRANCH  16  18
ATOM     17  N   UNL     1       2.432   7.048  20.366  0.00  0.00    +0.000 N 
ATOM     18  C   UNL     1       2.138   5.714  20.614  0.00  0.00    +0.000 C 
ATOM     19  O   UNL     1       1.018   5.235  20.782  0.00  0.00    +0.000 OA
ATOM     20  H   UNL     1       3.365   7.262  20.020  0.00  0.00    +0.000 HD
BRANCH  17  25
ATOM     21  C   UNL     1      -1.147  11.542  20.284  0.00  0.00    +0.000 C 
ATOM     22  C   UNL     1      -0.222  10.360  20.315  0.00  0.00    +0.000 A 
ATOM     23  C   UNL     1      -0.112   9.572  21.462  0.00  0.00    +0.000 A 
ATOM     24  C   UNL     1       0.757   8.477  21.499  0.00  0.00    +0.000 A 
ATOM     25  C   UNL     1       1.530   8.139  20.388  0.00  0.00    +0.000 A 
ATOM     26  C   UNL     1       1.422   8.929  19.233  0.00  0.00    +0.000 A 
ATOM     27  C   UNL     1       0.554  10.030  19.199  0.00  0.00    +0.000 A 
ENDBRANCH  17  25
ENDBRANCH  16  18
ENDBRANCH   1  16
TORSDOF 3
ENDMDL
MODEL 5
REMARK VINA RESULT:      -7.5      4.468      6.315
REMARK  Name = 
REMARK  4 active torsions:
REMARK  status: ('A' for Active; 'I' for Inactive)
REMARK    1  A    between atoms: C_1  and  C_2
REMARK    2  A    between atoms: C_5  and  N_6
REMARK    3  A    between atoms: C_7  and  C_9
REMARK    4  A    between atoms: C_9  and  N_10
REMARK                            x       y       z     vdW  Elec       q    Type
REMARK                         _______ _______ _______ _____ _____    ______ ____
ROOT
ATOM      1  N   UNL     1       5.570   6.117  16.984  0.00  0.00    +0.000 N 
ATOM      2  C   UNL     1       5.543   4.680  17.131  0.00  0.00    +0.000 A 
ATOM      3  O   UNL     1       6.576   4.058  16.955  0.00  0.00    +0.000 OA
ATOM      4  C   UNL     1       4.256   4.040  17.542  0.00  0.00    +0.000 A 
ATOM      5  C   UNL     1       4.156   2.646  17.584  0.00  0.00    +0.000 A 
ATOM      6  C   UNL     1       2.962   2.048  18.003  0.00  0.00    +0.000 A 
ATOM      7  C   UNL     1       1.874   2.837  18.389  0.00  0.00    +0.000 A 
ATOM      8 CL   UNL     1       0.427   2.083  18.931  0.00  0.00    +0.000 Cl
ATOM      9  C   UNL     1       1.951   4.228  18.341  0.00  0.00    +0.000 A 
ATOM     10  C   UNL     1       3.142   4.820  17.906  0.00  0.00    +0.000 A 
ATOM     11  N   UNL     1       3.274   6.208  17.805  0.00  0.00    +0.000 N 
ATOM     12  N   UNL     1       2.338   7.116  18.119  0.00  0.00    +0.000 NA
ATOM     13  N   UNL     1       2.847   8.317  17.864  0.00  0.00    +0.000 NA
ATOM     14  C   UNL     1       4.122   8.153  17.382  0.00  0.00    +0.000 A 
ATOM     15  C   UNL     1       4.421   6.816  17.349  0.00  0.00    +0.000 A 
ENDROOT
BRANCH   1  16
ATOM     16  C   UNL     1       6.804   6.745  16.475  0.00  0.00    +0.000 C 
BRANCH  16  18
ATOM     17  N   UNL     1       7.658   8.879  17.346  0.00  0.00    +0.000 N 
ATOM     18  C   UNL     1       7.536   7.514  17.577  0.00  0.00    +0.000 C 
ATOM     19  O   UNL     1       7.927   6.907  18.572  0.00  0.00    +0.000 OA
ATOM     20  H   UNL     1       7.092   9.277  16.601  0.00  0.00    +0.000 HD
BRANCH  17  25
ATOM     21  C   UNL     1      10.520  12.816  20.400  0.00  0.00    +0.000 C 
ATOM     22  C   UNL     1       9.769  11.780  19.616  0.00  0.00    +0.000 A 
ATOM     23  C   UNL     1       9.710  10.457  20.056  0.00  0.00    +0.000 A 
ATOM     24  C   UNL     1       9.020   9.486  19.323  0.00  0.00    +0.000 A 
ATOM     25  C   UNL     1       8.366   9.817  18.136  0.00  0.00    +0.000 A 
ATOM     26  C   UNL     1       8.423  11.146  17.690  0.00  0.00    +0.000 A 
ATOM     27  C   UNL     1       9.119  12.117  18.423  0.00  0.00    +0.000 A 
ENDBRANCH  17  25
ENDBRANCH  16  18
ENDBRANCH   1  16
TORSDOF 3
ENDMDL
MODEL 6
REMARK VINA RESULT:      -7.5      6.897     11.657
REMARK  Name = 
REMARK  4 active torsions:
REMARK  status: ('A' for Active; 'I' for Inactive)
REMARK    1  A    between atoms: C_1  and  C_2
REMARK    2  A    between atoms: C_5  and  N_6
REMARK    3  A    between atoms: C_7  and  C_9
REMARK    4  A    between atoms: C_9  and  N_10
REMARK                            x       y       z     vdW  Elec       q    Type
REMARK                         _______ _______ _______ _____ _____    ______ ____
ROOT
ATOM      1  N   UNL     1      -2.531  12.465  19.973  0.00  0.00    +0.000 N 
ATOM      2  C   UNL     1      -3.957  12.409  19.744  0.00  0.00    +0.000 A 
ATOM      3  O   UNL     1      -4.356  12.098  18.634  0.00  0.00    +0.000 OA
ATOM      4  C   UNL     1      -4.865  12.687  20.898  0.00  0.00    +0.000 A 
ATOM      5  C   UNL     1      -6.246  12.756  20.693  0.00  0.00    +0.000 A 
ATOM      6  C   UNL     1      -7.098  12.982  21.781  0.00  0.00    +0.000 A 
ATOM      7  C   UNL     1      -6.576  13.128  23.070  0.00  0.00    +0.000 A 
ATOM      8 CL   UNL     1      -7.642  13.373  24.396  0.00  0.00    +0.000 Cl
ATOM      9  C   UNL     1      -5.200  13.075  23.290  0.00  0.00    +0.000 A 
ATOM     10  C   UNL     1      -4.352  12.865  22.197  0.00  0.00    +0.000 A 
ATOM     11  N   UNL     1      -2.962  12.833  22.346  0.00  0.00    +0.000 N 
ATOM     12  N   UNL     1      -2.287  12.965  23.497  0.00  0.00    +0.000 NA
ATOM     13  N   UNL     1      -0.991  12.896  23.208  0.00  0.00    +0.000 NA
ATOM     14  C   UNL     1      -0.858  12.719  21.854  0.00  0.00    +0.000 A 
ATOM     15  C   UNL     1      -2.104  12.662  21.284  0.00  0.00    +0.000 A 
ENDROOT
BRANCH   1  16
ATOM     16  C   UNL     1      -1.629  12.298  18.816  0.00  0.00    +0.000 C 
BRANCH  16  18
ATOM     17  N   UNL     1       0.212  10.708  19.166  0.00  0.00    +0.000 N 
ATOM     18  C   UNL     1      -1.096  10.867  18.725  0.00  0.00    +0.000 C 
ATOM     19  O   UNL     1      -1.837   9.977  18.313  0.00  0.00    +0.000 OA
ATOM     20  H   UNL     1       0.623  11.477  19.691  0.00  0.00    +0.000 HD
BRANCH  17  25
ATOM     21  C   UNL     1       3.382   5.916  19.132  0.00  0.00    +0.000 C 
ATOM     22  C   UNL     1       2.550   7.165  19.126  0.00  0.00    +0.000 A 
ATOM     23  C   UNL     1       2.424   7.931  17.966  0.00  0.00    +0.000 A 
ATOM     24  C   UNL     1       1.658   9.102  17.959  0.00  0.00    +0.000 A 
ATOM     25  C   UNL     1       0.994   9.530  19.109  0.00  0.00    +0.000 A 
ATOM     26  C   UNL     1       1.118   8.762  20.277  0.00  0.00    +0.000 A 
ATOM     27  C   UNL     1       1.890   7.591  20.284  0.00  0.00    +0.000 A 
ENDBRANCH  17  25
ENDBRANCH  16  18
ENDBRANCH   1  16
TORSDOF 3
ENDMDL
MODEL 7
REMARK VINA RESULT:      -7.5      5.147      7.681
REMARK  Name = 
REMARK  4 active torsions:
REMARK  status: ('A' for Active; 'I' for Inactive)
REMARK    1  A    between atoms: C_1  and  C_2
REMARK    2  A    between atoms: C_5  and  N_6
REMARK    3  A    between atoms: C_7  and  C_9
REMARK    4  A    between atoms: C_9  and  N_10
REMARK                            x       y       z     vdW  Elec       q    Type
REMARK                         _______ _______ _______ _____ _____    ______ ____
ROOT
ATOM      1  N   UNL     1       1.245  10.685  19.207  0.00  0.00    +0.000 N 
ATOM      2  C   UNL     1       1.812   9.625  18.404  0.00  0.00    +0.000 A 
ATOM      3  O   UNL     1       2.237   9.900  17.295  0.00  0.00    +0.000 OA
ATOM      4  C   UNL     1       1.894   8.258  19.002  0.00  0.00    +0.000 A 
ATOM      5  C   UNL     1       2.329   7.183  18.221  0.00  0.00    +0.000 A 
ATOM      6  C   UNL     1       2.439   5.909  18.791  0.00  0.00    +0.000 A 
ATOM      7  C   UNL     1       2.126   5.710  20.139  0.00  0.00    +0.000 A 
ATOM      8 CL   UNL     1       2.297   4.144  20.828  0.00  0.00    +0.000 Cl
ATOM      9  C   UNL     1       1.677   6.767  20.930  0.00  0.00    +0.000 A 
ATOM     10  C   UNL     1       1.554   8.034  20.350  0.00  0.00    +0.000 A 
ATOM     11  N   UNL     1       1.081   9.129  21.079  0.00  0.00    +0.000 N 
ATOM     12  N   UNL     1       0.725   9.123  22.373  0.00  0.00    +0.000 NA
ATOM     13  N   UNL     1       0.315  10.350  22.678  0.00  0.00    +0.000 NA
ATOM     14  C   UNL     1       0.419  11.133  21.555  0.00  0.00    +0.000 A 
ATOM     15  C   UNL     1       0.919  10.379  20.527  0.00  0.00    +0.000 A 
ENDROOT
BRANCH   1  16
ATOM     16  C   UNL     1       1.062  12.011  18.587  0.00  0.00    +0.000 C 
BRANCH  16  18
ATOM     17  N   UNL     1      -1.306  11.444  18.258  0.00  0.00    +0.000 N 
ATOM     18  C   UNL     1      -0.406  12.442  18.608  0.00  0.00    +0.000 C 
ATOM     19  O   UNL     1      -0.688  13.589  18.949  0.00  0.00    +0.000 OA
ATOM     20  H   UNL     1      -0.953  10.489  18.223  0.00  0.00    +0.000 HD
BRANCH  17  25
ATOM     21  C   UNL     1      -7.007  11.996  17.799  0.00  0.00    +0.000 C 
ATOM     22  C   UNL     1      -5.516  11.856  17.904  0.00  0.00    +0.000 A 
ATOM     23  C   UNL     1      -4.759  11.458  16.801  0.00  0.00    +0.000 A 
ATOM     24  C   UNL     1      -3.371  11.316  16.897  0.00  0.00    +0.000 A 
ATOM     25  C   UNL     1      -2.706  11.577  18.096  0.00  0.00    +0.000 A 
ATOM     26  C   UNL     1      -3.465  11.977  19.207  0.00  0.00    +0.000 A 
ATOM     27  C   UNL     1      -4.857  12.114  19.110  0.00  0.00    +0.000 A 
ENDBRANCH  17  25
ENDBRANCH  16  18
ENDBRANCH   1  16
TORSDOF 3
ENDMDL
MODEL 8
REMARK VINA RESULT:      -7.4      5.336      9.928
REMARK  Name = 
REMARK  4 active torsions:
REMARK  status: ('A' for Active; 'I' for Inactive)
REMARK    1  A    between atoms: C_1  and  C_2
REMARK    2  A    between atoms: C_5  and  N_6
REMARK    3  A    between atoms: C_7  and  C_9
REMARK    4  A    between atoms: C_9  and  N_10
REMARK                            x       y       z     vdW  Elec       q    Type
REMARK                         _______ _______ _______ _____ _____    ______ ____
ROOT
ATOM      1  N   UNL     1       0.207  11.218  20.005  0.00  0.00    +0.000 N 
ATOM      2  C   UNL     1      -0.978  11.993  19.718  0.00  0.00    +0.000 A 
ATOM      3  O   UNL     1      -1.179  12.344  18.567  0.00  0.00    +0.000 OA
ATOM      4  C   UNL     1      -1.921  12.278  20.843  0.00  0.00    +0.000 A 
ATOM      5  C   UNL     1      -3.018  13.119  20.632  0.00  0.00    +0.000 A 
ATOM      6  C   UNL     1      -3.919  13.359  21.677  0.00  0.00    +0.000 A 
ATOM      7  C   UNL     1      -3.734  12.752  22.923  0.00  0.00    +0.000 A 
ATOM      8 CL   UNL     1      -4.869  13.033  24.182  0.00  0.00    +0.000 Cl
ATOM      9  C   UNL     1      -2.638  11.921  23.154  0.00  0.00    +0.000 A 
ATOM     10  C   UNL     1      -1.732  11.699  22.112  0.00  0.00    +0.000 A 
ATOM     11  N   UNL     1      -0.597  10.902  22.287  0.00  0.00    +0.000 N 
ATOM     12  N   UNL     1      -0.252  10.252  23.409  0.00  0.00    +0.000 NA
ATOM     13  N   UNL     1       0.897   9.628  23.171  0.00  0.00    +0.000 NA
ATOM     14  C   UNL     1       1.274   9.894  21.878  0.00  0.00    +0.000 A 
ATOM     15  C   UNL     1       0.329  10.693  21.290  0.00  0.00    +0.000 A 
ENDROOT
BRANCH   1  16
ATOM     16  C   UNL     1       1.194  11.023  18.926  0.00  0.00    +0.000 C 
BRANCH  16  18
ATOM     17  N   UNL     1       2.313   8.838  18.805  0.00  0.00    +0.000 N 
ATOM     18  C   UNL     1       1.200   9.577  18.426  0.00  0.00    +0.000 C 
ATOM     19  O   UNL     1       0.242   9.167  17.773  0.00  0.00    +0.000 OA
ATOM     20  H   UNL     1       2.908   9.232  19.530  0.00  0.00    +0.000 HD
BRANCH  17  25
ATOM     21  C   UNL     1       3.740   3.551  17.067  0.00  0.00    +0.000 C 
ATOM     22  C   UNL     1       3.362   4.926  17.535  0.00  0.00    +0.000 A 
ATOM     23  C   UNL     1       2.265   5.116  18.377  0.00  0.00    +0.000 A 
ATOM     24  C   UNL     1       1.904   6.397  18.806  0.00  0.00    +0.000 A 
ATOM     25  C   UNL     1       2.634   7.517  18.410  0.00  0.00    +0.000 A 
ATOM     26  C   UNL     1       3.738   7.330  17.564  0.00  0.00    +0.000 A 
ATOM     27  C   UNL     1       4.097   6.046  17.129  0.00  0.00    +0.000 A 
ENDBRANCH  17  25
ENDBRANCH  16  18
ENDBRANCH   1  16
TORSDOF 3
ENDMDL
MODEL 9
REMARK VINA RESULT:      -7.4      5.105      9.364
REMARK  Name = 
REMARK  4 active torsions:
REMARK  status: ('A' for Active; 'I' for Inactive)
REMARK    1  A    between atoms: C_1  and  C_2
REMARK    2  A    between atoms: C_5  and  N_6
REMARK    3  A    between atoms: C_7  and  C_9
REMARK    4  A    between atoms: C_9  and  N_10
REMARK                            x       y       z     vdW  Elec       q    Type
REMARK                         _______ _______ _______ _____ _____    ______ ____
ROOT
ATOM      1  N   UNL     1       0.344  10.668  18.715  0.00  0.00    +0.000 N 
ATOM      2  C   UNL     1      -0.928  10.372  18.097  0.00  0.00    +0.000 A 
ATOM      3  O   UNL     1      -0.970   9.505  17.240  0.00  0.00    +0.000 OA
ATOM      4  C   UNL     1      -2.134  11.112  18.580  0.00  0.00    +0.000 A 
ATOM      5  C   UNL     1      -3.360  10.939  17.931  0.00  0.00    +0.000 A 
ATOM      6  C   UNL     1      -4.496  11.606  18.406  0.00  0.00    +0.000 A 
ATOM      7  C   UNL     1      -4.412  12.433  19.530  0.00  0.00    +0.000 A 
ATOM      8 CL   UNL     1      -5.825  13.218  20.116  0.00  0.00    +0.000 Cl
ATOM      9  C   UNL     1      -3.194  12.627  20.181  0.00  0.00    +0.000 A 
ATOM     10  C   UNL     1      -2.059  11.972  19.692  0.00  0.00    +0.000 A 
ATOM     11  N   UNL     1      -0.803  12.148  20.280  0.00  0.00    +0.000 N 
ATOM     12  N   UNL     1      -0.531  12.908  21.352  0.00  0.00    +0.000 NA
ATOM     13  N   UNL     1       0.776  12.823  21.578  0.00  0.00    +0.000 NA
ATOM     14  C   UNL     1       1.327  11.996  20.631  0.00  0.00    +0.000 A 
ATOM     15  C   UNL     1       0.336  11.542  19.801  0.00  0.00    +0.000 A 
ENDROOT
BRANCH   1  16
ATOM     16  C   UNL     1       1.554  10.022  18.172  0.00  0.00    +0.000 C 
BRANCH  16  18
ATOM     17  N   UNL     1       2.444   7.737  18.002  0.00  0.00    +0.000 N 
ATOM     18  C   UNL     1       1.797   8.656  18.818  0.00  0.00    +0.000 C 
ATOM     19  O   UNL     1       1.447   8.475  19.983  0.00  0.00    +0.000 OA
ATOM     20  H   UNL     1       2.877   8.093  17.152  0.00  0.00    +0.000 HD
BRANCH  17  25
ATOM     21  C   UNL     1       3.717   2.270  19.231  0.00  0.00    +0.000 C 
ATOM     22  C   UNL     1       3.369   3.696  18.911  0.00  0.00    +0.000 A 
ATOM     23  C   UNL     1       2.187   4.006  18.236  0.00  0.00    +0.000 A 
ATOM     24  C   UNL     1       1.864   5.331  17.927  0.00  0.00    +0.000 A 
ATOM     25  C   UNL     1       2.711   6.378  18.293  0.00  0.00    +0.000 A 
ATOM     26  C   UNL     1       3.900   6.070  18.972  0.00  0.00    +0.000 A 
ATOM     27  C   UNL     1       4.225   4.740  19.276  0.00  0.00    +0.000 A 
ENDBRANCH  17  25
ENDBRANCH  16  18
ENDBRANCH   1  16
TORSDOF 3
ENDMDL
