MODEL 1
REMARK VINA RESULT:      -6.5      0.000      0.000
REMARK  Name = 
REMARK  3 active torsions:
REMARK  status: ('A' for Active; 'I' for Inactive)
REMARK    1  A    between atoms: C_2  and  C_3
REMARK    2  A    between atoms: C_3  and  C_4
REMARK    3  A    between atoms: C_3  and  N_12
REMARK                            x       y       z     vdW  Elec       q    Type
REMARK                         _______ _______ _______ _____ _____    ______ ____
ROOT
ATOM      1  C   UNL     1       4.319   4.310  19.031  0.00  0.00    +0.000 C 
ENDROOT
BRANCH   1   2
ATOM      2  C   UNL     1       5.226   4.439  17.806  0.00  0.00    +0.000 A 
ATOM      3  C   UNL     1       4.798   3.980  16.536  0.00  0.00    +0.000 A 
ATOM      4  F   UNL     1       3.572   3.422  16.378  0.00  0.00    +0.000 F 
ATOM      5  C   UNL     1       5.639   4.087  15.418  0.00  0.00    +0.000 A 
ATOM      6  C   UNL     1       6.903   4.662  15.542  0.00  0.00    +0.000 A 
ATOM      7  C   UNL     1       7.337   5.129  16.780  0.00  0.00    +0.000 A 
ATOM      8  C   UNL     1       6.519   5.020  17.908  0.00  0.00    +0.000 A 
ATOM      9 CL   UNL     1       7.176   5.636  19.423  0.00  0.00    +0.000 Cl
ENDBRANCH   1   2
BRANCH   1  10
ATOM     10  N   UNL     1       2.874   4.503  18.698  0.00  0.00    +0.000 NA
ATOM     11  C   UNL     1       2.514   5.912  18.410  0.00  0.00    +0.000 C 
ATOM     12  C   UNL     1       2.487   6.763  19.694  0.00  0.00    +0.000 C 
ATOM     13  O   UNL     1       1.578   6.231  20.638  0.00  0.00    +0.000 OA
ATOM     14  C   UNL     1       1.973   4.920  20.992  0.00  0.00    +0.000 C 
ATOM     15  C   UNL     1       1.960   4.001  19.754  0.00  0.00    +0.000 C 
ENDBRANCH   1  10
BRANCH   1  17
ATOM     16  N   UNL     1       4.724   1.965  20.165  0.00  0.00    +0.000 NA
ATOM     17  C   UNL     1       4.535   2.991  19.659  0.00  0.00    +0.000 C 
ENDBRANCH   1  17
TORSDOF 3
ENDMDL
MODEL 2
REMARK VINA RESULT:      -6.4      2.935      4.361
REMARK  Name = 
REMARK  3 active torsions:
REMARK  status: ('A' for Active; 'I' for Inactive)
REMARK    1  A    between atoms: C_2  and  C_3
REMARK    2  A    between atoms: C_3  and  C_4
REMARK    3  A    between atoms: C_3  and  N_12
REMARK                            x       y       z     vdW  Elec       q    Type
REMARK                         _______ _______ _______ _____ _____    ______ ____
ROOT
ATOM      1  C   UNL     1       3.663   4.974  19.081  0.00  0.00    +0.000 C 
ENDROOT
BRANCH   1   2
ATOM      2  C   UNL     1       3.050   6.368  18.944  0.00  0.00    +0.000 A 
ATOM      3  C   UNL     1       2.143   6.860  19.915  0.00  0.00    +0.000 A 
ATOM      4  F   UNL     1       1.803   6.106  20.990  0.00  0.00    +0.000 F 
ATOM      5  C   UNL     1       1.572   8.134  19.778  0.00  0.00    +0.000 A 
ATOM      6  C   UNL     1       1.903   8.939  18.689  0.00  0.00    +0.000 A 
ATOM      7  C   UNL     1       2.801   8.478  17.730  0.00  0.00    +0.000 A 
ATOM      8  C   UNL     1       3.371   7.207  17.842  0.00  0.00    +0.000 A 
ATOM      9 CL   UNL     1       4.487   6.725  16.565  0.00  0.00    +0.000 Cl
ENDBRANCH   1   2
BRANCH   1  10
ATOM     10  N   UNL     1       3.321   4.081  17.932  0.00  0.00    +0.000 NA
ATOM     11  C   UNL     1       1.863   3.957  17.690  0.00  0.00    +0.000 C 
ATOM     12  C   UNL     1       1.183   3.087  18.765  0.00  0.00    +0.000 C 
ATOM     13  O   UNL     1       1.760   1.797  18.815  0.00  0.00    +0.000 OA
ATOM     14  C   UNL     1       3.131   1.902  19.143  0.00  0.00    +0.000 C 
ATOM     15  C   UNL     1       3.882   2.714  18.068  0.00  0.00    +0.000 C 
ENDBRANCH   1  10
BRANCH   1  17
ATOM     16  N   UNL     1       6.280   5.171  19.334  0.00  0.00    +0.000 NA
ATOM     17  C   UNL     1       5.128   5.099  19.221  0.00  0.00    +0.000 C 
ENDBRANCH   1  17
TORSDOF 3
ENDMDL
MODEL 3
REMARK VINA RESULT:      -6.4      2.961      5.120
REMARK  Name = 
REMARK  3 active torsions:
REMARK  status: ('A' for Active; 'I' for Inactive)
REMARK    1  A    between atoms: C_2  and  C_3
REMARK    2  A    between atoms: C_3  and  C_4
REMARK    3  A    between atoms: C_3  and  N_12
REMARK                            x       y       z     vdW  Elec       q    Type
REMARK                         _______ _______ _______ _____ _____    ______ ____
ROOT
ATOM      1  C   UNL     1       4.921   4.367  18.205  0.00  0.00    +0.000 C 
ENDROOT
BRANCH   1   2
ATOM      2  C   UNL     1       3.603   4.145  18.948  0.00  0.00    +0.000 A 
ATOM      3  C   UNL     1       2.958   5.215  19.616  0.00  0.00    +0.000 A 
ATOM      4  F   UNL     1       3.493   6.462  19.605  0.00  0.00    +0.000 F 
ATOM      5  C   UNL     1       1.756   5.004  20.309  0.00  0.00    +0.000 A 
ATOM      6  C   UNL     1       1.174   3.738  20.335  0.00  0.00    +0.000 A 
ATOM      7  C   UNL     1       1.787   2.676  19.676  0.00  0.00    +0.000 A 
ATOM      8  C   UNL     1       2.991   2.863  18.990  0.00  0.00    +0.000 A 
ATOM      9 CL   UNL     1       3.680   1.446  18.200  0.00  0.00    +0.000 Cl
ENDBRANCH   1   2
BRANCH   1  10
ATOM     10  N   UNL     1       4.767   5.268  17.022  0.00  0.00    +0.000 NA
ATOM     11  C   UNL     1       4.931   4.574  15.721  0.00  0.00    +0.000 C 
ATOM     12  C   UNL     1       6.407   4.220  15.451  0.00  0.00    +0.000 C 
ATOM     13  O   UNL     1       7.219   5.378  15.469  0.00  0.00    +0.000 OA
ATOM     14  C   UNL     1       7.144   5.991  16.741  0.00  0.00    +0.000 C 
ATOM     15  C   UNL     1       5.696   6.426  17.045  0.00  0.00    +0.000 C 
ENDBRANCH   1  10
BRANCH   1  17
ATOM     16  N   UNL     1       6.723   5.318  19.878  0.00  0.00    +0.000 NA
ATOM     17  C   UNL     1       5.922   4.912  19.144  0.00  0.00    +0.000 C 
ENDBRANCH   1  17
TORSDOF 3
ENDMDL
MODEL 4
REMARK VINA RESULT:      -6.3      2.789      4.884
REMARK  Name = 
REMARK  3 active torsions:
REMARK  status: ('A' for Active; 'I' for Inactive)
REMARK    1  A    between atoms: C_2  and  C_3
REMARK    2  A    between atoms: C_3  and  C_4
REMARK    3  A    between atoms: C_3  and  N_12
REMARK                            x       y       z     vdW  Elec       q    Type
REMARK                         _______ _______ _______ _____ _____    ______ ____
ROOT
ATOM      1  C   UNL     1       4.932   4.181  17.750  0.00  0.00    +0.000 C 
ENDROOT
BRANCH   1   2
ATOM      2  C   UNL     1       3.556   3.737  18.250  0.00  0.00    +0.000 A 
ATOM      3  C   UNL     1       3.152   2.382  18.154  0.00  0.00    +0.000 A 
ATOM      4  F   UNL     1       3.980   1.448  17.623  0.00  0.00    +0.000 F 
ATOM      5  C   UNL     1       1.884   1.982  18.601  0.00  0.00    +0.000 A 
ATOM      6  C   UNL     1       1.009   2.913  19.159  0.00  0.00    +0.000 A 
ATOM      7  C   UNL     1       1.392   4.247  19.271  0.00  0.00    +0.000 A 
ATOM      8  C   UNL     1       2.647   4.668  18.820  0.00  0.00    +0.000 A 
ATOM      9 CL   UNL     1       3.019   6.381  19.005  0.00  0.00    +0.000 Cl
ENDBRANCH   1   2
BRANCH   1  10
ATOM     10  N   UNL     1       4.844   5.168  16.630  0.00  0.00    +0.000 NA
ATOM     11  C   UNL     1       5.043   4.565  15.290  0.00  0.00    +0.000 C 
ATOM     12  C   UNL     1       6.519   4.194  15.050  0.00  0.00    +0.000 C 
ATOM     13  O   UNL     1       7.356   5.327  15.182  0.00  0.00    +0.000 OA
ATOM     14  C   UNL     1       7.246   5.849  16.491  0.00  0.00    +0.000 C 
ATOM     15  C   UNL     1       5.798   6.297  16.773  0.00  0.00    +0.000 C 
ENDBRANCH   1  10
BRANCH   1  17
ATOM     16  N   UNL     1       6.300   5.165  19.778  0.00  0.00    +0.000 NA
ATOM     17  C   UNL     1       5.700   4.744  18.878  0.00  0.00    +0.000 C 
ENDBRANCH   1  17
TORSDOF 3
ENDMDL
MODEL 5
REMARK VINA RESULT:      -6.2      2.881      4.261
REMARK  Name = 
REMARK  3 active torsions:
REMARK  status: ('A' for Active; 'I' for Inactive)
REMARK    1  A    between atoms: C_2  and  C_3
REMARK    2  A    between atoms: C_3  and  C_4
REMARK    3  A    between atoms: C_3  and  N_12
REMARK                            x       y       z     vdW  Elec       q    Type
REMARK                         _______ _______ _______ _____ _____    ______ ____
ROOT
ATOM      1  C   UNL     1       3.743   4.845  18.915  0.00  0.00    +0.000 C 
ENDROOT
BRANCH   1   2
ATOM      2  C   UNL     1       3.159   6.252  18.775  0.00  0.00    +0.000 A 
ATOM      3  C   UNL     1       3.547   7.094  17.704  0.00  0.00    +0.000 A 
ATOM      4  F   UNL     1       4.441   6.669  16.776  0.00  0.00    +0.000 F 
ATOM      5  C   UNL     1       3.020   8.390  17.587  0.00  0.00    +0.000 A 
ATOM      6  C   UNL     1       2.095   8.858  18.519  0.00  0.00    +0.000 A 
ATOM      7  C   UNL     1       1.693   8.041  19.572  0.00  0.00    +0.000 A 
ATOM      8  C   UNL     1       2.216   6.752  19.713  0.00  0.00    +0.000 A 
ATOM      9 CL   UNL     1       1.642   5.811  21.089  0.00  0.00    +0.000 Cl
ENDBRANCH   1   2
BRANCH   1  10
ATOM     10  N   UNL     1       3.381   3.957  17.768  0.00  0.00    +0.000 NA
ATOM     11  C   UNL     1       1.921   3.878  17.516  0.00  0.00    +0.000 C 
ATOM     12  C   UNL     1       1.207   3.035  18.590  0.00  0.00    +0.000 C 
ATOM     13  O   UNL     1       1.743   1.728  18.651  0.00  0.00    +0.000 OA
ATOM     14  C   UNL     1       3.115   1.792  18.989  0.00  0.00    +0.000 C 
ATOM     15  C   UNL     1       3.898   2.574  17.915  0.00  0.00    +0.000 C 
ENDBRANCH   1  10
BRANCH   1  17
ATOM     16  N   UNL     1       6.363   4.990  19.173  0.00  0.00    +0.000 NA
ATOM     17  C   UNL     1       5.210   4.939  19.054  0.00  0.00    +0.000 C 
ENDBRANCH   1  17
TORSDOF 3
ENDMDL
MODEL 6
REMARK VINA RESULT:      -6.1      2.800      5.032
REMARK  Name = 
REMARK  3 active torsions:
REMARK  status: ('A' for Active; 'I' for Inactive)
REMARK    1  A    between atoms: C_2  and  C_3
REMARK    2  A    between atoms: C_3  and  C_4
REMARK    3  A    between atoms: C_3  and  N_12
REMARK                            x       y       z     vdW  Elec       q    Type
REMARK                         _______ _______ _______ _____ _____    ______ ____
ROOT
ATOM      1  C   UNL     1       5.222   4.363  18.521  0.00  0.00    +0.000 C 
ENDROOT
BRANCH   1   2
ATOM      2  C   UNL     1       4.005   4.137  19.420  0.00  0.00    +0.000 A 
ATOM      3  C   UNL     1       3.808   2.895  20.073  0.00  0.00    +0.000 A 
ATOM      4  F   UNL     1       4.698   1.882  19.920  0.00  0.00    +0.000 F 
ATOM      5  C   UNL     1       2.684   2.687  20.886  0.00  0.00    +0.000 A 
ATOM      6  C   UNL     1       1.753   3.707  21.072  0.00  0.00    +0.000 A 
ATOM      7  C   UNL     1       1.935   4.938  20.447  0.00  0.00    +0.000 A 
ATOM      8  C   UNL     1       3.042   5.161  19.624  0.00  0.00    +0.000 A 
ATOM      9 CL   UNL     1       3.165   6.754  18.878  0.00  0.00    +0.000 Cl
ENDBRANCH   1   2
BRANCH   1  10
ATOM     10  N   UNL     1       4.888   5.145  17.291  0.00  0.00    +0.000 NA
ATOM     11  C   UNL     1       4.544   4.297  16.123  0.00  0.00    +0.000 C 
ATOM     12  C   UNL     1       5.792   3.612  15.533  0.00  0.00    +0.000 C 
ATOM     13  O   UNL     1       6.761   4.567  15.148  0.00  0.00    +0.000 OA
ATOM     14  C   UNL     1       7.168   5.314  16.278  0.00  0.00    +0.000 C 
ATOM     15  C   UNL     1       5.970   6.075  16.880  0.00  0.00    +0.000 C 
ENDBRANCH   1  10
BRANCH   1  17
ATOM     16  N   UNL     1       7.117   5.553  19.914  0.00  0.00    +0.000 NA
ATOM     17  C   UNL     1       6.280   5.042  19.295  0.00  0.00    +0.000 C 
ENDBRANCH   1  17
TORSDOF 3
ENDMDL
MODEL 7
REMARK VINA RESULT:      -5.9      2.788      5.155
REMARK  Name = 
REMARK  3 active torsions:
REMARK  status: ('A' for Active; 'I' for Inactive)
REMARK    1  A    between atoms: C_2  and  C_3
REMARK    2  A    between atoms: C_3  and  C_4
REMARK    3  A    between atoms: C_3  and  N_12
REMARK                            x       y       z     vdW  Elec       q    Type
REMARK                         _______ _______ _______ _____ _____    ______ ____
ROOT
ATOM      1  C   UNL     1       3.021   5.498  17.966  0.00  0.00    +0.000 C 
ENDROOT
BRANCH   1   2
ATOM      2  C   UNL     1       2.422   6.613  18.825  0.00  0.00    +0.000 A 
ATOM      3  C   UNL     1       2.278   7.925  18.311  0.00  0.00    +0.000 A 
ATOM      4  F   UNL     1       2.663   8.220  17.043  0.00  0.00    +0.000 F 
ATOM      5  C   UNL     1       1.742   8.949  19.107  0.00  0.00    +0.000 A 
ATOM      6  C   UNL     1       1.330   8.681  20.411  0.00  0.00    +0.000 A 
ATOM      7  C   UNL     1       1.454   7.396  20.931  0.00  0.00    +0.000 A 
ATOM      8  C   UNL     1       1.997   6.365  20.158  0.00  0.00    +0.000 A 
ATOM      9 CL   UNL     1       2.113   4.781  20.922  0.00  0.00    +0.000 Cl
ENDBRANCH   1   2
BRANCH   1  10
ATOM     10  N   UNL     1       4.243   4.894  18.580  0.00  0.00    +0.000 NA
ATOM     11  C   UNL     1       5.372   5.846  18.718  0.00  0.00    +0.000 C 
ATOM     12  C   UNL     1       6.022   6.152  17.354  0.00  0.00    +0.000 C 
ATOM     13  O   UNL     1       6.483   4.968  16.734  0.00  0.00    +0.000 OA
ATOM     14  C   UNL     1       5.394   4.094  16.510  0.00  0.00    +0.000 C 
ATOM     15  C   UNL     1       4.735   3.700  17.847  0.00  0.00    +0.000 C 
ENDBRANCH   1  10
BRANCH   1  17
ATOM     16  N   UNL     1       1.174   3.667  17.531  0.00  0.00    +0.000 NA
ATOM     17  C   UNL     1       1.994   4.463  17.729  0.00  0.00    +0.000 C 
ENDBRANCH   1  17
TORSDOF 3
ENDMDL
MODEL 8
REMARK VINA RESULT:      -5.9      2.872      5.006
REMARK  Name = 
REMARK  3 active torsions:
REMARK  status: ('A' for Active; 'I' for Inactive)
REMARK    1  A    between atoms: C_2  and  C_3
REMARK    2  A    between atoms: C_3  and  C_4
REMARK    3  A    between atoms: C_3  and  N_12
REMARK                            x       y       z     vdW  Elec       q    Type
REMARK                         _______ _______ _______ _____ _____    ______ ____
ROOT
ATOM      1  C   UNL     1       3.858   5.155  17.423  0.00  0.00    +0.000 C 
ENDROOT
BRANCH   1   2
ATOM      2  C   UNL     1       3.097   6.004  18.442  0.00  0.00    +0.000 A 
ATOM      3  C   UNL     1       2.767   7.353  18.160  0.00  0.00    +0.000 A 
ATOM      4  F   UNL     1       3.115   7.919  16.976  0.00  0.00    +0.000 F 
ATOM      5  C   UNL     1       2.081   8.133  19.103  0.00  0.00    +0.000 A 
ATOM      6  C   UNL     1       1.702   7.583  20.327  0.00  0.00    +0.000 A 
ATOM      7  C   UNL     1       2.007   6.257  20.618  0.00  0.00    +0.000 A 
ATOM      8  C   UNL     1       2.700   5.467  19.696  0.00  0.00    +0.000 A 
ATOM      9 CL   UNL     1       3.039   3.805  20.176  0.00  0.00    +0.000 Cl
ENDBRANCH   1   2
BRANCH   1  10
ATOM     10  N   UNL     1       5.233   4.798  17.886  0.00  0.00    +0.000 NA
ATOM     11  C   UNL     1       6.022   5.963  18.357  0.00  0.00    +0.000 C 
ATOM     12  C   UNL     1       6.483   6.846  17.182  0.00  0.00    +0.000 C 
ATOM     13  O   UNL     1       7.254   6.102  16.258  0.00  0.00    +0.000 OA
ATOM     14  C   UNL     1       6.474   5.047  15.730  0.00  0.00    +0.000 C 
ATOM     15  C   UNL     1       6.031   4.089  16.855  0.00  0.00    +0.000 C 
ENDBRANCH   1  10
BRANCH   1  17
ATOM     16  N   UNL     1       2.445   2.992  16.897  0.00  0.00    +0.000 NA
ATOM     17  C   UNL     1       3.078   3.936  17.127  0.00  0.00    +0.000 C 
ENDBRANCH   1  17
TORSDOF 3
ENDMDL
MODEL 9
REMARK VINA RESULT:      -5.9      2.772      4.991
REMARK  Name = 
REMARK  3 active torsions:
REMARK  status: ('A' for Active; 'I' for Inactive)
REMARK    1  A    between atoms: C_2  and  C_3
REMARK    2  A    between atoms: C_3  and  C_4
REMARK    3  A    between atoms: C_3  and  N_12
REMARK                            x       y       z     vdW  Elec       q    Type
REMARK                         _______ _______ _______ _____ _____    ______ ____
ROOT
ATOM      1  C   UNL     1       3.896   5.025  17.560  0.00  0.00    +0.000 C 
ENDROOT
BRANCH   1   2
ATOM      2  C   UNL     1       3.123   5.628  18.734  0.00  0.00    +0.000 A 
ATOM      3  C   UNL     1       2.788   4.838  19.862  0.00  0.00    +0.000 A 
ATOM      4  F   UNL     1       3.151   3.533  19.928  0.00  0.00    +0.000 F 
ATOM      5  C   UNL     1       2.066   5.391  20.932  0.00  0.00    +0.000 A 
ATOM      6  C   UNL     1       1.683   6.731  20.902  0.00  0.00    +0.000 A 
ATOM      7  C   UNL     1       2.012   7.525  19.807  0.00  0.00    +0.000 A 
ATOM      8  C   UNL     1       2.719   6.990  18.727  0.00  0.00    +0.000 A 
ATOM      9 CL   UNL     1       3.073   8.086  17.392  0.00  0.00    +0.000 Cl
ENDBRANCH   1   2
BRANCH   1  10
ATOM     10  N   UNL     1       5.302   4.670  17.921  0.00  0.00    +0.000 NA
ATOM     11  C   UNL     1       6.088   5.813  18.447  0.00  0.00    +0.000 C 
ATOM     12  C   UNL     1       6.465   6.803  17.327  0.00  0.00    +0.000 C 
ATOM     13  O   UNL     1       7.202   6.159  16.306  0.00  0.00    +0.000 OA
ATOM     14  C   UNL     1       6.420   5.130  15.733  0.00  0.00    +0.000 C 
ATOM     15  C   UNL     1       6.060   4.071  16.794  0.00  0.00    +0.000 C 
ENDBRANCH   1  10
BRANCH   1  17
ATOM     16  N   UNL     1       2.597   2.902  16.691  0.00  0.00    +0.000 NA
ATOM     17  C   UNL     1       3.174   3.838  17.060  0.00  0.00    +0.000 C 
ENDBRANCH   1  17
TORSDOF 3
ENDMDL
