MODEL 1
REMARK VINA RESULT:      -7.4      0.000      0.000
REMARK  Name = 
REMARK  4 active torsions:
REMARK  status: ('A' for Active; 'I' for Inactive)
REMARK    1  A    between atoms: C_2  and  C_13
REMARK    2  A    between atoms: N_3  and  C_4
REMARK    3  A    between atoms: C_4  and  N_6
REMARK    4  A    between atoms: N_6  and  C_7
REMARK                            x       y       z     vdW  Elec       q    Type
REMARK                         _______ _______ _______ _____ _____    ______ ____
ROOT
ATOM      1  O   UNL     1       5.868   6.444  15.845  0.00  0.00    +0.000 OA
ATOM      2  C   UNL     1       6.537   5.430  15.679  0.00  0.00    +0.000 C 
ATOM      3  N   UNL     1       7.329   4.818  16.650  0.00  0.00    +0.000 N 
ATOM      4  H   UNL     1       7.878   4.033  16.346  0.00  0.00    +0.000 HD
ENDROOT
BRANCH   2   5
ATOM      5  C   UNL     1       6.578   4.837  14.315  0.00  0.00    +0.000 A 
ATOM      6  C   UNL     1       5.671   3.860  13.885  0.00  0.00    +0.000 A 
ATOM      7  C   UNL     1       5.788   3.322  12.600  0.00  0.00    +0.000 A 
ATOM      8  C   UNL     1       6.807   3.749  11.746  0.00  0.00    +0.000 A 
ATOM      9  C   UNL     1       7.717   4.714  12.174  0.00  0.00    +0.000 A 
ATOM     10  C   UNL     1       7.605   5.253  13.455  0.00  0.00    +0.000 A 
ENDBRANCH   2   5
BRANCH   3  11
ATOM     11  C   UNL     1       7.121   4.808  18.031  0.00  0.00    +0.000 C 
ATOM     12  S   UNL     1       7.793   5.863  19.140  0.00  0.00    +0.000 S 
BRANCH  11  13
ATOM     13  N   UNL     1       6.202   3.815  18.359  0.00  0.00    +0.000 N 
ATOM     14  H   UNL     1       6.616   2.955  18.713  0.00  0.00    +0.000 HD
BRANCH  13  15
ATOM     15  C   UNL     1       4.836   4.060  18.846  0.00  0.00    +0.000 C 
ATOM     16  C   UNL     1       3.845   4.209  17.692  0.00  0.00    +0.000 C 
ATOM     17  C   UNL     1       2.456   4.145  18.293  0.00  0.00    +0.000 C 
ATOM     18  S   UNL     1       2.542   2.753  19.453  0.00  0.00    +0.000 S 
ATOM     19  C   UNL     1       4.289   2.881  19.639  0.00  0.00    +0.000 C 
ATOM     20  O   UNL     1       4.953   2.117  20.326  0.00  0.00    +0.000 OA
ENDBRANCH  13  15
ENDBRANCH  11  13
ENDBRANCH   3  11
TORSDOF 4
ENDMDL
MODEL 2
REMARK VINA RESULT:      -7.2      0.322      1.184
REMARK  Name = 
REMARK  4 active torsions:
REMARK  status: ('A' for Active; 'I' for Inactive)
REMARK    1  A    between atoms: C_2  and  C_13
REMARK    2  A    between atoms: N_3  and  C_4
REMARK    3  A    between atoms: C_4  and  N_6
REMARK    4  A    between atoms: N_6  and  C_7
REMARK                            x       y       z     vdW  Elec       q    Type
REMARK                         _______ _______ _______ _____ _____    ______ ____
ROOT
ATOM      1  O   UNL     1       5.380   6.109  15.906  0.00  0.00    +0.000 OA
ATOM      2  C   UNL     1       6.303   5.318  15.737  0.00  0.00    +0.000 C 
ATOM      3  N   UNL     1       7.217   4.925  16.714  0.00  0.00    +0.000 N 
ATOM      4  H   UNL     1       7.963   4.325  16.408  0.00  0.00    +0.000 HD
ENDROOT
BRANCH   2   5
ATOM      5  C   UNL     1       6.524   4.788  14.364  0.00  0.00    +0.000 A 
ATOM      6  C   UNL     1       7.579   5.213  13.547  0.00  0.00    +0.000 A 
ATOM      7  C   UNL     1       7.707   4.696  12.255  0.00  0.00    +0.000 A 
ATOM      8  C   UNL     1       6.787   3.763  11.773  0.00  0.00    +0.000 A 
ATOM      9  C   UNL     1       5.731   3.345  12.579  0.00  0.00    +0.000 A 
ATOM     10  C   UNL     1       5.597   3.857  13.869  0.00  0.00    +0.000 A 
ENDBRANCH   2   5
BRANCH   3  11
ATOM     11  C   UNL     1       6.999   4.830  18.090  0.00  0.00    +0.000 C 
ATOM     12  S   UNL     1       7.719   5.765  19.272  0.00  0.00    +0.000 S 
BRANCH  11  13
ATOM     13  N   UNL     1       6.024   3.868  18.344  0.00  0.00    +0.000 N 
ATOM     14  H   UNL     1       6.379   2.917  18.425  0.00  0.00    +0.000 HD
BRANCH  13  15
ATOM     15  C   UNL     1       4.785   4.106  19.099  0.00  0.00    +0.000 C 
ATOM     16  C   UNL     1       3.622   4.461  18.173  0.00  0.00    +0.000 C 
ATOM     17  C   UNL     1       2.357   4.378  19.003  0.00  0.00    +0.000 C 
ATOM     18  S   UNL     1       2.544   2.834  19.937  0.00  0.00    +0.000 S 
ATOM     19  C   UNL     1       4.302   2.853  19.818  0.00  0.00    +0.000 C 
ATOM     20  O   UNL     1       5.019   1.970  20.267  0.00  0.00    +0.000 OA
ENDBRANCH  13  15
ENDBRANCH  11  13
ENDBRANCH   3  11
TORSDOF 4
ENDMDL
MODEL 3
REMARK VINA RESULT:      -7.1      1.421      1.601
REMARK  Name = 
REMARK  4 active torsions:
REMARK  status: ('A' for Active; 'I' for Inactive)
REMARK    1  A    between atoms: C_2  and  C_13
REMARK    2  A    between atoms: N_3  and  C_4
REMARK    3  A    between atoms: C_4  and  N_6
REMARK    4  A    between atoms: N_6  and  C_7
REMARK                            x       y       z     vdW  Elec       q    Type
REMARK                         _______ _______ _______ _____ _____    ______ ____
ROOT
ATOM      1  O   UNL     1       7.523   6.381  16.046  0.00  0.00    +0.000 OA
ATOM      2  C   UNL     1       7.140   5.221  15.935  0.00  0.00    +0.000 C 
ATOM      3  N   UNL     1       7.034   4.303  16.980  0.00  0.00    +0.000 N 
ATOM      4  H   UNL     1       6.774   3.366  16.724  0.00  0.00    +0.000 HD
ENDROOT
BRANCH   2   5
ATOM      5  C   UNL     1       6.835   4.715  14.570  0.00  0.00    +0.000 A 
ATOM      6  C   UNL     1       5.773   3.841  14.304  0.00  0.00    +0.000 A 
ATOM      7  C   UNL     1       5.564   3.379  13.001  0.00  0.00    +0.000 A 
ATOM      8  C   UNL     1       6.410   3.780  11.966  0.00  0.00    +0.000 A 
ATOM      9  C   UNL     1       7.474   4.641  12.228  0.00  0.00    +0.000 A 
ATOM     10  C   UNL     1       7.687   5.105  13.525  0.00  0.00    +0.000 A 
ENDBRANCH   2   5
BRANCH   3  11
ATOM     11  C   UNL     1       6.760   4.574  18.322  0.00  0.00    +0.000 C 
ATOM     12  S   UNL     1       7.556   5.677  19.291  0.00  0.00    +0.000 S 
BRANCH  11  13
ATOM     13  N   UNL     1       5.660   3.826  18.735  0.00  0.00    +0.000 N 
ATOM     14  H   UNL     1       5.488   3.845  19.738  0.00  0.00    +0.000 HD
BRANCH  13  15
ATOM     15  C   UNL     1       4.452   3.593  17.930  0.00  0.00    +0.000 C 
ATOM     16  C   UNL     1       3.650   2.400  18.450  0.00  0.00    +0.000 C 
ATOM     17  C   UNL     1       2.300   2.442  17.763  0.00  0.00    +0.000 C 
ATOM     18  S   UNL     1       1.808   4.185  17.866  0.00  0.00    +0.000 S 
ATOM     19  C   UNL     1       3.469   4.753  18.020  0.00  0.00    +0.000 C 
ATOM     20  O   UNL     1       3.770   5.928  18.173  0.00  0.00    +0.000 OA
ENDBRANCH  13  15
ENDBRANCH  11  13
ENDBRANCH   3  11
TORSDOF 4
ENDMDL
MODEL 4
REMARK VINA RESULT:      -7.1      0.986      1.500
REMARK  Name = 
REMARK  4 active torsions:
REMARK  status: ('A' for Active; 'I' for Inactive)
REMARK    1  A    between atoms: C_2  and  C_13
REMARK    2  A    between atoms: N_3  and  C_4
REMARK    3  A    between atoms: C_4  and  N_6
REMARK    4  A    between atoms: N_6  and  C_7
REMARK                            x       y       z     vdW  Elec       q    Type
REMARK                         _______ _______ _______ _____ _____    ______ ____
ROOT
ATOM      1  O   UNL     1       7.477   6.391  16.068  0.00  0.00    +0.000 OA
ATOM      2  C   UNL     1       7.145   5.220  15.920  0.00  0.00    +0.000 C 
ATOM      3  N   UNL     1       7.022   4.281  16.944  0.00  0.00    +0.000 N 
ATOM      4  H   UNL     1       6.813   3.339  16.661  0.00  0.00    +0.000 HD
ENDROOT
BRANCH   2   5
ATOM      5  C   UNL     1       6.929   4.726  14.533  0.00  0.00    +0.000 A 
ATOM      6  C   UNL     1       7.751   5.094  13.460  0.00  0.00    +0.000 A 
ATOM      7  C   UNL     1       7.470   4.618  12.176  0.00  0.00    +0.000 A 
ATOM      8  C   UNL     1       6.372   3.783  11.957  0.00  0.00    +0.000 A 
ATOM      9  C   UNL     1       5.547   3.423  13.021  0.00  0.00    +0.000 A 
ATOM     10  C   UNL     1       5.822   3.895  14.303  0.00  0.00    +0.000 A 
ENDBRANCH   2   5
BRANCH   3  11
ATOM     11  C   UNL     1       6.670   4.518  18.275  0.00  0.00    +0.000 C 
ATOM     12  S   UNL     1       7.338   5.671  19.283  0.00  0.00    +0.000 S 
BRANCH  11  13
ATOM     13  N   UNL     1       5.614   3.685  18.635  0.00  0.00    +0.000 N 
ATOM     14  H   UNL     1       5.888   2.857  19.158  0.00  0.00    +0.000 HD
BRANCH  13  15
ATOM     15  C   UNL     1       4.244   4.139  18.916  0.00  0.00    +0.000 C 
ATOM     16  C   UNL     1       3.775   5.178  17.897  0.00  0.00    +0.000 C 
ATOM     17  C   UNL     1       2.281   5.340  18.087  0.00  0.00    +0.000 C 
ATOM     18  S   UNL     1       1.670   3.638  18.233  0.00  0.00    +0.000 S 
ATOM     19  C   UNL     1       3.227   3.015  18.775  0.00  0.00    +0.000 C 
ATOM     20  O   UNL     1       3.437   1.833  19.008  0.00  0.00    +0.000 OA
ENDBRANCH  13  15
ENDBRANCH  11  13
ENDBRANCH   3  11
TORSDOF 4
ENDMDL
MODEL 5
REMARK VINA RESULT:      -6.8      0.969      1.039
REMARK  Name = 
REMARK  4 active torsions:
REMARK  status: ('A' for Active; 'I' for Inactive)
REMARK    1  A    between atoms: C_2  and  C_13
REMARK    2  A    between atoms: N_3  and  C_4
REMARK    3  A    between atoms: C_4  and  N_6
REMARK    4  A    between atoms: N_6  and  C_7
REMARK                            x       y       z     vdW  Elec       q    Type
REMARK                         _______ _______ _______ _____ _____    ______ ____
ROOT
ATOM      1  O   UNL     1       7.537   6.144  16.005  0.00  0.00    +0.000 OA
ATOM      2  C   UNL     1       7.008   5.061  15.776  0.00  0.00    +0.000 C 
ATOM      3  N   UNL     1       6.603   4.141  16.742  0.00  0.00    +0.000 N 
ATOM      4  H   UNL     1       6.250   3.264  16.401  0.00  0.00    +0.000 HD
ENDROOT
BRANCH   2   5
ATOM      5  C   UNL     1       6.849   4.649  14.355  0.00  0.00    +0.000 A 
ATOM      6  C   UNL     1       5.908   3.698  13.942  0.00  0.00    +0.000 A 
ATOM      7  C   UNL     1       5.836   3.333  12.594  0.00  0.00    +0.000 A 
ATOM      8  C   UNL     1       6.699   3.909  11.660  0.00  0.00    +0.000 A 
ATOM      9  C   UNL     1       7.643   4.849  12.069  0.00  0.00    +0.000 A 
ATOM     10  C   UNL     1       7.720   5.215  13.412  0.00  0.00    +0.000 A 
ENDBRANCH   2   5
BRANCH   3  11
ATOM     11  C   UNL     1       6.165   4.412  18.040  0.00  0.00    +0.000 C 
ATOM     12  S   UNL     1       6.896   5.439  19.137  0.00  0.00    +0.000 S 
BRANCH  11  13
ATOM     13  N   UNL     1       4.967   3.742  18.279  0.00  0.00    +0.000 N 
ATOM     14  H   UNL     1       4.952   2.776  17.958  0.00  0.00    +0.000 HD
BRANCH  13  15
ATOM     15  C   UNL     1       4.068   4.005  19.412  0.00  0.00    +0.000 C 
ATOM     16  C   UNL     1       2.641   4.286  18.944  0.00  0.00    +0.000 C 
ATOM     17  C   UNL     1       1.755   4.233  20.172  0.00  0.00    +0.000 C 
ATOM     18  S   UNL     1       2.316   2.751  21.055  0.00  0.00    +0.000 S 
ATOM     19  C   UNL     1       3.916   2.791  20.318  0.00  0.00    +0.000 C 
ATOM     20  O   UNL     1       4.777   1.948  20.527  0.00  0.00    +0.000 OA
ENDBRANCH  13  15
ENDBRANCH  11  13
ENDBRANCH   3  11
TORSDOF 4
ENDMDL
MODEL 6
REMARK VINA RESULT:      -6.8      1.128      1.651
REMARK  Name = 
REMARK  4 active torsions:
REMARK  status: ('A' for Active; 'I' for Inactive)
REMARK    1  A    between atoms: C_2  and  C_13
REMARK    2  A    between atoms: N_3  and  C_4
REMARK    3  A    between atoms: C_4  and  N_6
REMARK    4  A    between atoms: N_6  and  C_7
REMARK                            x       y       z     vdW  Elec       q    Type
REMARK                         _______ _______ _______ _____ _____    ______ ____
ROOT
ATOM      1  O   UNL     1       5.871   6.426  15.827  0.00  0.00    +0.000 OA
ATOM      2  C   UNL     1       6.517   5.393  15.691  0.00  0.00    +0.000 C 
ATOM      3  N   UNL     1       7.234   4.750  16.699  0.00  0.00    +0.000 N 
ATOM      4  H   UNL     1       7.776   3.951  16.420  0.00  0.00    +0.000 HD
ENDROOT
BRANCH   2   5
ATOM      5  C   UNL     1       6.617   4.808  14.326  0.00  0.00    +0.000 A 
ATOM      6  C   UNL     1       7.616   5.174  13.415  0.00  0.00    +0.000 A 
ATOM      7  C   UNL     1       7.630   4.608  12.136  0.00  0.00    +0.000 A 
ATOM      8  C   UNL     1       6.651   3.686  11.762  0.00  0.00    +0.000 A 
ATOM      9  C   UNL     1       5.650   3.327  12.662  0.00  0.00    +0.000 A 
ATOM     10  C   UNL     1       5.630   3.888  13.938  0.00  0.00    +0.000 A 
ENDBRANCH   2   5
BRANCH   3  11
ATOM     11  C   UNL     1       6.949   4.738  18.066  0.00  0.00    +0.000 C 
ATOM     12  S   UNL     1       7.616   5.740  19.225  0.00  0.00    +0.000 S 
BRANCH  11  13
ATOM     13  N   UNL     1       5.958   3.795  18.329  0.00  0.00    +0.000 N 
ATOM     14  H   UNL     1       6.100   3.258  19.181  0.00  0.00    +0.000 HD
BRANCH  13  15
ATOM     15  C   UNL     1       4.547   3.929  17.939  0.00  0.00    +0.000 C 
ATOM     16  C   UNL     1       3.844   2.572  17.895  0.00  0.00    +0.000 C 
ATOM     17  C   UNL     1       2.358   2.847  17.795  0.00  0.00    +0.000 C 
ATOM     18  S   UNL     1       2.070   4.158  19.016  0.00  0.00    +0.000 S 
ATOM     19  C   UNL     1       3.741   4.716  18.964  0.00  0.00    +0.000 C 
ATOM     20  O   UNL     1       4.172   5.622  19.663  0.00  0.00    +0.000 OA
ENDBRANCH  13  15
ENDBRANCH  11  13
ENDBRANCH   3  11
TORSDOF 4
ENDMDL
MODEL 7
REMARK VINA RESULT:      -6.7      1.810      2.088
REMARK  Name = 
REMARK  4 active torsions:
REMARK  status: ('A' for Active; 'I' for Inactive)
REMARK    1  A    between atoms: C_2  and  C_13
REMARK    2  A    between atoms: N_3  and  C_4
REMARK    3  A    between atoms: C_4  and  N_6
REMARK    4  A    between atoms: N_6  and  C_7
REMARK                            x       y       z     vdW  Elec       q    Type
REMARK                         _______ _______ _______ _____ _____    ______ ____
ROOT
ATOM      1  O   UNL     1       7.705   4.731  16.896  0.00  0.00    +0.000 OA
ATOM      2  C   UNL     1       6.703   4.328  16.313  0.00  0.00    +0.000 C 
ATOM      3  N   UNL     1       5.567   3.804  16.929  0.00  0.00    +0.000 N 
ATOM      4  H   UNL     1       4.855   3.447  16.317  0.00  0.00    +0.000 HD
ENDROOT
BRANCH   2   5
ATOM      5  C   UNL     1       6.719   4.319  14.825  0.00  0.00    +0.000 A 
ATOM      6  C   UNL     1       5.858   3.521  14.062  0.00  0.00    +0.000 A 
ATOM      7  C   UNL     1       5.950   3.538  12.667  0.00  0.00    +0.000 A 
ATOM      8  C   UNL     1       6.898   4.342  12.032  0.00  0.00    +0.000 A 
ATOM      9  C   UNL     1       7.764   5.130  12.788  0.00  0.00    +0.000 A 
ATOM     10  C   UNL     1       7.677   5.116  14.179  0.00  0.00    +0.000 A 
ENDBRANCH   2   5
BRANCH   3  11
ATOM     11  C   UNL     1       5.061   4.127  18.190  0.00  0.00    +0.000 C 
ATOM     12  S   UNL     1       4.556   5.637  18.695  0.00  0.00    +0.000 S 
BRANCH  11  13
ATOM     13  N   UNL     1       4.971   2.974  18.966  0.00  0.00    +0.000 N 
ATOM     14  H   UNL     1       5.757   2.826  19.595  0.00  0.00    +0.000 HD
BRANCH  13  15
ATOM     15  C   UNL     1       3.714   2.374  19.435  0.00  0.00    +0.000 C 
ATOM     16  C   UNL     1       3.086   3.192  20.564  0.00  0.00    +0.000 C 
ATOM     17  C   UNL     1       1.674   2.674  20.752  0.00  0.00    +0.000 C 
ATOM     18  S   UNL     1       1.033   2.519  19.062  0.00  0.00    +0.000 S 
ATOM     19  C   UNL     1       2.641   2.370  18.355  0.00  0.00    +0.000 C 
ATOM     20  O   UNL     1       2.843   2.272  17.153  0.00  0.00    +0.000 OA
ENDBRANCH  13  15
ENDBRANCH  11  13
ENDBRANCH   3  11
TORSDOF 4
ENDMDL
MODEL 8
REMARK VINA RESULT:      -6.7      1.815      2.391
REMARK  Name = 
REMARK  4 active torsions:
REMARK  status: ('A' for Active; 'I' for Inactive)
REMARK    1  A    between atoms: C_2  and  C_13
REMARK    2  A    between atoms: N_3  and  C_4
REMARK    3  A    between atoms: C_4  and  N_6
REMARK    4  A    between atoms: N_6  and  C_7
REMARK                            x       y       z     vdW  Elec       q    Type
REMARK                         _______ _______ _______ _____ _____    ______ ____
ROOT
ATOM      1  O   UNL     1       7.700   4.870  17.055  0.00  0.00    +0.000 OA
ATOM      2  C   UNL     1       6.740   4.398  16.455  0.00  0.00    +0.000 C 
ATOM      3  N   UNL     1       5.621   3.818  17.051  0.00  0.00    +0.000 N 
ATOM      4  H   UNL     1       4.947   3.408  16.427  0.00  0.00    +0.000 HD
ENDROOT
BRANCH   2   5
ATOM      5  C   UNL     1       6.796   4.365  14.968  0.00  0.00    +0.000 A 
ATOM      6  C   UNL     1       7.723   5.109  14.227  0.00  0.00    +0.000 A 
ATOM      7  C   UNL     1       7.697   5.056  12.830  0.00  0.00    +0.000 A 
ATOM      8  C   UNL     1       6.750   4.270  12.171  0.00  0.00    +0.000 A 
ATOM      9  C   UNL     1       5.821   3.535  12.905  0.00  0.00    +0.000 A 
ATOM     10  C   UNL     1       5.841   3.585  14.297  0.00  0.00    +0.000 A 
ENDBRANCH   2   5
BRANCH   3  11
ATOM     11  C   UNL     1       5.063   4.132  18.292  0.00  0.00    +0.000 C 
ATOM     12  S   UNL     1       4.522   5.635  18.781  0.00  0.00    +0.000 S 
BRANCH  11  13
ATOM     13  N   UNL     1       4.955   2.976  19.062  0.00  0.00    +0.000 N 
ATOM     14  H   UNL     1       5.721   2.831  19.715  0.00  0.00    +0.000 HD
BRANCH  13  15
ATOM     15  C   UNL     1       3.687   2.365  19.487  0.00  0.00    +0.000 C 
ATOM     16  C   UNL     1       3.044   3.143  20.635  0.00  0.00    +0.000 C 
ATOM     17  C   UNL     1       1.628   2.626  20.780  0.00  0.00    +0.000 C 
ATOM     18  S   UNL     1       1.014   2.539  19.075  0.00  0.00    +0.000 S 
ATOM     19  C   UNL     1       2.633   2.408  18.389  0.00  0.00    +0.000 C 
ATOM     20  O   UNL     1       2.855   2.354  17.188  0.00  0.00    +0.000 OA
ENDBRANCH  13  15
ENDBRANCH  11  13
ENDBRANCH   3  11
TORSDOF 4
ENDMDL
MODEL 9
REMARK VINA RESULT:      -6.6      3.174      4.689
REMARK  Name = 
REMARK  4 active torsions:
REMARK  status: ('A' for Active; 'I' for Inactive)
REMARK    1  A    between atoms: C_2  and  C_13
REMARK    2  A    between atoms: N_3  and  C_4
REMARK    3  A    between atoms: C_4  and  N_6
REMARK    4  A    between atoms: N_6  and  C_7
REMARK                            x       y       z     vdW  Elec       q    Type
REMARK                         _______ _______ _______ _____ _____    ______ ____
ROOT
ATOM      1  O   UNL     1       6.020   4.896  19.759  0.00  0.00    +0.000 OA
ATOM      2  C   UNL     1       5.225   4.640  18.861  0.00  0.00    +0.000 C 
ATOM      3  N   UNL     1       3.876   4.335  19.041  0.00  0.00    +0.000 N 
ATOM      4  H   UNL     1       3.365   4.075  18.215  0.00  0.00    +0.000 HD
ENDROOT
BRANCH   2   5
ATOM      5  C   UNL     1       5.745   4.568  17.469  0.00  0.00    +0.000 A 
ATOM      6  C   UNL     1       7.077   4.851  17.141  0.00  0.00    +0.000 A 
ATOM      7  C   UNL     1       7.490   4.796  15.806  0.00  0.00    +0.000 A 
ATOM      8  C   UNL     1       6.581   4.467  14.799  0.00  0.00    +0.000 A 
ATOM      9  C   UNL     1       5.252   4.194  15.120  0.00  0.00    +0.000 A 
ATOM     10  C   UNL     1       4.835   4.248  16.449  0.00  0.00    +0.000 A 
ENDBRANCH   2   5
BRANCH   3  11
ATOM     11  C   UNL     1       3.033   4.788  20.057  0.00  0.00    +0.000 C 
ATOM     12  S   UNL     1       2.157   3.835  21.113  0.00  0.00    +0.000 S 
BRANCH  11  13
ATOM     13  N   UNL     1       3.074   6.179  20.115  0.00  0.00    +0.000 N 
ATOM     14  H   UNL     1       4.011   6.572  20.176  0.00  0.00    +0.000 HD
BRANCH  13  15
ATOM     15  C   UNL     1       2.095   7.076  19.484  0.00  0.00    +0.000 C 
ATOM     16  C   UNL     1       1.719   8.236  20.405  0.00  0.00    +0.000 C 
ATOM     17  C   UNL     1       0.966   9.244  19.561  0.00  0.00    +0.000 C 
ATOM     18  S   UNL     1       1.948   9.365  18.040  0.00  0.00    +0.000 S 
ATOM     19  C   UNL     1       2.660   7.767  18.250  0.00  0.00    +0.000 C 
ATOM     20  O   UNL     1       3.492   7.293  17.489  0.00  0.00    +0.000 OA
ENDBRANCH  13  15
ENDBRANCH  11  13
ENDBRANCH   3  11
TORSDOF 4
ENDMDL
