MODEL 1
REMARK VINA RESULT:      -7.9      0.000      0.000
REMARK  Name = 
REMARK  5 active torsions:
REMARK  status: ('A' for Active; 'I' for Inactive)
REMARK    1  A    between atoms: C_1  and  O_2
REMARK    2  A    between atoms: O_2  and  C_3
REMARK    3  A    between atoms: C_6  and  C_7
REMARK    4  A    between atoms: C_10  and  C_11
REMARK    5  A    between atoms: C_16  and  C_17
REMARK                            x       y       z     vdW  Elec       q    Type
REMARK                         _______ _______ _______ _____ _____    ______ ____
ROOT
ATOM      1  C   UNL     1       1.922   8.221  19.239  0.00  0.00    +0.000 A 
ATOM      2  N   UNL     1       2.338   8.754  18.084  0.00  0.00    +0.000 NA
ATOM      3  O   UNL     1       2.962   7.696  17.435  0.00  0.00    +0.000 OA
ATOM      4  C   UNL     1       2.874   6.586  18.253  0.00  0.00    +0.000 A 
ATOM      5  N   UNL     1       2.231   6.889  19.372  0.00  0.00    +0.000 NA
ENDROOT
BRANCH   4   6
ATOM      6  C   UNL     1       3.431   5.311  17.910  0.00  0.00    +0.000 A 
ATOM      7  C   UNL     1       2.883   4.214  18.449  0.00  0.00    +0.000 A 
ATOM      8  C   UNL     1       3.493   2.922  18.124  0.00  0.00    +0.000 A 
ATOM      9  O   UNL     1       3.040   1.872  18.561  0.00  0.00    +0.000 OA
ATOM     10  N   UNL     1       4.585   2.981  17.319  0.00  0.00    +0.000 N 
ATOM     11  C   UNL     1       5.034   4.156  16.802  0.00  0.00    +0.000 A 
ATOM     12  N   UNL     1       4.512   5.310  17.057  0.00  0.00    +0.000 NA
ATOM     13  H   UNL     1       5.034   2.105  17.093  0.00  0.00    +0.000 HD
BRANCH  11  14
ATOM     14  C   UNL     1       6.210   4.075  15.911  0.00  0.00    +0.000 C 
ATOM     15  C   UNL     1       6.033   3.912  14.419  0.00  0.00    +0.000 C 
ATOM     16  C   UNL     1       6.536   5.211  14.971  0.00  0.00    +0.000 C 
ENDBRANCH  11  14
ENDBRANCH   4   6
BRANCH   1  20
ATOM     17  C   UNL     1      -0.165  10.386  22.274  0.00  0.00    +0.000 A 
ATOM     18  C   UNL     1       0.554   9.237  22.599  0.00  0.00    +0.000 A 
ATOM     19  C   UNL     1       1.250   8.533  21.613  0.00  0.00    +0.000 A 
ATOM     20  C   UNL     1       1.219   8.960  20.279  0.00  0.00    +0.000 A 
ATOM     21  C   UNL     1       0.483  10.111  19.959  0.00  0.00    +0.000 A 
ATOM     22  C   UNL     1      -0.210  10.818  20.948  0.00  0.00    +0.000 A 
BRANCH  17  24
ATOM     23  C   UNL     1      -1.966  11.746  22.966  0.00  0.00    +0.000 C 
ATOM     24  O   UNL     1      -0.817  10.983  23.318  0.00  0.00    +0.000 OA
ENDBRANCH  17  24
ENDBRANCH   1  20
TORSDOF 4
ENDMDL
MODEL 2
REMARK VINA RESULT:      -7.8      0.088      1.009
REMARK  Name = 
REMARK  5 active torsions:
REMARK  status: ('A' for Active; 'I' for Inactive)
REMARK    1  A    between atoms: C_1  and  O_2
REMARK    2  A    between atoms: O_2  and  C_3
REMARK    3  A    between atoms: C_6  and  C_7
REMARK    4  A    between atoms: C_10  and  C_11
REMARK    5  A    between atoms: C_16  and  C_17
REMARK                            x       y       z     vdW  Elec       q    Type
REMARK                         _______ _______ _______ _____ _____    ______ ____
ROOT
ATOM      1  C   UNL     1       1.903   8.212  19.275  0.00  0.00    +0.000 A 
ATOM      2  N   UNL     1       2.327   8.752  18.127  0.00  0.00    +0.000 NA
ATOM      3  O   UNL     1       2.957   7.699  17.476  0.00  0.00    +0.000 OA
ATOM      4  C   UNL     1       2.864   6.584  18.286  0.00  0.00    +0.000 A 
ATOM      5  N   UNL     1       2.212   6.878  19.402  0.00  0.00    +0.000 NA
ENDROOT
BRANCH   4   6
ATOM      6  C   UNL     1       3.424   5.311  17.938  0.00  0.00    +0.000 A 
ATOM      7  C   UNL     1       2.891   4.212  18.489  0.00  0.00    +0.000 A 
ATOM      8  C   UNL     1       3.504   2.923  18.159  0.00  0.00    +0.000 A 
ATOM      9  O   UNL     1       3.066   1.872  18.606  0.00  0.00    +0.000 OA
ATOM     10  N   UNL     1       4.584   2.986  17.337  0.00  0.00    +0.000 N 
ATOM     11  C   UNL     1       5.018   4.163  16.809  0.00  0.00    +0.000 A 
ATOM     12  N   UNL     1       4.492   5.315  17.069  0.00  0.00    +0.000 NA
ATOM     13  H   UNL     1       5.035   2.113  17.107  0.00  0.00    +0.000 HD
BRANCH  11  14
ATOM     14  C   UNL     1       6.180   4.087  15.901  0.00  0.00    +0.000 C 
ATOM     15  C   UNL     1       5.981   3.911  14.412  0.00  0.00    +0.000 C 
ATOM     16  C   UNL     1       6.480   5.219  14.948  0.00  0.00    +0.000 C 
ENDBRANCH  11  14
ENDBRANCH   4   6
BRANCH   1  20
ATOM     17  C   UNL     1      -0.156  10.359  22.342  0.00  0.00    +0.000 A 
ATOM     18  C   UNL     1      -0.215  10.794  21.018  0.00  0.00    +0.000 A 
ATOM     19  C   UNL     1       0.445  10.088  20.009  0.00  0.00    +0.000 A 
ATOM     20  C   UNL     1       1.193   8.943  20.316  0.00  0.00    +0.000 A 
ATOM     21  C   UNL     1       1.256   8.520  21.652  0.00  0.00    +0.000 A 
ATOM     22  C   UNL     1       0.591   9.225  22.660  0.00  0.00    +0.000 A 
BRANCH  17  24
ATOM     23  C   UNL     1      -1.895  11.912  22.708  0.00  0.00    +0.000 C 
ATOM     24  O   UNL     1      -0.828  11.138  23.244  0.00  0.00    +0.000 OA
ENDBRANCH  17  24
ENDBRANCH   1  20
TORSDOF 4
ENDMDL
MODEL 3
REMARK VINA RESULT:      -7.7      1.731      2.780
REMARK  Name = 
REMARK  5 active torsions:
REMARK  status: ('A' for Active; 'I' for Inactive)
REMARK    1  A    between atoms: C_1  and  O_2
REMARK    2  A    between atoms: O_2  and  C_3
REMARK    3  A    between atoms: C_6  and  C_7
REMARK    4  A    between atoms: C_10  and  C_11
REMARK    5  A    between atoms: C_16  and  C_17
REMARK                            x       y       z     vdW  Elec       q    Type
REMARK                         _______ _______ _______ _____ _____    ______ ____
ROOT
ATOM      1  C   UNL     1       1.573   8.966  19.167  0.00  0.00    +0.000 A 
ATOM      2  N   UNL     1       1.712   9.591  17.992  0.00  0.00    +0.000 NA
ATOM      3  O   UNL     1       2.507   8.729  17.249  0.00  0.00    +0.000 OA
ATOM      4  C   UNL     1       2.793   7.630  18.036  0.00  0.00    +0.000 A 
ATOM      5  N   UNL     1       2.221   7.755  19.226  0.00  0.00    +0.000 NA
ENDROOT
BRANCH   4   6
ATOM      6  C   UNL     1       3.613   6.540  17.597  0.00  0.00    +0.000 A 
ATOM      7  C   UNL     1       4.806   6.820  17.057  0.00  0.00    +0.000 A 
ATOM      8  C   UNL     1       5.611   5.697  16.571  0.00  0.00    +0.000 A 
ATOM      9  O   UNL     1       6.720   5.868  16.083  0.00  0.00    +0.000 OA
ATOM     10  N   UNL     1       5.037   4.472  16.698  0.00  0.00    +0.000 N 
ATOM     11  C   UNL     1       3.826   4.304  17.296  0.00  0.00    +0.000 A 
ATOM     12  N   UNL     1       3.097   5.271  17.747  0.00  0.00    +0.000 NA
ATOM     13  H   UNL     1       5.565   3.682  16.356  0.00  0.00    +0.000 HD
BRANCH  11  14
ATOM     14  C   UNL     1       3.333   2.916  17.401  0.00  0.00    +0.000 C 
ATOM     15  C   UNL     1       3.498   2.138  18.687  0.00  0.00    +0.000 C 
ATOM     16  C   UNL     1       2.135   2.595  18.262  0.00  0.00    +0.000 C 
ENDBRANCH  11  14
ENDBRANCH   4   6
BRANCH   1  20
ATOM     17  C   UNL     1      -0.600  10.518  22.503  0.00  0.00    +0.000 A 
ATOM     18  C   UNL     1      -0.320  11.332  21.406  0.00  0.00    +0.000 A 
ATOM     19  C   UNL     1       0.378  10.826  20.306  0.00  0.00    +0.000 A 
ATOM     20  C   UNL     1       0.824   9.498  20.298  0.00  0.00    +0.000 A 
ATOM     21  C   UNL     1       0.549   8.689  21.411  0.00  0.00    +0.000 A 
ATOM     22  C   UNL     1      -0.155   9.196  22.509  0.00  0.00    +0.000 A 
BRANCH  17  24
ATOM     23  C   UNL     1      -2.332  11.994  23.129  0.00  0.00    +0.000 C 
ATOM     24  O   UNL     1      -1.276  11.126  23.525  0.00  0.00    +0.000 OA
ENDBRANCH  17  24
ENDBRANCH   1  20
TORSDOF 4
ENDMDL
MODEL 4
REMARK VINA RESULT:      -7.7      1.293      1.721
REMARK  Name = 
REMARK  5 active torsions:
REMARK  status: ('A' for Active; 'I' for Inactive)
REMARK    1  A    between atoms: C_1  and  O_2
REMARK    2  A    between atoms: O_2  and  C_3
REMARK    3  A    between atoms: C_6  and  C_7
REMARK    4  A    between atoms: C_10  and  C_11
REMARK    5  A    between atoms: C_16  and  C_17
REMARK                            x       y       z     vdW  Elec       q    Type
REMARK                         _______ _______ _______ _____ _____    ______ ____
ROOT
ATOM      1  C   UNL     1       1.481   8.845  19.473  0.00  0.00    +0.000 A 
ATOM      2  N   UNL     1       1.824   9.350  18.282  0.00  0.00    +0.000 NA
ATOM      3  O   UNL     1       2.486   8.302  17.655  0.00  0.00    +0.000 OA
ATOM      4  C   UNL     1       2.493   7.226  18.521  0.00  0.00    +0.000 A 
ATOM      5  N   UNL     1       1.873   7.540  19.651  0.00  0.00    +0.000 NA
ENDROOT
BRANCH   4   6
ATOM      6  C   UNL     1       3.111   5.970  18.211  0.00  0.00    +0.000 A 
ATOM      7  C   UNL     1       2.323   4.948  17.850  0.00  0.00    +0.000 A 
ATOM      8  C   UNL     1       2.967   3.660  17.581  0.00  0.00    +0.000 A 
ATOM      9  O   UNL     1       2.320   2.682  17.228  0.00  0.00    +0.000 OA
ATOM     10  N   UNL     1       4.314   3.634  17.756  0.00  0.00    +0.000 N 
ATOM     11  C   UNL     1       5.016   4.750  18.095  0.00  0.00    +0.000 A 
ATOM     12  N   UNL     1       4.481   5.903  18.327  0.00  0.00    +0.000 NA
ATOM     13  H   UNL     1       4.779   2.753  17.593  0.00  0.00    +0.000 HD
BRANCH  11  14
ATOM     14  C   UNL     1       6.479   4.592  18.220  0.00  0.00    +0.000 C 
ATOM     15  C   UNL     1       7.365   4.658  16.996  0.00  0.00    +0.000 C 
ATOM     16  C   UNL     1       7.396   5.772  17.998  0.00  0.00    +0.000 C 
ENDBRANCH  11  14
ENDBRANCH   4   6
BRANCH   1  20
ATOM     17  C   UNL     1      -0.574  11.014  22.528  0.00  0.00    +0.000 A 
ATOM     18  C   UNL     1      -0.175  11.657  21.356  0.00  0.00    +0.000 A 
ATOM     19  C   UNL     1       0.485  10.949  20.348  0.00  0.00    +0.000 A 
ATOM     20  C   UNL     1       0.774   9.588  20.508  0.00  0.00    +0.000 A 
ATOM     21  C   UNL     1       0.380   8.952  21.695  0.00  0.00    +0.000 A 
ATOM     22  C   UNL     1      -0.285   9.661  22.701  0.00  0.00    +0.000 A 
BRANCH  17  24
ATOM     23  C   UNL     1      -1.269  13.192  23.114  0.00  0.00    +0.000 C 
ATOM     24  O   UNL     1      -1.197  11.810  23.449  0.00  0.00    +0.000 OA
ENDBRANCH  17  24
ENDBRANCH   1  20
TORSDOF 4
ENDMDL
MODEL 5
REMARK VINA RESULT:      -7.7      1.320      1.700
REMARK  Name = 
REMARK  5 active torsions:
REMARK  status: ('A' for Active; 'I' for Inactive)
REMARK    1  A    between atoms: C_1  and  O_2
REMARK    2  A    between atoms: O_2  and  C_3
REMARK    3  A    between atoms: C_6  and  C_7
REMARK    4  A    between atoms: C_10  and  C_11
REMARK    5  A    between atoms: C_16  and  C_17
REMARK                            x       y       z     vdW  Elec       q    Type
REMARK                         _______ _______ _______ _____ _____    ______ ____
ROOT
ATOM      1  C   UNL     1       1.571   8.396  19.924  0.00  0.00    +0.000 A 
ATOM      2  N   UNL     1       1.713   8.632  18.614  0.00  0.00    +0.000 NA
ATOM      3  O   UNL     1       2.495   7.575  18.169  0.00  0.00    +0.000 OA
ATOM      4  C   UNL     1       2.770   6.764  19.253  0.00  0.00    +0.000 A 
ATOM      5  N   UNL     1       2.204   7.252  20.348  0.00  0.00    +0.000 NA
ENDROOT
BRANCH   4   6
ATOM      6  C   UNL     1       3.574   5.581  19.166  0.00  0.00    +0.000 A 
ATOM      7  C   UNL     1       3.093   4.447  19.695  0.00  0.00    +0.000 A 
ATOM      8  C   UNL     1       3.947   3.258  19.638  0.00  0.00    +0.000 A 
ATOM      9  O   UNL     1       3.574   2.180  20.082  0.00  0.00    +0.000 OA
ATOM     10  N   UNL     1       5.167   3.444  19.070  0.00  0.00    +0.000 N 
ATOM     11  C   UNL     1       5.536   4.640  18.535  0.00  0.00    +0.000 A 
ATOM     12  N   UNL     1       4.803   5.704  18.556  0.00  0.00    +0.000 NA
ATOM     13  H   UNL     1       5.781   2.644  19.034  0.00  0.00    +0.000 HD
BRANCH  11  14
ATOM     14  C   UNL     1       6.876   4.697  17.916  0.00  0.00    +0.000 C 
ATOM     15  C   UNL     1       7.025   4.770  16.413  0.00  0.00    +0.000 C 
ATOM     16  C   UNL     1       7.358   5.965  17.254  0.00  0.00    +0.000 C 
ENDBRANCH  11  14
ENDBRANCH   4   6
BRANCH   1  20
ATOM     17  C   UNL     1      -0.572  10.914  22.630  0.00  0.00    +0.000 A 
ATOM     18  C   UNL     1      -0.151  11.407  21.395  0.00  0.00    +0.000 A 
ATOM     19  C   UNL     1       0.537  10.583  20.500  0.00  0.00    +0.000 A 
ATOM     20  C   UNL     1       0.834   9.257  20.839  0.00  0.00    +0.000 A 
ATOM     21  C   UNL     1       0.417   8.773  22.089  0.00  0.00    +0.000 A 
ATOM     22  C   UNL     1      -0.277   9.597  22.982  0.00  0.00    +0.000 A 
BRANCH  17  24
ATOM     23  C   UNL     1      -2.599  12.018  23.124  0.00  0.00    +0.000 C 
ATOM     24  O   UNL     1      -1.223  11.814  23.428  0.00  0.00    +0.000 OA
ENDBRANCH  17  24
ENDBRANCH   1  20
TORSDOF 4
ENDMDL
MODEL 6
REMARK VINA RESULT:      -7.6      1.032      1.169
REMARK  Name = 
REMARK  5 active torsions:
REMARK  status: ('A' for Active; 'I' for Inactive)
REMARK    1  A    between atoms: C_1  and  O_2
REMARK    2  A    between atoms: O_2  and  C_3
REMARK    3  A    between atoms: C_6  and  C_7
REMARK    4  A    between atoms: C_10  and  C_11
REMARK    5  A    between atoms: C_16  and  C_17
REMARK                            x       y       z     vdW  Elec       q    Type
REMARK                         _______ _______ _______ _____ _____    ______ ____
ROOT
ATOM      1  C   UNL     1       1.621   8.565  19.411  0.00  0.00    +0.000 A 
ATOM      2  N   UNL     1       1.953   9.052  18.210  0.00  0.00    +0.000 NA
ATOM      3  O   UNL     1       2.625   8.002  17.599  0.00  0.00    +0.000 OA
ATOM      4  C   UNL     1       2.649   6.942  18.484  0.00  0.00    +0.000 A 
ATOM      5  N   UNL     1       2.030   7.268  19.610  0.00  0.00    +0.000 NA
ENDROOT
BRANCH   4   6
ATOM      6  C   UNL     1       3.281   5.689  18.193  0.00  0.00    +0.000 A 
ATOM      7  C   UNL     1       2.503   4.618  17.987  0.00  0.00    +0.000 A 
ATOM      8  C   UNL     1       3.166   3.336  17.737  0.00  0.00    +0.000 A 
ATOM      9  O   UNL     1       2.526   2.315  17.521  0.00  0.00    +0.000 OA
ATOM     10  N   UNL     1       4.524   3.368  17.768  0.00  0.00    +0.000 N 
ATOM     11  C   UNL     1       5.212   4.527  17.955  0.00  0.00    +0.000 A 
ATOM     12  N   UNL     1       4.658   5.675  18.166  0.00  0.00    +0.000 NA
ATOM     13  H   UNL     1       5.005   2.493  17.615  0.00  0.00    +0.000 HD
BRANCH  11  14
ATOM     14  C   UNL     1       6.685   4.427  17.932  0.00  0.00    +0.000 C 
ATOM     15  C   UNL     1       7.455   4.735  16.668  0.00  0.00    +0.000 C 
ATOM     16  C   UNL     1       7.534   5.672  17.834  0.00  0.00    +0.000 C 
ENDBRANCH  11  14
ENDBRANCH   4   6
BRANCH   1  20
ATOM     17  C   UNL     1      -0.494  10.768  22.399  0.00  0.00    +0.000 A 
ATOM     18  C   UNL     1       0.195   9.604  22.740  0.00  0.00    +0.000 A 
ATOM     19  C   UNL     1       0.900   8.888  21.769  0.00  0.00    +0.000 A 
ATOM     20  C   UNL     1       0.909   9.317  20.436  0.00  0.00    +0.000 A 
ATOM     21  C   UNL     1       0.203  10.482  20.100  0.00  0.00    +0.000 A 
ATOM     22  C   UNL     1      -0.498  11.201  21.074  0.00  0.00    +0.000 A 
BRANCH  17  24
ATOM     23  C   UNL     1      -1.762  12.626  23.113  0.00  0.00    +0.000 C 
ATOM     24  O   UNL     1      -1.158  11.377  23.428  0.00  0.00    +0.000 OA
ENDBRANCH  17  24
ENDBRANCH   1  20
TORSDOF 4
ENDMDL
MODEL 7
REMARK VINA RESULT:      -7.6      2.866      8.650
REMARK  Name = 
REMARK  5 active torsions:
REMARK  status: ('A' for Active; 'I' for Inactive)
REMARK    1  A    between atoms: C_1  and  O_2
REMARK    2  A    between atoms: O_2  and  C_3
REMARK    3  A    between atoms: C_6  and  C_7
REMARK    4  A    between atoms: C_10  and  C_11
REMARK    5  A    between atoms: C_16  and  C_17
REMARK                            x       y       z     vdW  Elec       q    Type
REMARK                         _______ _______ _______ _____ _____    ______ ____
ROOT
ATOM      1  C   UNL     1       2.749   7.230  18.333  0.00  0.00    +0.000 A 
ATOM      2  N   UNL     1       2.426   7.168  19.631  0.00  0.00    +0.000 NA
ATOM      3  O   UNL     1       1.653   8.303  19.836  0.00  0.00    +0.000 OA
ATOM      4  C   UNL     1       1.561   8.977  18.634  0.00  0.00    +0.000 A 
ATOM      5  N   UNL     1       2.228   8.327  17.690  0.00  0.00    +0.000 NA
ENDROOT
BRANCH   4   6
ATOM      6  C   UNL     1       0.849  10.211  18.477  0.00  0.00    +0.000 A 
ATOM      7  C   UNL     1       1.499  11.355  18.729  0.00  0.00    +0.000 A 
ATOM      8  C   UNL     1       0.744  12.604  18.608  0.00  0.00    +0.000 A 
ATOM      9  O   UNL     1       1.270  13.692  18.804  0.00  0.00    +0.000 OA
ATOM     10  N   UNL     1      -0.565  12.462  18.274  0.00  0.00    +0.000 N 
ATOM     11  C   UNL     1      -1.111  11.245  18.008  0.00  0.00    +0.000 A 
ATOM     12  N   UNL     1      -0.471  10.126  18.092  0.00  0.00    +0.000 NA
ATOM     13  H   UNL     1      -1.112  13.308  18.200  0.00  0.00    +0.000 HD
BRANCH  11  14
ATOM     14  C   UNL     1      -2.537  11.235  17.621  0.00  0.00    +0.000 C 
ATOM     15  C   UNL     1      -2.954  10.783  16.240  0.00  0.00    +0.000 C 
ATOM     16  C   UNL     1      -3.267   9.927  17.430  0.00  0.00    +0.000 C 
ENDBRANCH  11  14
ENDBRANCH   4   6
BRANCH   1  20
ATOM     17  C   UNL     1       5.165   4.351  16.300  0.00  0.00    +0.000 A 
ATOM     18  C   UNL     1       5.467   5.710  16.214  0.00  0.00    +0.000 A 
ATOM     19  C   UNL     1       4.689   6.654  16.888  0.00  0.00    +0.000 A 
ATOM     20  C   UNL     1       3.581   6.252  17.645  0.00  0.00    +0.000 A 
ATOM     21  C   UNL     1       3.277   4.885  17.717  0.00  0.00    +0.000 A 
ATOM     22  C   UNL     1       4.060   3.939  17.045  0.00  0.00    +0.000 A 
BRANCH  17  24
ATOM     23  C   UNL     1       6.330   3.975  14.283  0.00  0.00    +0.000 C 
ATOM     24  O   UNL     1       5.987   3.522  15.588  0.00  0.00    +0.000 OA
ENDBRANCH  17  24
ENDBRANCH   1  20
TORSDOF 4
ENDMDL
MODEL 8
REMARK VINA RESULT:      -7.5      2.160      8.476
REMARK  Name = 
REMARK  5 active torsions:
REMARK  status: ('A' for Active; 'I' for Inactive)
REMARK    1  A    between atoms: C_1  and  O_2
REMARK    2  A    between atoms: O_2  and  C_3
REMARK    3  A    between atoms: C_6  and  C_7
REMARK    4  A    between atoms: C_10  and  C_11
REMARK    5  A    between atoms: C_16  and  C_17
REMARK                            x       y       z     vdW  Elec       q    Type
REMARK                         _______ _______ _______ _____ _____    ______ ____
ROOT
ATOM      1  C   UNL     1       3.190   6.185  18.673  0.00  0.00    +0.000 A 
ATOM      2  N   UNL     1       2.761   5.379  19.652  0.00  0.00    +0.000 NA
ATOM      3  O   UNL     1       1.973   6.206  20.443  0.00  0.00    +0.000 OA
ATOM      4  C   UNL     1       1.979   7.466  19.877  0.00  0.00    +0.000 A 
ATOM      5  N   UNL     1       2.722   7.474  18.779  0.00  0.00    +0.000 NA
ENDROOT
BRANCH   4   6
ATOM      6  C   UNL     1       1.281   8.584  20.439  0.00  0.00    +0.000 A 
ATOM      7  C   UNL     1       1.142   8.640  21.771  0.00  0.00    +0.000 A 
ATOM      8  C   UNL     1       0.386   9.765  22.326  0.00  0.00    +0.000 A 
ATOM      9  O   UNL     1       0.231   9.899  23.533  0.00  0.00    +0.000 OA
ATOM     10  N   UNL     1      -0.125  10.630  21.412  0.00  0.00    +0.000 N 
ATOM     11  C   UNL     1       0.109  10.489  20.079  0.00  0.00    +0.000 A 
ATOM     12  N   UNL     1       0.782   9.517  19.558  0.00  0.00    +0.000 NA
ATOM     13  H   UNL     1      -0.664  11.406  21.769  0.00  0.00    +0.000 HD
BRANCH  11  14
ATOM     14  C   UNL     1      -0.475  11.519  19.197  0.00  0.00    +0.000 C 
ATOM     15  C   UNL     1      -1.748  11.241  18.430  0.00  0.00    +0.000 C 
ATOM     16  C   UNL     1      -1.764  12.208  19.576  0.00  0.00    +0.000 C 
ENDBRANCH  11  14
ENDBRANCH   4   6
BRANCH   1  20
ATOM     17  C   UNL     1       5.770   4.949  15.500  0.00  0.00    +0.000 A 
ATOM     18  C   UNL     1       5.486   6.301  15.689  0.00  0.00    +0.000 A 
ATOM     19  C   UNL     1       4.654   6.712  16.734  0.00  0.00    +0.000 A 
ATOM     20  C   UNL     1       4.076   5.770  17.595  0.00  0.00    +0.000 A 
ATOM     21  C   UNL     1       4.359   4.411  17.391  0.00  0.00    +0.000 A 
ATOM     22  C   UNL     1       5.196   4.001  16.347  0.00  0.00    +0.000 A 
BRANCH  17  24
ATOM     23  C   UNL     1       6.024   3.807  13.451  0.00  0.00    +0.000 C 
ATOM     24  O   UNL     1       6.584   4.665  14.438  0.00  0.00    +0.000 OA
ENDBRANCH  17  24
ENDBRANCH   1  20
TORSDOF 4
ENDMDL
MODEL 9
REMARK VINA RESULT:      -7.5      2.184      8.431
REMARK  Name = 
REMARK  5 active torsions:
REMARK  status: ('A' for Active; 'I' for Inactive)
REMARK    1  A    between atoms: C_1  and  O_2
REMARK    2  A    between atoms: O_2  and  C_3
REMARK    3  A    between atoms: C_6  and  C_7
REMARK    4  A    between atoms: C_10  and  C_11
REMARK    5  A    between atoms: C_16  and  C_17
REMARK                            x       y       z     vdW  Elec       q    Type
REMARK                         _______ _______ _______ _____ _____    ______ ____
ROOT
ATOM      1  C   UNL     1       3.095   6.182  18.799  0.00  0.00    +0.000 A 
ATOM      2  N   UNL     1       2.640   5.375  19.765  0.00  0.00    +0.000 NA
ATOM      3  O   UNL     1       1.848   6.205  20.547  0.00  0.00    +0.000 OA
ATOM      4  C   UNL     1       1.879   7.468  19.990  0.00  0.00    +0.000 A 
ATOM      5  N   UNL     1       2.642   7.475  18.905  0.00  0.00    +0.000 NA
ENDROOT
BRANCH   4   6
ATOM      6  C   UNL     1       1.184   8.591  20.548  0.00  0.00    +0.000 A 
ATOM      7  C   UNL     1       1.047   8.654  21.879  0.00  0.00    +0.000 A 
ATOM      8  C   UNL     1       0.295   9.784  22.430  0.00  0.00    +0.000 A 
ATOM      9  O   UNL     1       0.141   9.924  23.636  0.00  0.00    +0.000 OA
ATOM     10  N   UNL     1      -0.214  10.647  21.512  0.00  0.00    +0.000 N 
ATOM     11  C   UNL     1       0.019  10.499  20.180  0.00  0.00    +0.000 A 
ATOM     12  N   UNL     1       0.688   9.522  19.662  0.00  0.00    +0.000 NA
ATOM     13  H   UNL     1      -0.751  11.425  21.866  0.00  0.00    +0.000 HD
BRANCH  11  14
ATOM     14  C   UNL     1      -0.563  11.527  19.293  0.00  0.00    +0.000 C 
ATOM     15  C   UNL     1      -1.819  11.237  18.503  0.00  0.00    +0.000 C 
ATOM     16  C   UNL     1      -1.867  12.197  19.653  0.00  0.00    +0.000 C 
ENDBRANCH  11  14
ENDBRANCH   4   6
BRANCH   1  20
ATOM     17  C   UNL     1       5.760   4.968  15.688  0.00  0.00    +0.000 A 
ATOM     18  C   UNL     1       5.010   4.019  16.381  0.00  0.00    +0.000 A 
ATOM     19  C   UNL     1       4.127   4.411  17.390  0.00  0.00    +0.000 A 
ATOM     20  C   UNL     1       3.996   5.763  17.734  0.00  0.00    +0.000 A 
ATOM     21  C   UNL     1       4.763   6.710  17.039  0.00  0.00    +0.000 A 
ATOM     22  C   UNL     1       5.644   6.316  16.026  0.00  0.00    +0.000 A 
BRANCH  17  24
ATOM     23  C   UNL     1       5.963   3.838  13.625  0.00  0.00    +0.000 C 
ATOM     24  O   UNL     1       6.600   4.465  14.733  0.00  0.00    +0.000 OA
ENDBRANCH  17  24
ENDBRANCH   1  20
TORSDOF 4
ENDMDL
