MODEL 1
REMARK VINA RESULT:      -7.2      0.000      0.000
REMARK  Name = 
REMARK  3 active torsions:
REMARK  status: ('A' for Active; 'I' for Inactive)
REMARK    1  A    between atoms: C_1  and  O_2
REMARK    2  A    between atoms: O_2  and  C_3
REMARK    3  A    between atoms: C_16  and  C_17
REMARK                            x       y       z     vdW  Elec       q    Type
REMARK                         _______ _______ _______ _____ _____    ______ ____
ROOT
ATOM      1  C   UNL     1      -4.509  11.253  17.221  0.00  0.00    +0.000 A 
ATOM      2  C   UNL     1      -3.546  11.095  18.199  0.00  0.00    +0.000 A 
ATOM      3  C   UNL     1      -3.382  12.066  19.148  0.00  0.00    +0.000 A 
ATOM      4  C   UNL     1      -4.516  12.760  19.521  0.00  0.00    +0.000 A 
ATOM      5  C   UNL     1      -4.557  13.324  20.848  0.00  0.00    +0.000 A 
ATOM      6  C   UNL     1      -5.641  13.043  21.569  0.00  0.00    +0.000 A 
ATOM      7  C   UNL     1      -6.912  12.685  20.914  0.00  0.00    +0.000 A 
ATOM      8  O   UNL     1      -7.916  12.432  21.571  0.00  0.00    +0.000 OA
ATOM      9  O   UNL     1      -6.924  12.726  19.501  0.00  0.00    +0.000 OA
ATOM     10  C   UNL     1      -5.695  12.551  18.812  0.00  0.00    +0.000 A 
ATOM     11  C   UNL     1      -5.654  11.976  17.537  0.00  0.00    +0.000 A 
ATOM     12  C   UNL     1      -5.370  12.913  23.024  0.00  0.00    +0.000 C 
ATOM     13  O   UNL     1      -4.133  12.080  23.048  0.00  0.00    +0.000 OA
ATOM     14  C   UNL     1      -3.025  12.915  22.607  0.00  0.00    +0.000 C 
ATOM     15  C   UNL     1      -2.751  13.780  23.853  0.00  0.00    +0.000 C 
ATOM     16  C   UNL     1      -3.896  14.742  24.022  0.00  0.00    +0.000 A 
ATOM     17  C   UNL     1      -3.616  16.056  24.393  0.00  0.00    +0.000 A 
ATOM     18  C   UNL     1      -4.649  16.996  24.366  0.00  0.00    +0.000 A 
ATOM     19  C   UNL     1      -5.938  16.563  24.070  0.00  0.00    +0.000 A 
ATOM     20  C   UNL     1      -6.216  15.232  23.750  0.00  0.00    +0.000 A 
ATOM     21  C   UNL     1      -5.179  14.292  23.683  0.00  0.00    +0.000 A 
ATOM     22  O   UNL     1      -3.348  13.680  21.419  0.00  0.00    +0.000 OA
ENDROOT
BRANCH  14  23
ATOM     23  C   UNL     1      -1.680  12.265  22.300  0.00  0.00    +0.000 A 
ATOM     24  C   UNL     1      -1.317  11.017  22.958  0.00  0.00    +0.000 A 
ATOM     25  C   UNL     1      -0.177  10.444  22.454  0.00  0.00    +0.000 A 
ATOM     26  S   UNL     1       0.567  11.472  21.311  0.00  0.00    +0.000 S 
ATOM     27  C   UNL     1      -0.680  12.651  21.438  0.00  0.00    +0.000 A 
ENDBRANCH  14  23
BRANCH   1  29
ATOM     28  C   UNL     1      -2.780  10.761  15.646  0.00  0.00    +0.000 C 
ATOM     29  O   UNL     1      -4.111  10.646  16.081  0.00  0.00    +0.000 OA
ENDBRANCH   1  29
TORSDOF 2
ENDMDL
MODEL 2
REMARK VINA RESULT:      -7.1      3.875      7.445
REMARK  Name = 
REMARK  3 active torsions:
REMARK  status: ('A' for Active; 'I' for Inactive)
REMARK    1  A    between atoms: C_1  and  O_2
REMARK    2  A    between atoms: O_2  and  C_3
REMARK    3  A    between atoms: C_16  and  C_17
REMARK                            x       y       z     vdW  Elec       q    Type
REMARK                         _______ _______ _______ _____ _____    ______ ____
ROOT
ATOM      1  C   UNL     1       3.544  14.918  19.572  0.00  0.00    +0.000 A 
ATOM      2  C   UNL     1       2.385  14.963  20.323  0.00  0.00    +0.000 A 
ATOM      3  C   UNL     1       1.197  14.591  19.757  0.00  0.00    +0.000 A 
ATOM      4  C   UNL     1       1.257  13.601  18.796  0.00  0.00    +0.000 A 
ATOM      5  C   UNL     1       0.092  12.772  18.606  0.00  0.00    +0.000 A 
ATOM      6  C   UNL     1       0.302  11.457  18.618  0.00  0.00    +0.000 A 
ATOM      7  C   UNL     1       1.626  10.901  18.286  0.00  0.00    +0.000 A 
ATOM      8  O   UNL     1       1.825   9.691  18.288  0.00  0.00    +0.000 OA
ATOM      9  O   UNL     1       2.618  11.829  17.897  0.00  0.00    +0.000 OA
ATOM     10  C   UNL     1       2.504  13.168  18.354  0.00  0.00    +0.000 A 
ATOM     11  C   UNL     1       3.637  13.961  18.567  0.00  0.00    +0.000 A 
ATOM     12  C   UNL     1      -0.825  10.680  19.197  0.00  0.00    +0.000 C 
ATOM     13  O   UNL     1      -1.163  11.466  20.419  0.00  0.00    +0.000 OA
ATOM     14  C   UNL     1      -1.826  12.690  19.993  0.00  0.00    +0.000 C 
ATOM     15  C   UNL     1      -3.240  12.188  19.636  0.00  0.00    +0.000 C 
ATOM     16  C   UNL     1      -3.145  11.361  18.382  0.00  0.00    +0.000 A 
ATOM     17  C   UNL     1      -4.137  11.503  17.412  0.00  0.00    +0.000 A 
ATOM     18  C   UNL     1      -3.956  10.885  16.172  0.00  0.00    +0.000 A 
ATOM     19  C   UNL     1      -2.844  10.067  15.990  0.00  0.00    +0.000 A 
ATOM     20  C   UNL     1      -1.883   9.892  16.988  0.00  0.00    +0.000 A 
ATOM     21  C   UNL     1      -1.999  10.574  18.206  0.00  0.00    +0.000 A 
ATOM     22  O   UNL     1      -1.137  13.338  18.895  0.00  0.00    +0.000 OA
ENDROOT
BRANCH  14  23
ATOM     23  C   UNL     1      -2.069  13.798  21.012  0.00  0.00    +0.000 A 
ATOM     24  C   UNL     1      -1.446  13.717  22.326  0.00  0.00    +0.000 A 
ATOM     25  C   UNL     1      -1.588  14.860  23.070  0.00  0.00    +0.000 A 
ATOM     26  S   UNL     1      -2.609  15.978  22.281  0.00  0.00    +0.000 S 
ATOM     27  C   UNL     1      -2.801  14.958  20.909  0.00  0.00    +0.000 A 
ENDBRANCH  14  23
BRANCH   1  29
ATOM     28  C   UNL     1       4.344  16.355  21.304  0.00  0.00    +0.000 C 
ATOM     29  O   UNL     1       4.398  15.881  19.983  0.00  0.00    +0.000 OA
ENDBRANCH   1  29
TORSDOF 2
ENDMDL
MODEL 3
REMARK VINA RESULT:      -6.9     10.222     13.984
REMARK  Name = 
REMARK  3 active torsions:
REMARK  status: ('A' for Active; 'I' for Inactive)
REMARK    1  A    between atoms: C_1  and  O_2
REMARK    2  A    between atoms: O_2  and  C_3
REMARK    3  A    between atoms: C_16  and  C_17
REMARK                            x       y       z     vdW  Elec       q    Type
REMARK                         _______ _______ _______ _____ _____    ______ ____
ROOT
ATOM      1  C   UNL     1       6.950  12.115  23.750  0.00  0.00    +0.000 A 
ATOM      2  C   UNL     1       6.368  13.079  22.949  0.00  0.00    +0.000 A 
ATOM      3  C   UNL     1       7.155  13.853  22.142  0.00  0.00    +0.000 A 
ATOM      4  C   UNL     1       8.295  13.257  21.640  0.00  0.00    +0.000 A 
ATOM      5  C   UNL     1       8.817  13.745  20.387  0.00  0.00    +0.000 A 
ATOM      6  C   UNL     1       9.069  12.823  19.460  0.00  0.00    +0.000 A 
ATOM      7  C   UNL     1       9.337  11.424  19.839  0.00  0.00    +0.000 A 
ATOM      8  O   UNL     1       9.576  10.570  18.992  0.00  0.00    +0.000 OA
ATOM      9  O   UNL     1       9.375  11.145  21.225  0.00  0.00    +0.000 OA
ATOM     10  C   UNL     1       8.652  11.993  22.103  0.00  0.00    +0.000 A 
ATOM     11  C   UNL     1       8.120  11.511  23.304  0.00  0.00    +0.000 A 
ATOM     12  C   UNL     1       8.832  13.295  18.072  0.00  0.00    +0.000 C 
ATOM     13  O   UNL     1       7.522  13.999  18.191  0.00  0.00    +0.000 OA
ATOM     14  C   UNL     1       7.751  15.249  18.901  0.00  0.00    +0.000 C 
ATOM     15  C   UNL     1       8.394  16.130  17.813  0.00  0.00    +0.000 C 
ATOM     16  C   UNL     1       9.776  15.604  17.534  0.00  0.00    +0.000 A 
ATOM     17  C   UNL     1      10.813  16.516  17.346  0.00  0.00    +0.000 A 
ATOM     18  C   UNL     1      12.124  16.037  17.277  0.00  0.00    +0.000 A 
ATOM     19  C   UNL     1      12.333  14.661  17.293  0.00  0.00    +0.000 A 
ATOM     20  C   UNL     1      11.280  13.753  17.430  0.00  0.00    +0.000 A 
ATOM     21  C   UNL     1       9.968  14.217  17.592  0.00  0.00    +0.000 A 
ATOM     22  O   UNL     1       8.576  15.072  20.079  0.00  0.00    +0.000 OA
ENDROOT
BRANCH  14  23
ATOM     23  C   UNL     1       6.553  16.062  19.380  0.00  0.00    +0.000 A 
ATOM     24  C   UNL     1       5.209  15.674  18.972  0.00  0.00    +0.000 A 
ATOM     25  C   UNL     1       4.219  16.365  19.623  0.00  0.00    +0.000 A 
ATOM     26  S   UNL     1       4.879  17.601  20.599  0.00  0.00    +0.000 S 
ATOM     27  C   UNL     1       6.495  17.161  20.206  0.00  0.00    +0.000 A 
ENDBRANCH  14  23
BRANCH   1  29
ATOM     28  C   UNL     1       5.870  13.071  25.655  0.00  0.00    +0.000 C 
ATOM     29  O   UNL     1       6.226  11.955  24.880  0.00  0.00    +0.000 OA
ENDBRANCH   1  29
TORSDOF 2
ENDMDL
MODEL 4
REMARK VINA RESULT:      -6.9      0.790      1.124
REMARK  Name = 
REMARK  3 active torsions:
REMARK  status: ('A' for Active; 'I' for Inactive)
REMARK    1  A    between atoms: C_1  and  O_2
REMARK    2  A    between atoms: O_2  and  C_3
REMARK    3  A    between atoms: C_16  and  C_17
REMARK                            x       y       z     vdW  Elec       q    Type
REMARK                         _______ _______ _______ _____ _____    ______ ____
ROOT
ATOM      1  C   UNL     1      -4.541  11.327  17.189  0.00  0.00    +0.000 A 
ATOM      2  C   UNL     1      -3.482  11.050  18.031  0.00  0.00    +0.000 A 
ATOM      3  C   UNL     1      -3.118  11.962  18.982  0.00  0.00    +0.000 A 
ATOM      4  C   UNL     1      -4.132  12.731  19.518  0.00  0.00    +0.000 A 
ATOM      5  C   UNL     1      -3.959  13.239  20.857  0.00  0.00    +0.000 A 
ATOM      6  C   UNL     1      -4.966  13.017  21.701  0.00  0.00    +0.000 A 
ATOM      7  C   UNL     1      -6.335  12.793  21.202  0.00  0.00    +0.000 A 
ATOM      8  O   UNL     1      -7.268  12.595  21.972  0.00  0.00    +0.000 OA
ATOM      9  O   UNL     1      -6.518  12.895  19.803  0.00  0.00    +0.000 OA
ATOM     10  C   UNL     1      -5.404  12.649  18.959  0.00  0.00    +0.000 A 
ATOM     11  C   UNL     1      -5.571  12.128  17.671  0.00  0.00    +0.000 A 
ATOM     12  C   UNL     1      -4.529  12.803  23.105  0.00  0.00    +0.000 C 
ATOM     13  O   UNL     1      -3.375  11.872  22.944  0.00  0.00    +0.000 OA
ATOM     14  C   UNL     1      -2.262  12.631  22.393  0.00  0.00    +0.000 C 
ATOM     15  C   UNL     1      -1.762  13.417  23.621  0.00  0.00    +0.000 C 
ATOM     16  C   UNL     1      -2.790  14.461  23.965  0.00  0.00    +0.000 A 
ATOM     17  C   UNL     1      -2.353  15.731  24.339  0.00  0.00    +0.000 A 
ATOM     18  C   UNL     1      -3.296  16.753  24.474  0.00  0.00    +0.000 A 
ATOM     19  C   UNL     1      -4.644  16.439  24.331  0.00  0.00    +0.000 A 
ATOM     20  C   UNL     1      -5.075  15.150  24.006  0.00  0.00    +0.000 A 
ATOM     21  C   UNL     1      -4.139  14.132  23.778  0.00  0.00    +0.000 A 
ATOM     22  O   UNL     1      -2.663  13.469  21.281  0.00  0.00    +0.000 OA
ENDROOT
BRANCH  14  23
ATOM     23  C   UNL     1      -1.027  11.886  21.897  0.00  0.00    +0.000 A 
ATOM     24  C   UNL     1      -0.064  12.574  21.049  0.00  0.00    +0.000 A 
ATOM     25  C   UNL     1       1.086  11.858  20.834  0.00  0.00    +0.000 A 
ATOM     26  S   UNL     1       0.959  10.290  21.497  0.00  0.00    +0.000 S 
ATOM     27  C   UNL     1      -0.608  10.598  22.136  0.00  0.00    +0.000 A 
ENDBRANCH  14  23
BRANCH   1  29
ATOM     28  C   UNL     1      -3.079  10.793  15.376  0.00  0.00    +0.000 C 
ATOM     29  O   UNL     1      -4.342  10.739  15.988  0.00  0.00    +0.000 OA
ENDBRANCH   1  29
TORSDOF 2
ENDMDL
MODEL 5
REMARK VINA RESULT:      -6.9      1.084      1.213
REMARK  Name = 
REMARK  3 active torsions:
REMARK  status: ('A' for Active; 'I' for Inactive)
REMARK    1  A    between atoms: C_1  and  O_2
REMARK    2  A    between atoms: O_2  and  C_3
REMARK    3  A    between atoms: C_16  and  C_17
REMARK                            x       y       z     vdW  Elec       q    Type
REMARK                         _______ _______ _______ _____ _____    ______ ____
ROOT
ATOM      1  C   UNL     1      -3.743  10.512  17.063  0.00  0.00    +0.000 A 
ATOM      2  C   UNL     1      -2.866  10.281  18.106  0.00  0.00    +0.000 A 
ATOM      3  C   UNL     1      -2.550  11.300  18.961  0.00  0.00    +0.000 A 
ATOM      4  C   UNL     1      -3.538  12.234  19.198  0.00  0.00    +0.000 A 
ATOM      5  C   UNL     1      -3.517  12.937  20.457  0.00  0.00    +0.000 A 
ATOM      6  C   UNL     1      -4.660  12.947  21.140  0.00  0.00    +0.000 A 
ATOM      7  C   UNL     1      -5.952  12.770  20.453  0.00  0.00    +0.000 A 
ATOM      8  O   UNL     1      -7.010  12.786  21.074  0.00  0.00    +0.000 OA
ATOM      9  O   UNL     1      -5.904  12.658  19.044  0.00  0.00    +0.000 OA
ATOM     10  C   UNL     1      -4.709  12.178  18.448  0.00  0.00    +0.000 A 
ATOM     11  C   UNL     1      -4.735  11.470  17.240  0.00  0.00    +0.000 A 
ATOM     12  C   UNL     1      -4.473  12.928  22.614  0.00  0.00    +0.000 C 
ATOM     13  O   UNL     1      -3.425  11.881  22.791  0.00  0.00    +0.000 OA
ATOM     14  C   UNL     1      -2.160  12.437  22.333  0.00  0.00    +0.000 C 
ATOM     15  C   UNL     1      -1.767  13.364  23.500  0.00  0.00    +0.000 C 
ATOM     16  C   UNL     1      -2.707  14.539  23.506  0.00  0.00    +0.000 A 
ATOM     17  C   UNL     1      -2.189  15.808  23.760  0.00  0.00    +0.000 A 
ATOM     18  C   UNL     1      -3.016  16.919  23.581  0.00  0.00    +0.000 A 
ATOM     19  C   UNL     1      -4.354  16.710  23.257  0.00  0.00    +0.000 A 
ATOM     20  C   UNL     1      -4.875  15.430  23.056  0.00  0.00    +0.000 A 
ATOM     21  C   UNL     1      -4.041  14.308  23.142  0.00  0.00    +0.000 A 
ATOM     22  O   UNL     1      -2.283  13.115  21.058  0.00  0.00    +0.000 OA
ENDROOT
BRANCH  14  23
ATOM     23  C   UNL     1      -0.958  11.512  22.169  0.00  0.00    +0.000 A 
ATOM     24  C   UNL     1      -0.790  10.382  23.073  0.00  0.00    +0.000 A 
ATOM     25  C   UNL     1       0.216   9.528  22.700  0.00  0.00    +0.000 A 
ATOM     26  S   UNL     1       1.083  10.152  21.368  0.00  0.00    +0.000 S 
ATOM     27  C   UNL     1       0.062  11.532  21.246  0.00  0.00    +0.000 A 
ENDBRANCH  14  23
BRANCH   1  29
ATOM     28  C   UNL     1      -3.041  10.290  14.790  0.00  0.00    +0.000 C 
ATOM     29  O   UNL     1      -3.431   9.720  16.014  0.00  0.00    +0.000 OA
ENDBRANCH   1  29
TORSDOF 2
ENDMDL
MODEL 6
REMARK VINA RESULT:      -6.8      1.242      1.519
REMARK  Name = 
REMARK  3 active torsions:
REMARK  status: ('A' for Active; 'I' for Inactive)
REMARK    1  A    between atoms: C_1  and  O_2
REMARK    2  A    between atoms: O_2  and  C_3
REMARK    3  A    between atoms: C_16  and  C_17
REMARK                            x       y       z     vdW  Elec       q    Type
REMARK                         _______ _______ _______ _____ _____    ______ ____
ROOT
ATOM      1  C   UNL     1      -3.574  10.579  17.090  0.00  0.00    +0.000 A 
ATOM      2  C   UNL     1      -2.776  10.971  18.148  0.00  0.00    +0.000 A 
ATOM      3  C   UNL     1      -3.139  12.051  18.905  0.00  0.00    +0.000 A 
ATOM      4  C   UNL     1      -4.494  12.269  19.056  0.00  0.00    +0.000 A 
ATOM      5  C   UNL     1      -4.940  12.953  20.244  0.00  0.00    +0.000 A 
ATOM      6  C   UNL     1      -5.920  12.362  20.925  0.00  0.00    +0.000 A 
ATOM      7  C   UNL     1      -6.845  11.426  20.260  0.00  0.00    +0.000 A 
ATOM      8  O   UNL     1      -7.755  10.884  20.878  0.00  0.00    +0.000 OA
ATOM      9  O   UNL     1      -6.670  11.253  18.867  0.00  0.00    +0.000 OA
ATOM     10  C   UNL     1      -5.385  11.497  18.316  0.00  0.00    +0.000 A 
ATOM     11  C   UNL     1      -4.942  10.810  17.179  0.00  0.00    +0.000 A 
ATOM     12  C   UNL     1      -5.832  12.566  22.394  0.00  0.00    +0.000 C 
ATOM     13  O   UNL     1      -4.385  12.322  22.666  0.00  0.00    +0.000 OA
ATOM     14  C   UNL     1      -3.638  13.463  22.156  0.00  0.00    +0.000 C 
ATOM     15  C   UNL     1      -3.903  14.535  23.231  0.00  0.00    +0.000 C 
ATOM     16  C   UNL     1      -5.343  14.960  23.130  0.00  0.00    +0.000 A 
ATOM     17  C   UNL     1      -5.651  16.313  23.264  0.00  0.00    +0.000 A 
ATOM     18  C   UNL     1      -6.953  16.736  22.984  0.00  0.00    +0.000 A 
ATOM     19  C   UNL     1      -7.916  15.777  22.684  0.00  0.00    +0.000 A 
ATOM     20  C   UNL     1      -7.606  14.416  22.603  0.00  0.00    +0.000 A 
ATOM     21  C   UNL     1      -6.288  13.982  22.792  0.00  0.00    +0.000 A 
ATOM     22  O   UNL     1      -4.059  13.848  20.823  0.00  0.00    +0.000 OA
ENDROOT
BRANCH  14  23
ATOM     23  C   UNL     1      -2.117  13.380  22.076  0.00  0.00    +0.000 A 
ATOM     24  C   UNL     1      -1.462  12.081  22.140  0.00  0.00    +0.000 A 
ATOM     25  C   UNL     1      -0.119  12.131  21.867  0.00  0.00    +0.000 A 
ATOM     26  S   UNL     1       0.409  13.746  21.700  0.00  0.00    +0.000 S 
ATOM     27  C   UNL     1      -1.178  14.374  21.921  0.00  0.00    +0.000 A 
ENDBRANCH  14  23
BRANCH   1  29
ATOM     28  C   UNL     1      -3.144  10.224  14.766  0.00  0.00    +0.000 C 
ATOM     29  O   UNL     1      -2.813  10.029  16.118  0.00  0.00    +0.000 OA
ENDBRANCH   1  29
TORSDOF 2
ENDMDL
MODEL 7
REMARK VINA RESULT:      -6.8      3.445      5.131
REMARK  Name = 
REMARK  3 active torsions:
REMARK  status: ('A' for Active; 'I' for Inactive)
REMARK    1  A    between atoms: C_1  and  O_2
REMARK    2  A    between atoms: O_2  and  C_3
REMARK    3  A    between atoms: C_16  and  C_17
REMARK                            x       y       z     vdW  Elec       q    Type
REMARK                         _______ _______ _______ _____ _____    ______ ____
ROOT
ATOM      1  C   UNL     1       1.463   9.774  18.464  0.00  0.00    +0.000 A 
ATOM      2  C   UNL     1       1.522  11.152  18.542  0.00  0.00    +0.000 A 
ATOM      3  C   UNL     1       0.434  11.851  18.988  0.00  0.00    +0.000 A 
ATOM      4  C   UNL     1      -0.354  11.225  19.932  0.00  0.00    +0.000 A 
ATOM      5  C   UNL     1      -1.102  12.054  20.845  0.00  0.00    +0.000 A 
ATOM      6  C   UNL     1      -0.974  11.762  22.138  0.00  0.00    +0.000 A 
ATOM      7  C   UNL     1      -0.582  10.409  22.573  0.00  0.00    +0.000 A 
ATOM      8  O   UNL     1      -0.469  10.131  23.762  0.00  0.00    +0.000 OA
ATOM      9  O   UNL     1      -0.422   9.444  21.552  0.00  0.00    +0.000 OA
ATOM     10  C   UNL     1      -0.098   9.893  20.246  0.00  0.00    +0.000 A 
ATOM     11  C   UNL     1       0.653   9.099  19.372  0.00  0.00    +0.000 A 
ATOM     12  C   UNL     1      -1.040  12.952  23.026  0.00  0.00    +0.000 C 
ATOM     13  O   UNL     1      -0.166  13.931  22.317  0.00  0.00    +0.000 OA
ATOM     14  C   UNL     1      -0.881  14.394  21.136  0.00  0.00    +0.000 C 
ATOM     15  C   UNL     1      -1.901  15.380  21.737  0.00  0.00    +0.000 C 
ATOM     16  C   UNL     1      -2.926  14.591  22.506  0.00  0.00    +0.000 A 
ATOM     17  C   UNL     1      -4.266  14.963  22.409  0.00  0.00    +0.000 A 
ATOM     18  C   UNL     1      -5.237  14.124  22.963  0.00  0.00    +0.000 A 
ATOM     19  C   UNL     1      -4.823  13.006  23.679  0.00  0.00    +0.000 A 
ATOM     20  C   UNL     1      -3.473  12.671  23.814  0.00  0.00    +0.000 A 
ATOM     21  C   UNL     1      -2.489  13.449  23.190  0.00  0.00    +0.000 A 
ATOM     22  O   UNL     1      -1.482  13.304  20.393  0.00  0.00    +0.000 OA
ENDROOT
BRANCH  14  23
ATOM     23  C   UNL     1      -0.136  15.217  20.091  0.00  0.00    +0.000 A 
ATOM     24  C   UNL     1      -0.877  16.126  19.227  0.00  0.00    +0.000 A 
ATOM     25  C   UNL     1      -0.073  16.940  18.471  0.00  0.00    +0.000 A 
ATOM     26  S   UNL     1       1.570  16.513  18.654  0.00  0.00    +0.000 S 
ATOM     27  C   UNL     1       1.208  15.286  19.804  0.00  0.00    +0.000 A 
ENDBRANCH  14  23
BRANCH   1  29
ATOM     28  C   UNL     1       2.945   8.124  17.574  0.00  0.00    +0.000 C 
ATOM     29  O   UNL     1       2.243   9.335  17.451  0.00  0.00    +0.000 OA
ENDBRANCH   1  29
TORSDOF 2
ENDMDL
MODEL 8
REMARK VINA RESULT:      -6.7     10.082     13.550
REMARK  Name = 
REMARK  3 active torsions:
REMARK  status: ('A' for Active; 'I' for Inactive)
REMARK    1  A    between atoms: C_1  and  O_2
REMARK    2  A    between atoms: O_2  and  C_3
REMARK    3  A    between atoms: C_16  and  C_17
REMARK                            x       y       z     vdW  Elec       q    Type
REMARK                         _______ _______ _______ _____ _____    ______ ____
ROOT
ATOM      1  C   UNL     1       4.309  16.553  20.387  0.00  0.00    +0.000 A 
ATOM      2  C   UNL     1       5.010  15.860  21.355  0.00  0.00    +0.000 A 
ATOM      3  C   UNL     1       5.944  14.934  20.980  0.00  0.00    +0.000 A 
ATOM      4  C   UNL     1       6.623  15.186  19.804  0.00  0.00    +0.000 A 
ATOM      5  C   UNL     1       7.949  14.638  19.659  0.00  0.00    +0.000 A 
ATOM      6  C   UNL     1       8.897  15.495  19.283  0.00  0.00    +0.000 A 
ATOM      7  C   UNL     1       8.555  16.722  18.541  0.00  0.00    +0.000 A 
ATOM      8  O   UNL     1       9.423  17.512  18.184  0.00  0.00    +0.000 OA
ATOM      9  O   UNL     1       7.193  16.893  18.204  0.00  0.00    +0.000 OA
ATOM     10  C   UNL     1       6.215  16.252  19.008  0.00  0.00    +0.000 A 
ATOM     11  C   UNL     1       4.938  16.800  19.171  0.00  0.00    +0.000 A 
ATOM     12  C   UNL     1      10.231  15.200  19.866  0.00  0.00    +0.000 C 
ATOM     13  O   UNL     1       9.903  14.920  21.294  0.00  0.00    +0.000 OA
ATOM     14  C   UNL     1       9.252  13.619  21.355  0.00  0.00    +0.000 C 
ATOM     15  C   UNL     1      10.440  12.651  21.191  0.00  0.00    +0.000 C 
ATOM     16  C   UNL     1      10.939  12.750  19.776  0.00  0.00    +0.000 A 
ATOM     17  C   UNL     1      11.305  11.580  19.112  0.00  0.00    +0.000 A 
ATOM     18  C   UNL     1      11.587  11.643  17.745  0.00  0.00    +0.000 A 
ATOM     19  C   UNL     1      11.593  12.887  17.122  0.00  0.00    +0.000 A 
ATOM     20  C   UNL     1      11.275  14.061  17.809  0.00  0.00    +0.000 A 
ATOM     21  C   UNL     1      10.902  14.008  19.159  0.00  0.00    +0.000 A 
ATOM     22  O   UNL     1       8.225  13.468  20.343  0.00  0.00    +0.000 OA
ENDROOT
BRANCH  14  23
ATOM     23  C   UNL     1       8.587  13.180  22.655  0.00  0.00    +0.000 A 
ATOM     24  C   UNL     1       8.034  11.837  22.764  0.00  0.00    +0.000 A 
ATOM     25  C   UNL     1       7.642  11.507  24.036  0.00  0.00    +0.000 A 
ATOM     26  S   UNL     1       7.769  12.853  25.080  0.00  0.00    +0.000 S 
ATOM     27  C   UNL     1       8.419  13.855  23.842  0.00  0.00    +0.000 A 
ENDBRANCH  14  23
BRANCH   1  29
ATOM     28  C   UNL     1       1.968  16.076  20.462  0.00  0.00    +0.000 C 
ATOM     29  O   UNL     1       3.073  16.857  20.842  0.00  0.00    +0.000 OA
ENDBRANCH   1  29
TORSDOF 2
ENDMDL
MODEL 9
REMARK VINA RESULT:      -6.6      2.201      5.249
REMARK  Name = 
REMARK  3 active torsions:
REMARK  status: ('A' for Active; 'I' for Inactive)
REMARK    1  A    between atoms: C_1  and  O_2
REMARK    2  A    between atoms: O_2  and  C_3
REMARK    3  A    between atoms: C_16  and  C_17
REMARK                            x       y       z     vdW  Elec       q    Type
REMARK                         _______ _______ _______ _____ _____    ______ ____
ROOT
ATOM      1  C   UNL     1      -6.658  13.423  17.738  0.00  0.00    +0.000 A 
ATOM      2  C   UNL     1      -6.175  14.069  18.860  0.00  0.00    +0.000 A 
ATOM      3  C   UNL     1      -5.432  13.373  19.773  0.00  0.00    +0.000 A 
ATOM      4  C   UNL     1      -4.647  12.351  19.277  0.00  0.00    +0.000 A 
ATOM      5  C   UNL     1      -3.456  11.998  20.011  0.00  0.00    +0.000 A 
ATOM      6  C   UNL     1      -2.331  11.932  19.301  0.00  0.00    +0.000 A 
ATOM      7  C   UNL     1      -2.367  11.681  17.849  0.00  0.00    +0.000 A 
ATOM      8  O   UNL     1      -1.334  11.612  17.191  0.00  0.00    +0.000 OA
ATOM      9  O   UNL     1      -3.641  11.451  17.282  0.00  0.00    +0.000 OA
ATOM     10  C   UNL     1      -4.777  11.993  17.939  0.00  0.00    +0.000 A 
ATOM     11  C   UNL     1      -5.921  12.364  17.221  0.00  0.00    +0.000 A 
ATOM     12  C   UNL     1      -1.124  12.349  20.061  0.00  0.00    +0.000 C 
ATOM     13  O   UNL     1      -1.588  13.590  20.746  0.00  0.00    +0.000 OA
ATOM     14  C   UNL     1      -2.497  13.197  21.813  0.00  0.00    +0.000 C 
ATOM     15  C   UNL     1      -1.528  12.679  22.894  0.00  0.00    +0.000 C 
ATOM     16  C   UNL     1      -0.935  11.382  22.414  0.00  0.00    +0.000 A 
ATOM     17  C   UNL     1      -0.780  10.339  23.328  0.00  0.00    +0.000 A 
ATOM     18  C   UNL     1      -0.411   9.079  22.852  0.00  0.00    +0.000 A 
ATOM     19  C   UNL     1      -0.110   8.938  21.500  0.00  0.00    +0.000 A 
ATOM     20  C   UNL     1      -0.218  10.003  20.602  0.00  0.00    +0.000 A 
ATOM     21  C   UNL     1      -0.674  11.252  21.044  0.00  0.00    +0.000 A 
ATOM     22  O   UNL     1      -3.471  12.216  21.376  0.00  0.00    +0.000 OA
ENDROOT
BRANCH  14  23
ATOM     23  C   UNL     1      -3.314  14.268  22.527  0.00  0.00    +0.000 A 
ATOM     24  C   UNL     1      -3.266  15.645  22.054  0.00  0.00    +0.000 A 
ATOM     25  C   UNL     1      -4.187  16.464  22.657  0.00  0.00    +0.000 A 
ATOM     26  S   UNL     1      -5.002  15.643  23.913  0.00  0.00    +0.000 S 
ATOM     27  C   UNL     1      -4.172  14.169  23.599  0.00  0.00    +0.000 A 
ENDBRANCH  14  23
BRANCH   1  29
ATOM     28  C   UNL     1      -7.910  14.696  16.148  0.00  0.00    +0.000 C 
ATOM     29  O   UNL     1      -7.829  13.979  17.354  0.00  0.00    +0.000 OA
ENDBRANCH   1  29
TORSDOF 2
ENDMDL
