MODEL 1
REMARK VINA RESULT:      -6.6      0.000      0.000
REMARK  Name = 
REMARK  8 active torsions:
REMARK  status: ('A' for Active; 'I' for Inactive)
REMARK    1  A    between atoms: C_1  and  O_2
REMARK    2  A    between atoms: O_2  and  N_3
REMARK    3  A    between atoms: N_3  and  C_4
REMARK    4  A    between atoms: C_10  and  C_11
REMARK    5  A    between atoms: C_11  and  O_12
REMARK    6  A    between atoms: C_11  and  C_13
REMARK    7  A    between atoms: C_17  and  O_18
REMARK    8  A    between atoms: C_19  and  O_20
REMARK                            x       y       z     vdW  Elec       q    Type
REMARK                         _______ _______ _______ _____ _____    ______ ____
ROOT
ATOM      1  N   UNL     1       6.990   5.536  17.256  0.00  0.00    +0.000 N 
ATOM      2  C   UNL     1       7.493   6.876  16.974  0.00  0.00    +0.000 C 
ATOM      3  C   UNL     1       5.619   5.364  17.405  0.00  0.00    +0.000 C 
ATOM      4  N   UNL     1       4.719   6.228  17.036  0.00  0.00    +0.000 NA
ATOM      5  C   UNL     1       3.370   5.807  17.499  0.00  0.00    +0.000 C 
ATOM      6  C   UNL     1       3.336   4.284  17.604  0.00  0.00    +0.000 C 
ATOM      7  O   UNL     1       2.297   3.757  18.426  0.00  0.00    +0.000 OA
ATOM      8  C   UNL     1       2.205   4.330  19.736  0.00  0.00    +0.000 C 
ATOM      9  C   UNL     1       1.962   5.841  19.647  0.00  0.00    +0.000 C 
ATOM     10  C   UNL     1       3.071   6.517  18.833  0.00  0.00    +0.000 C 
ATOM     11  S   UNL     1       5.009   3.863  18.106  0.00  0.00    +0.000 S 
ENDROOT
BRANCH   1  13
ATOM     12  C   UNL     1       7.894   5.860  19.339  0.00  0.00    +0.000 C 
ATOM     13  O   UNL     1       7.735   4.921  18.272  0.00  0.00    +0.000 OA
ENDBRANCH   1  13
BRANCH   9  14
ATOM     14  O   UNL     1       1.947   6.387  20.973  0.00  0.00    +0.000 OA
ATOM     15  H   UNL     1       1.989   5.639  21.601  0.00  0.00    +0.000 HD
ENDBRANCH   9  14
BRANCH  10  16
ATOM     16  O   UNL     1       2.711   7.895  18.635  0.00  0.00    +0.000 OA
ATOM     17  H   UNL     1       1.792   8.019  18.934  0.00  0.00    +0.000 HD
ENDBRANCH  10  16
BRANCH   8  18
ATOM     18  C   UNL     1       1.064   3.641  20.510  0.00  0.00    +0.000 C 
BRANCH  18  19
ATOM     19  C   UNL     1       1.598   2.843  21.710  0.00  0.00    +0.000 C 
ATOM     20  F   UNL     1       0.625   2.271  22.451  0.00  0.00    +0.000 F 
ATOM     21  F   UNL     1       2.422   1.849  21.300  0.00  0.00    +0.000 F 
ATOM     22  F   UNL     1       2.319   3.639  22.540  0.00  0.00    +0.000 F 
ENDBRANCH  18  19
BRANCH  18  23
ATOM     23  O   UNL     1       0.309   2.809  19.591  0.00  0.00    +0.000 OA
ATOM     24  H   UNL     1      -0.594   2.749  19.964  0.00  0.00    +0.000 HD
ENDBRANCH  18  23
ENDBRANCH   8  18
TORSDOF 6
ENDMDL
MODEL 2
REMARK VINA RESULT:      -6.2      4.137      6.380
REMARK  Name = 
REMARK  8 active torsions:
REMARK  status: ('A' for Active; 'I' for Inactive)
REMARK    1  A    between atoms: C_1  and  O_2
REMARK    2  A    between atoms: O_2  and  N_3
REMARK    3  A    between atoms: N_3  and  C_4
REMARK    4  A    between atoms: C_10  and  C_11
REMARK    5  A    between atoms: C_11  and  O_12
REMARK    6  A    between atoms: C_11  and  C_13
REMARK    7  A    between atoms: C_17  and  O_18
REMARK    8  A    between atoms: C_19  and  O_20
REMARK                            x       y       z     vdW  Elec       q    Type
REMARK                         _______ _______ _______ _____ _____    ______ ____
ROOT
ATOM      1  N   UNL     1       1.730   3.033  20.604  0.00  0.00    +0.000 N 
ATOM      2  C   UNL     1       2.049   3.140  22.023  0.00  0.00    +0.000 C 
ATOM      3  C   UNL     1       2.776   3.057  19.689  0.00  0.00    +0.000 C 
ATOM      4  N   UNL     1       4.028   2.880  19.990  0.00  0.00    +0.000 NA
ATOM      5  C   UNL     1       4.892   3.143  18.808  0.00  0.00    +0.000 C 
ATOM      6  C   UNL     1       4.098   2.843  17.539  0.00  0.00    +0.000 C 
ATOM      7  O   UNL     1       4.610   3.441  16.349  0.00  0.00    +0.000 OA
ATOM      8  C   UNL     1       4.865   4.849  16.435  0.00  0.00    +0.000 C 
ATOM      9  C   UNL     1       5.883   5.145  17.542  0.00  0.00    +0.000 C 
ATOM     10  C   UNL     1       5.392   4.598  18.886  0.00  0.00    +0.000 C 
ATOM     11  S   UNL     1       2.419   3.308  17.978  0.00  0.00    +0.000 S 
ENDROOT
BRANCH   1  13
ATOM     12  C   UNL     1       1.069   5.229  20.577  0.00  0.00    +0.000 C 
ATOM     13  O   UNL     1       0.676   3.892  20.258  0.00  0.00    +0.000 OA
ENDBRANCH   1  13
BRANCH   9  14
ATOM     14  O   UNL     1       6.058   6.565  17.642  0.00  0.00    +0.000 OA
ATOM     15  H   UNL     1       5.219   6.943  17.973  0.00  0.00    +0.000 HD
ENDBRANCH   9  14
BRANCH  10  16
ATOM     16  O   UNL     1       6.449   4.748  19.850  0.00  0.00    +0.000 OA
ATOM     17  H   UNL     1       7.145   4.098  19.646  0.00  0.00    +0.000 HD
ENDBRANCH  10  16
BRANCH   8  18
ATOM     18  C   UNL     1       5.380   5.352  15.072  0.00  0.00    +0.000 C 
BRANCH  18  19
ATOM     19  C   UNL     1       6.700   4.669  14.680  0.00  0.00    +0.000 C 
ATOM     20  F   UNL     1       7.504   4.411  15.733  0.00  0.00    +0.000 F 
ATOM     21  F   UNL     1       6.466   3.488  14.059  0.00  0.00    +0.000 F 
ATOM     22  F   UNL     1       7.406   5.440  13.815  0.00  0.00    +0.000 F 
ENDBRANCH  18  19
BRANCH  18  23
ATOM     23  O   UNL     1       5.504   6.797  15.122  0.00  0.00    +0.000 OA
ATOM     24  H   UNL     1       4.614   7.150  14.921  0.00  0.00    +0.000 HD
ENDBRANCH  18  23
ENDBRANCH   8  18
TORSDOF 6
ENDMDL
MODEL 3
REMARK VINA RESULT:      -6.1      3.892      6.245
REMARK  Name = 
REMARK  8 active torsions:
REMARK  status: ('A' for Active; 'I' for Inactive)
REMARK    1  A    between atoms: C_1  and  O_2
REMARK    2  A    between atoms: O_2  and  N_3
REMARK    3  A    between atoms: N_3  and  C_4
REMARK    4  A    between atoms: C_10  and  C_11
REMARK    5  A    between atoms: C_11  and  O_12
REMARK    6  A    between atoms: C_11  and  C_13
REMARK    7  A    between atoms: C_17  and  O_18
REMARK    8  A    between atoms: C_19  and  O_20
REMARK                            x       y       z     vdW  Elec       q    Type
REMARK                         _______ _______ _______ _____ _____    ______ ____
ROOT
ATOM      1  N   UNL     1       2.164   2.491  20.363  0.00  0.00    +0.000 N 
ATOM      2  C   UNL     1       1.047   3.007  21.147  0.00  0.00    +0.000 C 
ATOM      3  C   UNL     1       3.145   3.384  19.946  0.00  0.00    +0.000 C 
ATOM      4  N   UNL     1       3.312   4.579  20.428  0.00  0.00    +0.000 NA
ATOM      5  C   UNL     1       4.332   5.323  19.641  0.00  0.00    +0.000 C 
ATOM      6  C   UNL     1       5.315   4.323  19.036  0.00  0.00    +0.000 C 
ATOM      7  O   UNL     1       6.071   4.811  17.930  0.00  0.00    +0.000 OA
ATOM      8  C   UNL     1       5.302   5.419  16.886  0.00  0.00    +0.000 C 
ATOM      9  C   UNL     1       4.507   6.612  17.427  0.00  0.00    +0.000 C 
ATOM     10  C   UNL     1       3.604   6.177  18.586  0.00  0.00    +0.000 C 
ATOM     11  S   UNL     1       4.292   2.884  18.700  0.00  0.00    +0.000 S 
ENDROOT
BRANCH   1  13
ATOM     12  C   UNL     1       0.637   2.310  18.661  0.00  0.00    +0.000 C 
ATOM     13  O   UNL     1       1.712   1.651  19.334  0.00  0.00    +0.000 OA
ENDBRANCH   1  13
BRANCH   9  14
ATOM     14  O   UNL     1       3.698   7.149  16.371  0.00  0.00    +0.000 OA
ATOM     15  H   UNL     1       3.032   7.737  16.779  0.00  0.00    +0.000 HD
ENDBRANCH   9  14
BRANCH  10  16
ATOM     16  O   UNL     1       3.013   7.352  19.166  0.00  0.00    +0.000 OA
ATOM     17  H   UNL     1       2.298   7.073  19.766  0.00  0.00    +0.000 HD
ENDBRANCH  10  16
BRANCH   8  18
ATOM     18  C   UNL     1       6.249   5.864  15.754  0.00  0.00    +0.000 C 
BRANCH  18  19
ATOM     19  C   UNL     1       6.396   4.775  14.679  0.00  0.00    +0.000 C 
ATOM     20  F   UNL     1       6.738   3.569  15.180  0.00  0.00    +0.000 F 
ATOM     21  F   UNL     1       5.235   4.609  14.000  0.00  0.00    +0.000 F 
ATOM     22  F   UNL     1       7.343   5.116  13.770  0.00  0.00    +0.000 F 
ENDBRANCH  18  19
BRANCH  18  23
ATOM     23  O   UNL     1       7.526   6.240  16.332  0.00  0.00    +0.000 OA
ATOM     24  H   UNL     1       8.082   5.436  16.301  0.00  0.00    +0.000 HD
ENDBRANCH  18  23
ENDBRANCH   8  18
TORSDOF 6
ENDMDL
MODEL 4
REMARK VINA RESULT:      -5.9      1.059      1.352
REMARK  Name = 
REMARK  8 active torsions:
REMARK  status: ('A' for Active; 'I' for Inactive)
REMARK    1  A    between atoms: C_1  and  O_2
REMARK    2  A    between atoms: O_2  and  N_3
REMARK    3  A    between atoms: N_3  and  C_4
REMARK    4  A    between atoms: C_10  and  C_11
REMARK    5  A    between atoms: C_11  and  O_12
REMARK    6  A    between atoms: C_11  and  C_13
REMARK    7  A    between atoms: C_17  and  O_18
REMARK    8  A    between atoms: C_19  and  O_20
REMARK                            x       y       z     vdW  Elec       q    Type
REMARK                         _______ _______ _______ _____ _____    ______ ____
ROOT
ATOM      1  N   UNL     1       7.219   6.590  17.604  0.00  0.00    +0.000 N 
ATOM      2  C   UNL     1       7.401   7.921  17.036  0.00  0.00    +0.000 C 
ATOM      3  C   UNL     1       5.924   6.104  17.743  0.00  0.00    +0.000 C 
ATOM      4  N   UNL     1       4.877   6.604  17.155  0.00  0.00    +0.000 NA
ATOM      5  C   UNL     1       3.636   5.958  17.659  0.00  0.00    +0.000 C 
ATOM      6  C   UNL     1       3.967   4.538  18.113  0.00  0.00    +0.000 C 
ATOM      7  O   UNL     1       3.019   3.949  19.000  0.00  0.00    +0.000 OA
ATOM      8  C   UNL     1       2.670   4.748  20.137  0.00  0.00    +0.000 C 
ATOM      9  C   UNL     1       2.073   6.087  19.692  0.00  0.00    +0.000 C 
ATOM     10  C   UNL     1       3.051   6.836  18.781  0.00  0.00    +0.000 C 
ATOM     11  S   UNL     1       5.640   4.684  18.754  0.00  0.00    +0.000 S 
ENDROOT
BRANCH   1  13
ATOM     12  C   UNL     1       8.593   7.683  19.079  0.00  0.00    +0.000 C 
ATOM     13  O   UNL     1       7.996   6.424  18.759  0.00  0.00    +0.000 OA
ENDBRANCH   1  13
BRANCH   9  14
ATOM     14  O   UNL     1       1.803   6.884  20.855  0.00  0.00    +0.000 OA
ATOM     15  H   UNL     1       2.170   7.776  20.693  0.00  0.00    +0.000 HD
ENDBRANCH   9  14
BRANCH  10  16
ATOM     16  O   UNL     1       2.384   7.997  18.257  0.00  0.00    +0.000 OA
ATOM     17  H   UNL     1       3.035   8.718  18.179  0.00  0.00    +0.000 HD
ENDBRANCH  10  16
BRANCH   8  18
ATOM     18  C   UNL     1       1.668   3.970  21.013  0.00  0.00    +0.000 C 
BRANCH  18  19
ATOM     19  C   UNL     1       2.109   2.511  21.215  0.00  0.00    +0.000 C 
ATOM     20  F   UNL     1       3.440   2.372  21.388  0.00  0.00    +0.000 F 
ATOM     21  F   UNL     1       1.508   1.973  22.304  0.00  0.00    +0.000 F 
ATOM     22  F   UNL     1       1.760   1.747  20.150  0.00  0.00    +0.000 F 
ENDBRANCH  18  19
BRANCH  18  23
ATOM     23  O   UNL     1       0.349   4.065  20.415  0.00  0.00    +0.000 OA
ATOM     24  H   UNL     1      -0.272   3.694  21.073  0.00  0.00    +0.000 HD
ENDBRANCH  18  23
ENDBRANCH   8  18
TORSDOF 6
ENDMDL
MODEL 5
REMARK VINA RESULT:      -5.8      4.186      6.574
REMARK  Name = 
REMARK  8 active torsions:
REMARK  status: ('A' for Active; 'I' for Inactive)
REMARK    1  A    between atoms: C_1  and  O_2
REMARK    2  A    between atoms: O_2  and  N_3
REMARK    3  A    between atoms: N_3  and  C_4
REMARK    4  A    between atoms: C_10  and  C_11
REMARK    5  A    between atoms: C_11  and  O_12
REMARK    6  A    between atoms: C_11  and  C_13
REMARK    7  A    between atoms: C_17  and  O_18
REMARK    8  A    between atoms: C_19  and  O_20
REMARK                            x       y       z     vdW  Elec       q    Type
REMARK                         _______ _______ _______ _____ _____    ______ ____
ROOT
ATOM      1  N   UNL     1       1.989   3.793  19.594  0.00  0.00    +0.000 N 
ATOM      2  C   UNL     1       1.237   4.727  20.425  0.00  0.00    +0.000 C 
ATOM      3  C   UNL     1       3.171   4.233  19.011  0.00  0.00    +0.000 C 
ATOM      4  N   UNL     1       3.817   5.305  19.363  0.00  0.00    +0.000 NA
ATOM      5  C   UNL     1       4.937   5.573  18.423  0.00  0.00    +0.000 C 
ATOM      6  C   UNL     1       5.410   4.249  17.827  0.00  0.00    +0.000 C 
ATOM      7  O   UNL     1       6.157   4.362  16.617  0.00  0.00    +0.000 OA
ATOM      8  C   UNL     1       5.544   5.157  15.594  0.00  0.00    +0.000 C 
ATOM      9  C   UNL     1       5.308   6.586  16.092  0.00  0.00    +0.000 C 
ATOM     10  C   UNL     1       4.451   6.580  17.362  0.00  0.00    +0.000 C 
ATOM     11  S   UNL     1       3.903   3.278  17.718  0.00  0.00    +0.000 S 
ENDROOT
BRANCH   1  13
ATOM     12  C   UNL     1       0.752   1.886  19.284  0.00  0.00    +0.000 C 
ATOM     13  O   UNL     1       1.145   3.127  18.693  0.00  0.00    +0.000 OA
ENDBRANCH   1  13
BRANCH   9  14
ATOM     14  O   UNL     1       4.632   7.329  15.067  0.00  0.00    +0.000 OA
ATOM     15  H   UNL     1       4.996   8.236  15.071  0.00  0.00    +0.000 HD
ENDBRANCH   9  14
BRANCH  10  16
ATOM     16  O   UNL     1       4.401   7.919  17.882  0.00  0.00    +0.000 OA
ATOM     17  H   UNL     1       3.549   8.041  18.338  0.00  0.00    +0.000 HD
ENDBRANCH  10  16
BRANCH   8  18
ATOM     18  C   UNL     1       6.449   5.158  14.346  0.00  0.00    +0.000 C 
BRANCH  18  19
ATOM     19  C   UNL     1       6.139   3.968  13.423  0.00  0.00    +0.000 C 
ATOM     20  F   UNL     1       6.900   3.940  12.309  0.00  0.00    +0.000 F 
ATOM     21  F   UNL     1       6.336   2.793  14.069  0.00  0.00    +0.000 F 
ATOM     22  F   UNL     1       4.842   3.989  13.024  0.00  0.00    +0.000 F 
ENDBRANCH  18  19
BRANCH  18  23
ATOM     23  O   UNL     1       7.836   5.175  14.771  0.00  0.00    +0.000 OA
ATOM     24  H   UNL     1       8.116   6.111  14.736  0.00  0.00    +0.000 HD
ENDBRANCH  18  23
ENDBRANCH   8  18
TORSDOF 6
ENDMDL
MODEL 6
REMARK VINA RESULT:      -5.8      4.080      6.472
REMARK  Name = 
REMARK  8 active torsions:
REMARK  status: ('A' for Active; 'I' for Inactive)
REMARK    1  A    between atoms: C_1  and  O_2
REMARK    2  A    between atoms: O_2  and  N_3
REMARK    3  A    between atoms: N_3  and  C_4
REMARK    4  A    between atoms: C_10  and  C_11
REMARK    5  A    between atoms: C_11  and  O_12
REMARK    6  A    between atoms: C_11  and  C_13
REMARK    7  A    between atoms: C_17  and  O_18
REMARK    8  A    between atoms: C_19  and  O_20
REMARK                            x       y       z     vdW  Elec       q    Type
REMARK                         _______ _______ _______ _____ _____    ______ ____
ROOT
ATOM      1  N   UNL     1       1.955   3.734  20.351  0.00  0.00    +0.000 N 
ATOM      2  C   UNL     1       2.184   3.880  21.785  0.00  0.00    +0.000 C 
ATOM      3  C   UNL     1       3.059   3.616  19.515  0.00  0.00    +0.000 C 
ATOM      4  N   UNL     1       4.265   3.339  19.916  0.00  0.00    +0.000 NA
ATOM      5  C   UNL     1       5.230   3.462  18.791  0.00  0.00    +0.000 C 
ATOM      6  C   UNL     1       4.502   3.176  17.480  0.00  0.00    +0.000 C 
ATOM      7  O   UNL     1       5.150   3.665  16.308  0.00  0.00    +0.000 OA
ATOM      8  C   UNL     1       5.532   5.045  16.353  0.00  0.00    +0.000 C 
ATOM      9  C   UNL     1       6.495   5.299  17.518  0.00  0.00    +0.000 C 
ATOM     10  C   UNL     1       5.861   4.867  18.844  0.00  0.00    +0.000 C 
ATOM     11  S   UNL     1       2.848   3.815  17.774  0.00  0.00    +0.000 S 
ENDROOT
BRANCH   1  13
ATOM     12  C   UNL     1       1.336   5.940  20.465  0.00  0.00    +0.000 C 
ATOM     13  O   UNL     1       1.015   4.669  19.893  0.00  0.00    +0.000 OA
ENDBRANCH   1  13
BRANCH   9  14
ATOM     14  O   UNL     1       6.798   6.701  17.571  0.00  0.00    +0.000 OA
ATOM     15  H   UNL     1       7.406   6.842  18.324  0.00  0.00    +0.000 HD
ENDBRANCH   9  14
BRANCH  10  16
ATOM     16  O   UNL     1       6.858   4.965  19.876  0.00  0.00    +0.000 OA
ATOM     17  H   UNL     1       6.681   5.768  20.399  0.00  0.00    +0.000 HD
ENDBRANCH  10  16
BRANCH   8  18
ATOM     18  C   UNL     1       6.187   5.431  15.012  0.00  0.00    +0.000 C 
BRANCH  18  19
ATOM     19  C   UNL     1       6.076   4.296  13.982  0.00  0.00    +0.000 C 
ATOM     20  F   UNL     1       6.437   3.090  14.470  0.00  0.00    +0.000 F 
ATOM     21  F   UNL     1       4.804   4.177  13.530  0.00  0.00    +0.000 F 
ATOM     22  F   UNL     1       6.860   4.543  12.902  0.00  0.00    +0.000 F 
ENDBRANCH  18  19
BRANCH  18  23
ATOM     23  O   UNL     1       7.564   5.818  15.256  0.00  0.00    +0.000 OA
ATOM     24  H   UNL     1       8.115   5.119  14.851  0.00  0.00    +0.000 HD
ENDBRANCH  18  23
ENDBRANCH   8  18
TORSDOF 6
ENDMDL
MODEL 7
REMARK VINA RESULT:      -5.8      2.865      4.104
REMARK  Name = 
REMARK  8 active torsions:
REMARK  status: ('A' for Active; 'I' for Inactive)
REMARK    1  A    between atoms: C_1  and  O_2
REMARK    2  A    between atoms: O_2  and  N_3
REMARK    3  A    between atoms: N_3  and  C_4
REMARK    4  A    between atoms: C_10  and  C_11
REMARK    5  A    between atoms: C_11  and  O_12
REMARK    6  A    between atoms: C_11  and  C_13
REMARK    7  A    between atoms: C_17  and  O_18
REMARK    8  A    between atoms: C_19  and  O_20
REMARK                            x       y       z     vdW  Elec       q    Type
REMARK                         _______ _______ _______ _____ _____    ______ ____
ROOT
ATOM      1  N   UNL     1       6.665   5.040  13.697  0.00  0.00    +0.000 N 
ATOM      2  C   UNL     1       8.021   4.579  13.421  0.00  0.00    +0.000 C 
ATOM      3  C   UNL     1       6.361   5.459  14.988  0.00  0.00    +0.000 C 
ATOM      4  N   UNL     1       7.241   5.748  15.900  0.00  0.00    +0.000 NA
ATOM      5  C   UNL     1       6.577   5.989  17.209  0.00  0.00    +0.000 C 
ATOM      6  C   UNL     1       5.163   6.508  16.958  0.00  0.00    +0.000 C 
ATOM      7  O   UNL     1       4.266   6.377  18.058  0.00  0.00    +0.000 OA
ATOM      8  C   UNL     1       4.200   5.069  18.640  0.00  0.00    +0.000 C 
ATOM      9  C   UNL     1       5.579   4.638  19.151  0.00  0.00    +0.000 C 
ATOM     10  C   UNL     1       6.611   4.679  18.019  0.00  0.00    +0.000 C 
ATOM     11  S   UNL     1       4.669   5.663  15.451  0.00  0.00    +0.000 S 
ENDROOT
BRANCH   1  13
ATOM     12  C   UNL     1       6.356   3.357  12.170  0.00  0.00    +0.000 C 
ATOM     13  O   UNL     1       5.714   4.156  13.167  0.00  0.00    +0.000 OA
ENDBRANCH   1  13
BRANCH   9  14
ATOM     14  O   UNL     1       5.486   3.300  19.661  0.00  0.00    +0.000 OA
ATOM     15  H   UNL     1       4.692   2.888  19.266  0.00  0.00    +0.000 HD
ENDBRANCH   9  14
BRANCH  10  16
ATOM     16  O   UNL     1       7.911   4.433  18.582  0.00  0.00    +0.000 OA
ATOM     17  H   UNL     1       8.268   5.278  18.911  0.00  0.00    +0.000 HD
ENDBRANCH  10  16
BRANCH   8  18
ATOM     18  C   UNL     1       3.172   5.078  19.788  0.00  0.00    +0.000 C 
BRANCH  18  19
ATOM     19  C   UNL     1       1.917   4.267  19.428  0.00  0.00    +0.000 C 
ATOM     20  F   UNL     1       2.110   2.931  19.474  0.00  0.00    +0.000 F 
ATOM     21  F   UNL     1       0.900   4.550  20.277  0.00  0.00    +0.000 F 
ATOM     22  F   UNL     1       1.487   4.568  18.177  0.00  0.00    +0.000 F 
ENDBRANCH  18  19
BRANCH  18  23
ATOM     23  O   UNL     1       2.857   6.454  20.126  0.00  0.00    +0.000 OA
ATOM     24  H   UNL     1       1.884   6.530  20.063  0.00  0.00    +0.000 HD
ENDBRANCH  18  23
ENDBRANCH   8  18
TORSDOF 6
ENDMDL
MODEL 8
REMARK VINA RESULT:      -5.8      1.761      1.954
REMARK  Name = 
REMARK  8 active torsions:
REMARK  status: ('A' for Active; 'I' for Inactive)
REMARK    1  A    between atoms: C_1  and  O_2
REMARK    2  A    between atoms: O_2  and  N_3
REMARK    3  A    between atoms: N_3  and  C_4
REMARK    4  A    between atoms: C_10  and  C_11
REMARK    5  A    between atoms: C_11  and  O_12
REMARK    6  A    between atoms: C_11  and  C_13
REMARK    7  A    between atoms: C_17  and  O_18
REMARK    8  A    between atoms: C_19  and  O_20
REMARK                            x       y       z     vdW  Elec       q    Type
REMARK                         _______ _______ _______ _____ _____    ______ ____
ROOT
ATOM      1  N   UNL     1       7.402   6.730  17.303  0.00  0.00    +0.000 N 
ATOM      2  C   UNL     1       7.569   8.162  17.524  0.00  0.00    +0.000 C 
ATOM      3  C   UNL     1       6.116   6.201  17.346  0.00  0.00    +0.000 C 
ATOM      4  N   UNL     1       5.024   6.903  17.282  0.00  0.00    +0.000 NA
ATOM      5  C   UNL     1       3.836   6.045  17.533  0.00  0.00    +0.000 C 
ATOM      6  C   UNL     1       4.156   4.617  17.095  0.00  0.00    +0.000 C 
ATOM      7  O   UNL     1       3.314   3.610  17.652  0.00  0.00    +0.000 OA
ATOM      8  C   UNL     1       3.171   3.654  19.077  0.00  0.00    +0.000 C 
ATOM      9  C   UNL     1       2.586   5.000  19.518  0.00  0.00    +0.000 C 
ATOM     10  C   UNL     1       3.461   6.156  19.023  0.00  0.00    +0.000 C 
ATOM     11  S   UNL     1       5.907   4.451  17.460  0.00  0.00    +0.000 S 
ENDROOT
BRANCH   1  13
ATOM     12  C   UNL     1       7.934   6.060  19.431  0.00  0.00    +0.000 C 
ATOM     13  O   UNL     1       8.326   5.992  18.058  0.00  0.00    +0.000 OA
ENDBRANCH   1  13
BRANCH   9  14
ATOM     14  O   UNL     1       2.524   5.031  20.951  0.00  0.00    +0.000 OA
ATOM     15  H   UNL     1       1.610   4.802  21.212  0.00  0.00    +0.000 HD
ENDBRANCH   9  14
BRANCH  10  16
ATOM     16  O   UNL     1       2.786   7.392  19.312  0.00  0.00    +0.000 OA
ATOM     17  H   UNL     1       3.456   8.087  19.439  0.00  0.00    +0.000 HD
ENDBRANCH  10  16
BRANCH   8  18
ATOM     18  C   UNL     1       2.265   2.492  19.530  0.00  0.00    +0.000 C 
BRANCH  18  19
ATOM     19  C   UNL     1       0.821   2.676  19.035  0.00  0.00    +0.000 C 
ATOM     20  F   UNL     1       0.705   3.582  18.041  0.00  0.00    +0.000 F 
ATOM     21  F   UNL     1       0.319   1.508  18.568  0.00  0.00    +0.000 F 
ATOM     22  F   UNL     1       0.010   3.082  20.045  0.00  0.00    +0.000 F 
ENDBRANCH  18  19
BRANCH  18  23
ATOM     23  O   UNL     1       2.338   2.374  20.974  0.00  0.00    +0.000 OA
ATOM     24  H   UNL     1       2.096   3.254  21.328  0.00  0.00    +0.000 HD
ENDBRANCH  18  23
ENDBRANCH   8  18
TORSDOF 6
ENDMDL
MODEL 9
REMARK VINA RESULT:      -5.6      4.130      6.403
REMARK  Name = 
REMARK  8 active torsions:
REMARK  status: ('A' for Active; 'I' for Inactive)
REMARK    1  A    between atoms: C_1  and  O_2
REMARK    2  A    between atoms: O_2  and  N_3
REMARK    3  A    between atoms: N_3  and  C_4
REMARK    4  A    between atoms: C_10  and  C_11
REMARK    5  A    between atoms: C_11  and  O_12
REMARK    6  A    between atoms: C_11  and  C_13
REMARK    7  A    between atoms: C_17  and  O_18
REMARK    8  A    between atoms: C_19  and  O_20
REMARK                            x       y       z     vdW  Elec       q    Type
REMARK                         _______ _______ _______ _____ _____    ______ ____
ROOT
ATOM      1  N   UNL     1       0.928   3.421  20.364  0.00  0.00    +0.000 N 
ATOM      2  C   UNL     1       1.189   2.872  21.690  0.00  0.00    +0.000 C 
ATOM      3  C   UNL     1       1.914   3.295  19.392  0.00  0.00    +0.000 C 
ATOM      4  N   UNL     1       2.929   2.487  19.467  0.00  0.00    +0.000 NA
ATOM      5  C   UNL     1       3.877   2.731  18.347  0.00  0.00    +0.000 C 
ATOM      6  C   UNL     1       3.099   3.281  17.153  0.00  0.00    +0.000 C 
ATOM      7  O   UNL     1       3.887   3.961  16.178  0.00  0.00    +0.000 OA
ATOM      8  C   UNL     1       4.753   4.979  16.697  0.00  0.00    +0.000 C 
ATOM      9  C   UNL     1       5.737   4.384  17.710  0.00  0.00    +0.000 C 
ATOM     10  C   UNL     1       4.982   3.682  18.845  0.00  0.00    +0.000 C 
ATOM     11  S   UNL     1       1.798   4.258  17.916  0.00  0.00    +0.000 S 
ENDROOT
BRANCH   1  13
ATOM     12  C   UNL     1       1.443   5.591  20.901  0.00  0.00    +0.000 C 
ATOM     13  O   UNL     1       0.403   4.719  20.450  0.00  0.00    +0.000 OA
ENDBRANCH   1  13
BRANCH   9  14
ATOM     14  O   UNL     1       6.537   5.442  18.256  0.00  0.00    +0.000 OA
ATOM     15  H   UNL     1       7.276   5.603  17.636  0.00  0.00    +0.000 HD
ENDBRANCH   9  14
BRANCH  10  16
ATOM     16  O   UNL     1       5.940   2.999  19.671  0.00  0.00    +0.000 OA
ATOM     17  H   UNL     1       6.486   3.667  20.126  0.00  0.00    +0.000 HD
ENDBRANCH  10  16
BRANCH   8  18
ATOM     18  C   UNL     1       5.510   5.641  15.528  0.00  0.00    +0.000 C 
BRANCH  18  19
ATOM     19  C   UNL     1       6.529   4.678  14.898  0.00  0.00    +0.000 C 
ATOM     20  F   UNL     1       6.099   3.400  14.845  0.00  0.00    +0.000 F 
ATOM     21  F   UNL     1       6.824   5.051  13.629  0.00  0.00    +0.000 F 
ATOM     22  F   UNL     1       7.694   4.681  15.594  0.00  0.00    +0.000 F 
ENDBRANCH  18  19
BRANCH  18  23
ATOM     23  O   UNL     1       6.132   6.862  16.004  0.00  0.00    +0.000 OA
ATOM     24  H   UNL     1       5.468   7.570  15.873  0.00  0.00    +0.000 HD
ENDBRANCH  18  23
ENDBRANCH   8  18
TORSDOF 6
ENDMDL
