MODEL 1
REMARK VINA RESULT:      -6.5      0.000      0.000
REMARK  Name = 
REMARK  2 active torsions:
REMARK  status: ('A' for Active; 'I' for Inactive)
REMARK    1  A    between atoms: C_2  and  C_3
REMARK    2  A    between atoms: C_3  and  O_4
REMARK                            x       y       z     vdW  Elec       q    Type
REMARK                         _______ _______ _______ _____ _____    ______ ____
ROOT
ATOM      1  C   UNL     1       1.849   3.015  18.805  0.00  0.00    +0.000 C 
ATOM      2  C   UNL     1       2.526   1.768  18.204  0.00  0.00    +0.000 C 
ATOM      3  C   UNL     1       3.820   2.214  17.549  0.00  0.00    +0.000 C 
ATOM      4  C   UNL     1       3.738   3.726  17.372  0.00  0.00    +0.000 C 
ATOM      5  C   UNL     1       5.131   4.439  17.345  0.00  0.00    +0.000 C 
ATOM      6  C   UNL     1       6.290   3.841  18.200  0.00  0.00    +0.000 C 
ATOM      7  C   UNL     1       7.596   4.644  18.163  0.00  0.00    +0.000 C 
ATOM      8  C   UNL     1       7.432   6.144  18.176  0.00  0.00    +0.000 C 
ATOM      9  C   UNL     1       8.314   6.954  18.782  0.00  0.00    +0.000 C 
ATOM     10  C   UNL     1       8.304   8.408  18.476  0.00  0.00    +0.000 C 
ATOM     11  O   UNL     1       8.983   9.181  19.145  0.00  0.00    +0.000 OA
ATOM     12  C   UNL     1       7.557   8.838  17.236  0.00  0.00    +0.000 C 
ATOM     13  C   UNL     1       6.184   8.181  17.220  0.00  0.00    +0.000 C 
ATOM     14  C   UNL     1       6.288   6.654  17.330  0.00  0.00    +0.000 C 
ATOM     15  C   UNL     1       4.945   5.944  17.680  0.00  0.00    +0.000 C 
ATOM     16  C   UNL     1       4.326   6.098  19.135  0.00  0.00    +0.000 C 
ATOM     17  C   UNL     1       3.213   7.177  19.225  0.00  0.00    +0.000 C 
ATOM     18  C   UNL     1       1.820   6.650  18.823  0.00  0.00    +0.000 C 
ATOM     19  C   UNL     1       1.900   5.465  17.863  0.00  0.00    +0.000 C 
ATOM     20  C   UNL     1       2.739   4.263  18.451  0.00  0.00    +0.000 C 
ATOM     21  C   UNL     1       3.611   4.801  19.614  0.00  0.00    +0.000 C 
ENDROOT
BRANCH   1  23
ATOM     22  C   UNL     1       1.466   2.680  21.438  0.00  0.00    +0.000 C 
ATOM     23  C   UNL     1       1.630   2.836  20.259  0.00  0.00    +0.000 C 
ENDBRANCH   1  23
BRANCH   1  24
ATOM     24  O   UNL     1       0.552   3.078  18.218  0.00  0.00    +0.000 OA
ATOM     25  H   UNL     1      -0.017   2.434  18.681  0.00  0.00    +0.000 HD
ENDBRANCH   1  24
TORSDOF 2
ENDMDL
MODEL 2
REMARK VINA RESULT:      -6.1      7.730     11.262
REMARK  Name = 
REMARK  2 active torsions:
REMARK  status: ('A' for Active; 'I' for Inactive)
REMARK    1  A    between atoms: C_2  and  C_3
REMARK    2  A    between atoms: C_3  and  O_4
REMARK                            x       y       z     vdW  Elec       q    Type
REMARK                         _______ _______ _______ _____ _____    ______ ____
ROOT
ATOM      1  C   UNL     1       0.942  11.166  19.419  0.00  0.00    +0.000 C 
ATOM      2  C   UNL     1       1.191  10.101  18.334  0.00  0.00    +0.000 C 
ATOM      3  C   UNL     1      -0.158   9.677  17.783  0.00  0.00    +0.000 C 
ATOM      4  C   UNL     1      -1.216  10.137  18.778  0.00  0.00    +0.000 C 
ATOM      5  C   UNL     1      -2.622  10.394  18.139  0.00  0.00    +0.000 C 
ATOM      6  C   UNL     1      -2.687  10.920  16.672  0.00  0.00    +0.000 C 
ATOM      7  C   UNL     1      -4.101  11.206  16.154  0.00  0.00    +0.000 C 
ATOM      8  C   UNL     1      -5.040  11.835  17.155  0.00  0.00    +0.000 C 
ATOM      9  C   UNL     1      -5.987  12.714  16.792  0.00  0.00    +0.000 C 
ATOM     10  C   UNL     1      -7.092  13.032  17.734  0.00  0.00    +0.000 C 
ATOM     11  O   UNL     1      -7.863  13.954  17.488  0.00  0.00    +0.000 OA
ATOM     12  C   UNL     1      -7.294  12.082  18.892  0.00  0.00    +0.000 C 
ATOM     13  C   UNL     1      -5.954  11.808  19.560  0.00  0.00    +0.000 C 
ATOM     14  C   UNL     1      -4.921  11.281  18.556  0.00  0.00    +0.000 C 
ATOM     15  C   UNL     1      -3.450  11.319  19.072  0.00  0.00    +0.000 C 
ATOM     16  C   UNL     1      -2.708  12.713  19.243  0.00  0.00    +0.000 C 
ATOM     17  C   UNL     1      -2.716  13.246  20.701  0.00  0.00    +0.000 C 
ATOM     18  C   UNL     1      -1.574  12.673  21.566  0.00  0.00    +0.000 C 
ATOM     19  C   UNL     1      -1.094  11.311  21.069  0.00  0.00    +0.000 C 
ATOM     20  C   UNL     1      -0.613  11.348  19.565  0.00  0.00    +0.000 C 
ATOM     21  C   UNL     1      -1.192  12.623  18.900  0.00  0.00    +0.000 C 
ENDROOT
BRANCH   1  23
ATOM     22  C   UNL     1       2.253  13.426  18.819  0.00  0.00    +0.000 C 
ATOM     23  C   UNL     1       1.658  12.419  19.089  0.00  0.00    +0.000 C 
ENDBRANCH   1  23
BRANCH   1  24
ATOM     24  O   UNL     1       1.553  10.664  20.605  0.00  0.00    +0.000 OA
ATOM     25  H   UNL     1       1.638  11.407  21.234  0.00  0.00    +0.000 HD
ENDBRANCH   1  24
TORSDOF 2
ENDMDL
MODEL 3
REMARK VINA RESULT:      -5.9      9.009     11.736
REMARK  Name = 
REMARK  2 active torsions:
REMARK  status: ('A' for Active; 'I' for Inactive)
REMARK    1  A    between atoms: C_2  and  C_3
REMARK    2  A    between atoms: C_3  and  O_4
REMARK                            x       y       z     vdW  Elec       q    Type
REMARK                         _______ _______ _______ _____ _____    ______ ____
ROOT
ATOM      1  C   UNL     1      -0.149  10.656  19.857  0.00  0.00    +0.000 C 
ATOM      2  C   UNL     1      -0.210   9.504  20.879  0.00  0.00    +0.000 C 
ATOM      3  C   UNL     1      -0.629  10.091  22.214  0.00  0.00    +0.000 C 
ATOM      4  C   UNL     1      -0.417  11.598  22.130  0.00  0.00    +0.000 C 
ATOM      5  C   UNL     1      -1.351  12.426  23.075  0.00  0.00    +0.000 C 
ATOM      6  C   UNL     1      -2.782  11.881  23.369  0.00  0.00    +0.000 C 
ATOM      7  C   UNL     1      -3.648  12.791  24.250  0.00  0.00    +0.000 C 
ATOM      8  C   UNL     1      -3.515  14.269  23.977  0.00  0.00    +0.000 C 
ATOM      9  C   UNL     1      -4.548  15.115  24.108  0.00  0.00    +0.000 C 
ATOM     10  C   UNL     1      -4.294  16.578  24.171  0.00  0.00    +0.000 C 
ATOM     11  O   UNL     1      -5.231  17.368  24.117  0.00  0.00    +0.000 OA
ATOM     12  C   UNL     1      -2.874  17.011  24.454  0.00  0.00    +0.000 C 
ATOM     13  C   UNL     1      -1.922  16.244  23.548  0.00  0.00    +0.000 C 
ATOM     14  C   UNL     1      -2.102  14.727  23.696  0.00  0.00    +0.000 C 
ATOM     15  C   UNL     1      -1.434  13.890  22.563  0.00  0.00    +0.000 C 
ATOM     16  C   UNL     1      -2.048  13.912  21.097  0.00  0.00    +0.000 C 
ATOM     17  C   UNL     1      -1.319  14.888  20.135  0.00  0.00    +0.000 C 
ATOM     18  C   UNL     1      -0.071  14.270  19.469  0.00  0.00    +0.000 C 
ATOM     19  C   UNL     1       0.540  13.149  20.307  0.00  0.00    +0.000 C 
ATOM     20  C   UNL     1      -0.488  11.991  20.616  0.00  0.00    +0.000 C 
ATOM     21  C   UNL     1      -1.920  12.536  20.382  0.00  0.00    +0.000 C 
ENDROOT
BRANCH   1  23
ATOM     22  C   UNL     1      -1.758  10.160  17.771  0.00  0.00    +0.000 C 
ATOM     23  C   UNL     1      -1.045  10.381  18.712  0.00  0.00    +0.000 C 
ENDBRANCH   1  23
BRANCH   1  24
ATOM     24  O   UNL     1       1.177  10.642  19.332  0.00  0.00    +0.000 OA
ATOM     25  H   UNL     1       1.404   9.716  19.119  0.00  0.00    +0.000 HD
ENDBRANCH   1  24
TORSDOF 2
ENDMDL
MODEL 4
REMARK VINA RESULT:      -5.8      8.423     11.099
REMARK  Name = 
REMARK  2 active torsions:
REMARK  status: ('A' for Active; 'I' for Inactive)
REMARK    1  A    between atoms: C_2  and  C_3
REMARK    2  A    between atoms: C_3  and  O_4
REMARK                            x       y       z     vdW  Elec       q    Type
REMARK                         _______ _______ _______ _____ _____    ______ ____
ROOT
ATOM      1  C   UNL     1       9.692  12.351  18.821  0.00  0.00    +0.000 C 
ATOM      2  C   UNL     1       9.715  10.861  19.213  0.00  0.00    +0.000 C 
ATOM      3  C   UNL     1       9.514  10.773  20.714  0.00  0.00    +0.000 C 
ATOM      4  C   UNL     1       9.787  12.158  21.287  0.00  0.00    +0.000 C 
ATOM      5  C   UNL     1       9.034  12.452  22.628  0.00  0.00    +0.000 C 
ATOM      6  C   UNL     1       7.632  11.807  22.850  0.00  0.00    +0.000 C 
ATOM      7  C   UNL     1       6.942  12.204  24.161  0.00  0.00    +0.000 C 
ATOM      8  C   UNL     1       7.109  13.648  24.566  0.00  0.00    +0.000 C 
ATOM      9  C   UNL     1       6.147  14.324  25.213  0.00  0.00    +0.000 C 
ATOM     10  C   UNL     1       6.480  15.605  25.889  0.00  0.00    +0.000 C 
ATOM     11  O   UNL     1       5.584  16.316  26.333  0.00  0.00    +0.000 OA
ATOM     12  C   UNL     1       7.945  15.889  26.127  0.00  0.00    +0.000 C 
ATOM     13  C   UNL     1       8.724  15.632  24.845  0.00  0.00    +0.000 C 
ATOM     14  C   UNL     1       8.491  14.210  24.319  0.00  0.00    +0.000 C 
ATOM     15  C   UNL     1       8.954  13.987  22.847  0.00  0.00    +0.000 C 
ATOM     16  C   UNL     1       8.145  14.659  21.655  0.00  0.00    +0.000 C 
ATOM     17  C   UNL     1       8.782  15.978  21.139  0.00  0.00    +0.000 C 
ATOM     18  C   UNL     1       9.893  15.750  20.094  0.00  0.00    +0.000 C 
ATOM     19  C   UNL     1      10.558  14.383  20.238  0.00  0.00    +0.000 C 
ATOM     20  C   UNL     1       9.527  13.192  20.140  0.00  0.00    +0.000 C 
ATOM     21  C   UNL     1       8.105  13.757  20.387  0.00  0.00    +0.000 C 
ENDROOT
BRANCH   1  23
ATOM     22  C   UNL     1       7.772  12.830  17.012  0.00  0.00    +0.000 C 
ATOM     23  C   UNL     1       8.634  12.607  17.818  0.00  0.00    +0.000 C 
ENDBRANCH   1  23
BRANCH   1  24
ATOM     24  O   UNL     1      10.929  12.600  18.159  0.00  0.00    +0.000 OA
ATOM     25  H   UNL     1      11.592  11.980  18.519  0.00  0.00    +0.000 HD
ENDBRANCH   1  24
TORSDOF 2
ENDMDL
MODEL 5
REMARK VINA RESULT:      -5.6      8.963     11.598
REMARK  Name = 
REMARK  2 active torsions:
REMARK  status: ('A' for Active; 'I' for Inactive)
REMARK    1  A    between atoms: C_2  and  C_3
REMARK    2  A    between atoms: C_3  and  O_4
REMARK                            x       y       z     vdW  Elec       q    Type
REMARK                         _______ _______ _______ _____ _____    ______ ____
ROOT
ATOM      1  C   UNL     1       9.839  14.842  18.229  0.00  0.00    +0.000 C 
ATOM      2  C   UNL     1       8.884  16.018  17.946  0.00  0.00    +0.000 C 
ATOM      3  C   UNL     1       7.769  15.967  18.973  0.00  0.00    +0.000 C 
ATOM      4  C   UNL     1       7.791  14.575  19.593  0.00  0.00    +0.000 C 
ATOM      5  C   UNL     1       7.216  14.517  21.048  0.00  0.00    +0.000 C 
ATOM      6  C   UNL     1       7.406  15.759  21.972  0.00  0.00    +0.000 C 
ATOM      7  C   UNL     1       6.870  15.586  23.399  0.00  0.00    +0.000 C 
ATOM      8  C   UNL     1       7.097  14.227  24.014  0.00  0.00    +0.000 C 
ATOM      9  C   UNL     1       7.322  14.065  25.326  0.00  0.00    +0.000 C 
ATOM     10  C   UNL     1       7.192  12.714  25.931  0.00  0.00    +0.000 C 
ATOM     11  O   UNL     1       7.560  12.519  27.085  0.00  0.00    +0.000 OA
ATOM     12  C   UNL     1       6.459  11.672  25.119  0.00  0.00    +0.000 C 
ATOM     13  C   UNL     1       6.992  11.675  23.693  0.00  0.00    +0.000 C 
ATOM     14  C   UNL     1       6.899  13.070  23.061  0.00  0.00    +0.000 C 
ATOM     15  C   UNL     1       7.739  13.240  21.759  0.00  0.00    +0.000 C 
ATOM     16  C   UNL     1       9.326  13.284  21.842  0.00  0.00    +0.000 C 
ATOM     17  C   UNL     1      10.002  11.925  21.518  0.00  0.00    +0.000 C 
ATOM     18  C   UNL     1      10.212  11.693  20.007  0.00  0.00    +0.000 C 
ATOM     19  C   UNL     1       9.209  12.468  19.154  0.00  0.00    +0.000 C 
ATOM     20  C   UNL     1       9.247  14.022  19.433  0.00  0.00    +0.000 C 
ATOM     21  C   UNL     1       9.947  14.255  20.796  0.00  0.00    +0.000 C 
ENDROOT
BRANCH   1  23
ATOM     22  C   UNL     1      12.333  15.733  18.643  0.00  0.00    +0.000 C 
ATOM     23  C   UNL     1      11.214  15.336  18.467  0.00  0.00    +0.000 C 
ENDBRANCH   1  23
BRANCH   1  24
ATOM     24  O   UNL     1       9.897  14.086  17.022  0.00  0.00    +0.000 OA
ATOM     25  H   UNL     1       9.113  14.316  16.487  0.00  0.00    +0.000 HD
ENDBRANCH   1  24
TORSDOF 2
ENDMDL
MODEL 6
REMARK VINA RESULT:      -5.6      9.507     12.693
REMARK  Name = 
REMARK  2 active torsions:
REMARK  status: ('A' for Active; 'I' for Inactive)
REMARK    1  A    between atoms: C_2  and  C_3
REMARK    2  A    between atoms: C_3  and  O_4
REMARK                            x       y       z     vdW  Elec       q    Type
REMARK                         _______ _______ _______ _____ _____    ______ ____
ROOT
ATOM      1  C   UNL     1       2.195  16.780  18.422  0.00  0.00    +0.000 C 
ATOM      2  C   UNL     1       2.935  15.604  17.757  0.00  0.00    +0.000 C 
ATOM      3  C   UNL     1       2.302  14.318  18.255  0.00  0.00    +0.000 C 
ATOM      4  C   UNL     1       1.495  14.665  19.500  0.00  0.00    +0.000 C 
ATOM      5  C   UNL     1       0.294  13.698  19.771  0.00  0.00    +0.000 C 
ATOM      6  C   UNL     1      -0.439  13.064  18.549  0.00  0.00    +0.000 C 
ATOM      7  C   UNL     1      -1.643  12.184  18.909  0.00  0.00    +0.000 C 
ATOM      8  C   UNL     1      -2.501  12.696  20.040  0.00  0.00    +0.000 C 
ATOM      9  C   UNL     1      -3.829  12.503  20.073  0.00  0.00    +0.000 C 
ATOM     10  C   UNL     1      -4.568  12.709  21.346  0.00  0.00    +0.000 C 
ATOM     11  O   UNL     1      -5.795  12.705  21.351  0.00  0.00    +0.000 OA
ATOM     12  C   UNL     1      -3.744  12.764  22.611  0.00  0.00    +0.000 C 
ATOM     13  C   UNL     1      -2.566  13.706  22.406  0.00  0.00    +0.000 C 
ATOM     14  C   UNL     1      -1.726  13.301  21.188  0.00  0.00    +0.000 C 
ATOM     15  C   UNL     1      -0.732  14.399  20.702  0.00  0.00    +0.000 C 
ATOM     16  C   UNL     1      -1.287  15.712  19.998  0.00  0.00    +0.000 C 
ATOM     17  C   UNL     1      -1.400  16.929  20.954  0.00  0.00    +0.000 C 
ATOM     18  C   UNL     1      -0.079  17.715  21.100  0.00  0.00    +0.000 C 
ATOM     19  C   UNL     1       1.148  16.847  20.828  0.00  0.00    +0.000 C 
ATOM     20  C   UNL     1       1.116  16.181  19.397  0.00  0.00    +0.000 C 
ATOM     21  C   UNL     1      -0.342  16.224  18.871  0.00  0.00    +0.000 C 
ENDROOT
BRANCH   1  23
ATOM     22  C   UNL     1       1.155  18.417  16.571  0.00  0.00    +0.000 C 
ATOM     23  C   UNL     1       1.630  17.685  17.395  0.00  0.00    +0.000 C 
ENDBRANCH   1  23
BRANCH   1  24
ATOM     24  O   UNL     1       3.194  17.536  19.103  0.00  0.00    +0.000 OA
ATOM     25  H   UNL     1       2.787  17.916  19.905  0.00  0.00    +0.000 HD
ENDBRANCH   1  24
TORSDOF 2
ENDMDL
MODEL 7
REMARK VINA RESULT:      -5.4      6.501      9.411
REMARK  Name = 
REMARK  2 active torsions:
REMARK  status: ('A' for Active; 'I' for Inactive)
REMARK    1  A    between atoms: C_2  and  C_3
REMARK    2  A    between atoms: C_3  and  O_4
REMARK                            x       y       z     vdW  Elec       q    Type
REMARK                         _______ _______ _______ _____ _____    ______ ____
ROOT
ATOM      1  C   UNL     1      -0.927  14.882  20.813  0.00  0.00    +0.000 C 
ATOM      2  C   UNL     1      -2.212  14.427  21.530  0.00  0.00    +0.000 C 
ATOM      3  C   UNL     1      -2.377  12.939  21.284  0.00  0.00    +0.000 C 
ATOM      4  C   UNL     1      -1.475  12.573  20.111  0.00  0.00    +0.000 C 
ATOM      5  C   UNL     1      -0.997  11.082  20.116  0.00  0.00    +0.000 C 
ATOM      6  C   UNL     1      -0.772  10.378  21.490  0.00  0.00    +0.000 C 
ATOM      7  C   UNL     1      -0.241   8.942  21.396  0.00  0.00    +0.000 C 
ATOM      8  C   UNL     1       0.791   8.705  20.321  0.00  0.00    +0.000 C 
ATOM      9  C   UNL     1       1.793   7.826  20.475  0.00  0.00    +0.000 C 
ATOM     10  C   UNL     1       2.562   7.375  19.286  0.00  0.00    +0.000 C 
ATOM     11  O   UNL     1       3.584   6.711  19.430  0.00  0.00    +0.000 OA
ATOM     12  C   UNL     1       1.944   7.642  17.934  0.00  0.00    +0.000 C 
ATOM     13  C   UNL     1       1.473   9.089  17.870  0.00  0.00    +0.000 C 
ATOM     14  C   UNL     1       0.512   9.420  19.019  0.00  0.00    +0.000 C 
ATOM     15  C   UNL     1       0.273  10.945  19.234  0.00  0.00    +0.000 C 
ATOM     16  C   UNL     1       1.437  11.852  19.825  0.00  0.00    +0.000 C 
ATOM     17  C   UNL     1       2.231  12.628  18.739  0.00  0.00    +0.000 C 
ATOM     18  C   UNL     1       1.567  13.960  18.334  0.00  0.00    +0.000 C 
ATOM     19  C   UNL     1       0.057  13.953  18.564  0.00  0.00    +0.000 C 
ATOM     20  C   UNL     1      -0.327  13.637  20.063  0.00  0.00    +0.000 C 
ATOM     21  C   UNL     1       0.896  12.980  20.752  0.00  0.00    +0.000 C 
ENDROOT
BRANCH   1  23
ATOM     22  C   UNL     1       0.763  16.022  22.555  0.00  0.00    +0.000 C 
ATOM     23  C   UNL     1       0.011  15.503  21.775  0.00  0.00    +0.000 C 
ENDBRANCH   1  23
BRANCH   1  24
ATOM     24  O   UNL     1      -1.324  15.924  19.924  0.00  0.00    +0.000 OA
ATOM     25  H   UNL     1      -2.300  15.951  19.912  0.00  0.00    +0.000 HD
ENDBRANCH   1  24
TORSDOF 2
ENDMDL
MODEL 8
REMARK VINA RESULT:      -5.4      8.652     11.398
REMARK  Name = 
REMARK  2 active torsions:
REMARK  status: ('A' for Active; 'I' for Inactive)
REMARK    1  A    between atoms: C_2  and  C_3
REMARK    2  A    between atoms: C_3  and  O_4
REMARK                            x       y       z     vdW  Elec       q    Type
REMARK                         _______ _______ _______ _____ _____    ______ ____
ROOT
ATOM      1  C   UNL     1      -2.340  15.807  23.709  0.00  0.00    +0.000 C 
ATOM      2  C   UNL     1      -3.012  14.934  24.785  0.00  0.00    +0.000 C 
ATOM      3  C   UNL     1      -3.071  13.512  24.258  0.00  0.00    +0.000 C 
ATOM      4  C   UNL     1      -2.843  13.580  22.753  0.00  0.00    +0.000 C 
ATOM      5  C   UNL     1      -2.227  12.276  22.143  0.00  0.00    +0.000 C 
ATOM      6  C   UNL     1      -1.246  11.437  23.018  0.00  0.00    +0.000 C 
ATOM      7  C   UNL     1      -0.643  10.215  22.315  0.00  0.00    +0.000 C 
ATOM      8  C   UNL     1      -0.271  10.421  20.867  0.00  0.00    +0.000 C 
ATOM      9  C   UNL     1       0.782   9.809  20.305  0.00  0.00    +0.000 C 
ATOM     10  C   UNL     1       0.900   9.765  18.824  0.00  0.00    +0.000 C 
ATOM     11  O   UNL     1       1.935   9.364  18.302  0.00  0.00    +0.000 OA
ATOM     12  C   UNL     1      -0.346  10.085  18.032  0.00  0.00    +0.000 C 
ATOM     13  C   UNL     1      -0.979  11.357  18.577  0.00  0.00    +0.000 C 
ATOM     14  C   UNL     1      -1.264  11.246  20.080  0.00  0.00    +0.000 C 
ATOM     15  C   UNL     1      -1.570  12.607  20.776  0.00  0.00    +0.000 C 
ATOM     16  C   UNL     1      -0.405  13.668  20.983  0.00  0.00    +0.000 C 
ATOM     17  C   UNL     1      -0.383  14.784  19.904  0.00  0.00    +0.000 C 
ATOM     18  C   UNL     1      -1.337  15.955  20.218  0.00  0.00    +0.000 C 
ATOM     19  C   UNL     1      -2.507  15.532  21.103  0.00  0.00    +0.000 C 
ATOM     20  C   UNL     1      -2.035  14.890  22.467  0.00  0.00    +0.000 C 
ATOM     21  C   UNL     1      -0.555  14.458  22.316  0.00  0.00    +0.000 C 
ENDROOT
BRANCH   1  23
ATOM     22  C   UNL     1      -0.178  17.028  24.719  0.00  0.00    +0.000 C 
ATOM     23  C   UNL     1      -1.141  16.478  24.259  0.00  0.00    +0.000 C 
ENDBRANCH   1  23
BRANCH   1  24
ATOM     24  O   UNL     1      -3.270  16.846  23.412  0.00  0.00    +0.000 OA
ATOM     25  H   UNL     1      -4.154  16.439  23.321  0.00  0.00    +0.000 HD
ENDBRANCH   1  24
TORSDOF 2
ENDMDL
MODEL 9
REMARK VINA RESULT:      -5.4     11.914     14.955
REMARK  Name = 
REMARK  2 active torsions:
REMARK  status: ('A' for Active; 'I' for Inactive)
REMARK    1  A    between atoms: C_2  and  C_3
REMARK    2  A    between atoms: C_3  and  O_4
REMARK                            x       y       z     vdW  Elec       q    Type
REMARK                         _______ _______ _______ _____ _____    ______ ____
ROOT
ATOM      1  C   UNL     1      -4.349  13.278  23.983  0.00  0.00    +0.000 C 
ATOM      2  C   UNL     1      -5.535  12.367  24.355  0.00  0.00    +0.000 C 
ATOM      3  C   UNL     1      -6.699  12.733  23.454  0.00  0.00    +0.000 C 
ATOM      4  C   UNL     1      -6.390  14.098  22.849  0.00  0.00    +0.000 C 
ATOM      5  C   UNL     1      -7.075  14.350  21.464  0.00  0.00    +0.000 C 
ATOM      6  C   UNL     1      -7.298  13.135  20.512  0.00  0.00    +0.000 C 
ATOM      7  C   UNL     1      -7.915  13.489  19.153  0.00  0.00    +0.000 C 
ATOM      8  C   UNL     1      -7.416  14.770  18.532  0.00  0.00    +0.000 C 
ATOM      9  C   UNL     1      -7.290  14.919  17.204  0.00  0.00    +0.000 C 
ATOM     10  C   UNL     1      -7.137  16.282  16.631  0.00  0.00    +0.000 C 
ATOM     11  O   UNL     1      -6.850  16.421  15.446  0.00  0.00    +0.000 OA
ATOM     12  C   UNL     1      -7.497  17.443  17.527  0.00  0.00    +0.000 C 
ATOM     13  C   UNL     1      -6.842  17.254  18.888  0.00  0.00    +0.000 C 
ATOM     14  C   UNL     1      -7.219  15.904  19.512  0.00  0.00    +0.000 C 
ATOM     15  C   UNL     1      -6.321  15.482  20.715  0.00  0.00    +0.000 C 
ATOM     16  C   UNL     1      -4.814  15.047  20.462  0.00  0.00    +0.000 C 
ATOM     17  C   UNL     1      -3.788  16.182  20.726  0.00  0.00    +0.000 C 
ATOM     18  C   UNL     1      -3.375  16.297  22.209  0.00  0.00    +0.000 C 
ATOM     19  C   UNL     1      -4.449  15.766  23.155  0.00  0.00    +0.000 C 
ATOM     20  C   UNL     1      -4.833  14.264  22.858  0.00  0.00    +0.000 C 
ATOM     21  C   UNL     1      -4.356  13.913  21.425  0.00  0.00    +0.000 C 
ENDROOT
BRANCH   1  23
ATOM     22  C   UNL     1      -2.210  11.821  23.281  0.00  0.00    +0.000 C 
ATOM     23  C   UNL     1      -3.173  12.465  23.595  0.00  0.00    +0.000 C 
ENDBRANCH   1  23
BRANCH   1  24
ATOM     24  O   UNL     1      -3.980  13.950  25.185  0.00  0.00    +0.000 OA
ATOM     25  H   UNL     1      -3.317  13.400  25.645  0.00  0.00    +0.000 HD
ENDBRANCH   1  24
TORSDOF 2
ENDMDL
