MODEL 1
REMARK VINA RESULT:      -6.3      0.000      0.000
REMARK  Name = 
REMARK  11 active torsions:
REMARK  status: ('A' for Active; 'I' for Inactive)
REMARK    1  A    between atoms: C_1  and  N_2
REMARK    2  A    between atoms: N_2  and  C_3
REMARK    3  A    between atoms: N_2  and  C_4
REMARK    4  A    between atoms: C_4  and  C_5
REMARK    5  A    between atoms: C_5  and  C_6
REMARK    6  A    between atoms: C_6  and  N_7
REMARK    7  A    between atoms: N_7  and  C_8
REMARK    8  A    between atoms: C_8  and  C_9
REMARK    9  A    between atoms: C_9  and  C_10
REMARK   10  A    between atoms: C_10  and  N_11
REMARK   11  A    between atoms: N_11  and  C_12
REMARK                            x       y       z     vdW  Elec       q    Type
REMARK                         _______ _______ _______ _____ _____    ______ ____
ROOT
ATOM      1  N   UNL     1       5.008   3.682  18.127  0.00  0.00    +0.000 N 
ATOM      2  H   UNL     1       4.178   3.421  17.610  0.00  0.00    +0.000 HD
ENDROOT
BRANCH   1   3
ATOM      3  C   UNL     1       5.887   4.574  17.529  0.00  0.00    +0.000 A 
ATOM      4  C   UNL     1       6.510   5.553  18.203  0.00  0.00    +0.000 A 
ATOM      5  C   UNL     1       7.450   6.509  17.615  0.00  0.00    +0.000 A 
ATOM      6  O   UNL     1       7.996   7.362  18.308  0.00  0.00    +0.000 OA
ATOM      7  O   UNL     1       7.682   6.404  16.258  0.00  0.00    +0.000 OA
ATOM      8  C   UNL     1       7.045   5.401  15.502  0.00  0.00    +0.000 A 
ATOM      9  C   UNL     1       7.354   5.394  14.139  0.00  0.00    +0.000 A 
ATOM     10  C   UNL     1       6.775   4.438  13.315  0.00  0.00    +0.000 A 
ATOM     11  C   UNL     1       5.897   3.503  13.857  0.00  0.00    +0.000 A 
ATOM     12  C   UNL     1       5.593   3.524  15.225  0.00  0.00    +0.000 A 
ATOM     13  C   UNL     1       6.165   4.479  16.079  0.00  0.00    +0.000 A 
ENDBRANCH   1   3
BRANCH   1  14
ATOM     14  C   UNL     1       5.024   3.328  19.536  0.00  0.00    +0.000 C 
BRANCH  14  15
ATOM     15  C   UNL     1       4.182   2.093  19.837  0.00  0.00    +0.000 C 
BRANCH  15  16
ATOM     16  C   UNL     1       3.333   1.689  18.624  0.00  0.00    +0.000 C 
BRANCH  16  17
ATOM     17  N   UNL     1       1.904   1.755  18.934  0.00  0.00    +0.000 NA
ATOM     18  H   UNL     1       1.424   2.361  18.270  0.00  0.00    +0.000 HD
BRANCH  17  19
ATOM     19  C   UNL     1       1.670   2.308  20.270  0.00  0.00    +0.000 C 
BRANCH  19  20
ATOM     20  C   UNL     1       0.809   3.566  20.125  0.00  0.00    +0.000 C 
BRANCH  20  21
ATOM     21  C   UNL     1       1.636   4.852  20.232  0.00  0.00    +0.000 C 
BRANCH  21  23
ATOM     22  C   UNL     1       1.602   4.928  17.794  0.00  0.00    +0.000 C 
ATOM     23  N   UNL     1       2.379   5.193  19.007  0.00  0.00    +0.000 NA
ATOM     24  C   UNL     1       2.779   6.602  19.042  0.00  0.00    +0.000 C 
ENDBRANCH  21  23
ENDBRANCH  20  21
ENDBRANCH  19  20
ENDBRANCH  17  19
ENDBRANCH  16  17
ENDBRANCH  15  16
ENDBRANCH  14  15
ENDBRANCH   1  14
TORSDOF 9
ENDMDL
MODEL 2
REMARK VINA RESULT:      -6.2      1.596      3.080
REMARK  Name = 
REMARK  11 active torsions:
REMARK  status: ('A' for Active; 'I' for Inactive)
REMARK    1  A    between atoms: C_1  and  N_2
REMARK    2  A    between atoms: N_2  and  C_3
REMARK    3  A    between atoms: N_2  and  C_4
REMARK    4  A    between atoms: C_4  and  C_5
REMARK    5  A    between atoms: C_5  and  C_6
REMARK    6  A    between atoms: C_6  and  N_7
REMARK    7  A    between atoms: N_7  and  C_8
REMARK    8  A    between atoms: C_8  and  C_9
REMARK    9  A    between atoms: C_9  and  C_10
REMARK   10  A    between atoms: C_10  and  N_11
REMARK   11  A    between atoms: N_11  and  C_12
REMARK                            x       y       z     vdW  Elec       q    Type
REMARK                         _______ _______ _______ _____ _____    ______ ____
ROOT
ATOM      1  N   UNL     1       4.615   2.871  18.305  0.00  0.00    +0.000 N 
ATOM      2  H   UNL     1       5.060   2.795  19.211  0.00  0.00    +0.000 HD
ENDROOT
BRANCH   1   3
ATOM      3  C   UNL     1       5.184   3.730  17.376  0.00  0.00    +0.000 A 
ATOM      4  C   UNL     1       4.945   3.647  16.057  0.00  0.00    +0.000 A 
ATOM      5  C   UNL     1       5.516   4.535  15.044  0.00  0.00    +0.000 A 
ATOM      6  O   UNL     1       5.227   4.405  13.859  0.00  0.00    +0.000 OA
ATOM      7  O   UNL     1       6.389   5.510  15.487  0.00  0.00    +0.000 OA
ATOM      8  C   UNL     1       6.682   5.633  16.859  0.00  0.00    +0.000 A 
ATOM      9  C   UNL     1       7.580   6.652  17.188  0.00  0.00    +0.000 A 
ATOM     10  C   UNL     1       7.926   6.850  18.518  0.00  0.00    +0.000 A 
ATOM     11  C   UNL     1       7.376   6.032  19.502  0.00  0.00    +0.000 A 
ATOM     12  C   UNL     1       6.480   5.011  19.157  0.00  0.00    +0.000 A 
ATOM     13  C   UNL     1       6.113   4.791  17.821  0.00  0.00    +0.000 A 
ENDBRANCH   1   3
BRANCH   1  14
ATOM     14  C   UNL     1       3.623   1.856  17.992  0.00  0.00    +0.000 C 
BRANCH  14  15
ATOM     15  C   UNL     1       2.247   2.451  17.717  0.00  0.00    +0.000 C 
BRANCH  15  16
ATOM     16  C   UNL     1       1.322   2.301  18.932  0.00  0.00    +0.000 C 
BRANCH  16  17
ATOM     17  N   UNL     1       2.072   2.415  20.184  0.00  0.00    +0.000 NA
ATOM     18  H   UNL     1       2.171   1.501  20.624  0.00  0.00    +0.000 HD
BRANCH  17  19
ATOM     19  C   UNL     1       1.383   3.282  21.144  0.00  0.00    +0.000 C 
BRANCH  19  20
ATOM     20  C   UNL     1       1.406   4.713  20.600  0.00  0.00    +0.000 C 
BRANCH  20  21
ATOM     21  C   UNL     1       2.830   5.209  20.327  0.00  0.00    +0.000 C 
BRANCH  21  23
ATOM     22  C   UNL     1       2.508   6.134  18.092  0.00  0.00    +0.000 C 
ATOM     23  N   UNL     1       2.896   6.410  19.477  0.00  0.00    +0.000 NA
ATOM     24  C   UNL     1       2.040   7.461  20.033  0.00  0.00    +0.000 C 
ENDBRANCH  21  23
ENDBRANCH  20  21
ENDBRANCH  19  20
ENDBRANCH  17  19
ENDBRANCH  16  17
ENDBRANCH  15  16
ENDBRANCH  14  15
ENDBRANCH   1  14
TORSDOF 9
ENDMDL
MODEL 3
REMARK VINA RESULT:      -6.0      3.791      7.094
REMARK  Name = 
REMARK  11 active torsions:
REMARK  status: ('A' for Active; 'I' for Inactive)
REMARK    1  A    between atoms: C_1  and  N_2
REMARK    2  A    between atoms: N_2  and  C_3
REMARK    3  A    between atoms: N_2  and  C_4
REMARK    4  A    between atoms: C_4  and  C_5
REMARK    5  A    between atoms: C_5  and  C_6
REMARK    6  A    between atoms: C_6  and  N_7
REMARK    7  A    between atoms: N_7  and  C_8
REMARK    8  A    between atoms: C_8  and  C_9
REMARK    9  A    between atoms: C_9  and  C_10
REMARK   10  A    between atoms: C_10  and  N_11
REMARK   11  A    between atoms: N_11  and  C_12
REMARK                            x       y       z     vdW  Elec       q    Type
REMARK                         _______ _______ _______ _____ _____    ______ ____
ROOT
ATOM      1  N   UNL     1       1.762   6.752  21.168  0.00  0.00    +0.000 N 
ATOM      2  H   UNL     1       1.872   6.798  22.173  0.00  0.00    +0.000 HD
ENDROOT
BRANCH   1   3
ATOM      3  C   UNL     1       1.505   7.937  20.493  0.00  0.00    +0.000 A 
ATOM      4  C   UNL     1       1.936   8.177  19.244  0.00  0.00    +0.000 A 
ATOM      5  C   UNL     1       1.682   9.407  18.492  0.00  0.00    +0.000 A 
ATOM      6  O   UNL     1       2.093   9.538  17.343  0.00  0.00    +0.000 OA
ATOM      7  O   UNL     1       0.969  10.399  19.137  0.00  0.00    +0.000 OA
ATOM      8  C   UNL     1       0.504  10.202  20.451  0.00  0.00    +0.000 A 
ATOM      9  C   UNL     1      -0.201  11.275  21.002  0.00  0.00    +0.000 A 
ATOM     10  C   UNL     1      -0.702  11.170  22.293  0.00  0.00    +0.000 A 
ATOM     11  C   UNL     1      -0.493  10.000  23.019  0.00  0.00    +0.000 A 
ATOM     12  C   UNL     1       0.220   8.932  22.455  0.00  0.00    +0.000 A 
ATOM     13  C   UNL     1       0.735   9.013  21.153  0.00  0.00    +0.000 A 
ENDBRANCH   1   3
BRANCH   1  14
ATOM     14  C   UNL     1       2.181   5.514  20.533  0.00  0.00    +0.000 C 
BRANCH  14  15
ATOM     15  C   UNL     1       1.022   4.549  20.316  0.00  0.00    +0.000 C 
BRANCH  15  16
ATOM     16  C   UNL     1       1.278   3.206  21.012  0.00  0.00    +0.000 C 
BRANCH  16  17
ATOM     17  N   UNL     1       1.792   2.211  20.070  0.00  0.00    +0.000 NA
ATOM     18  H   UNL     1       2.807   2.275  20.003  0.00  0.00    +0.000 HD
BRANCH  17  19
ATOM     19  C   UNL     1       1.258   2.423  18.722  0.00  0.00    +0.000 C 
BRANCH  19  20
ATOM     20  C   UNL     1       2.428   2.419  17.735  0.00  0.00    +0.000 C 
BRANCH  20  21
ATOM     21  C   UNL     1       3.774   2.654  18.429  0.00  0.00    +0.000 C 
BRANCH  21  23
ATOM     22  C   UNL     1       3.705   4.802  17.274  0.00  0.00    +0.000 C 
ATOM     23  N   UNL     1       4.557   3.767  17.863  0.00  0.00    +0.000 NA
ATOM     24  C   UNL     1       5.409   4.354  18.899  0.00  0.00    +0.000 C 
ENDBRANCH  21  23
ENDBRANCH  20  21
ENDBRANCH  19  20
ENDBRANCH  17  19
ENDBRANCH  16  17
ENDBRANCH  15  16
ENDBRANCH  14  15
ENDBRANCH   1  14
TORSDOF 9
ENDMDL
MODEL 4
REMARK VINA RESULT:      -6.0      1.092      1.414
REMARK  Name = 
REMARK  11 active torsions:
REMARK  status: ('A' for Active; 'I' for Inactive)
REMARK    1  A    between atoms: C_1  and  N_2
REMARK    2  A    between atoms: N_2  and  C_3
REMARK    3  A    between atoms: N_2  and  C_4
REMARK    4  A    between atoms: C_4  and  C_5
REMARK    5  A    between atoms: C_5  and  C_6
REMARK    6  A    between atoms: C_6  and  N_7
REMARK    7  A    between atoms: N_7  and  C_8
REMARK    8  A    between atoms: C_8  and  C_9
REMARK    9  A    between atoms: C_9  and  C_10
REMARK   10  A    between atoms: C_10  and  N_11
REMARK   11  A    between atoms: N_11  and  C_12
REMARK                            x       y       z     vdW  Elec       q    Type
REMARK                         _______ _______ _______ _____ _____    ______ ____
ROOT
ATOM      1  N   UNL     1       5.694   3.489  18.775  0.00  0.00    +0.000 N 
ATOM      2  H   UNL     1       5.717   2.556  18.385  0.00  0.00    +0.000 HD
ENDROOT
BRANCH   1   3
ATOM      3  C   UNL     1       6.354   4.495  18.083  0.00  0.00    +0.000 A 
ATOM      4  C   UNL     1       6.971   5.521  18.690  0.00  0.00    +0.000 A 
ATOM      5  C   UNL     1       7.685   6.596  18.000  0.00  0.00    +0.000 A 
ATOM      6  O   UNL     1       8.243   7.487  18.633  0.00  0.00    +0.000 OA
ATOM      7  O   UNL     1       7.691   6.558  16.620  0.00  0.00    +0.000 OA
ATOM      8  C   UNL     1       7.049   5.510  15.933  0.00  0.00    +0.000 A 
ATOM      9  C   UNL     1       7.119   5.577  14.539  0.00  0.00    +0.000 A 
ATOM     10  C   UNL     1       6.517   4.584  13.778  0.00  0.00    +0.000 A 
ATOM     11  C   UNL     1       5.853   3.538  14.414  0.00  0.00    +0.000 A 
ATOM     12  C   UNL     1       5.787   3.484  15.813  0.00  0.00    +0.000 A 
ATOM     13  C   UNL     1       6.388   4.475  16.604  0.00  0.00    +0.000 A 
ENDBRANCH   1   3
BRANCH   1  14
ATOM     14  C   UNL     1       4.731   3.715  19.840  0.00  0.00    +0.000 C 
BRANCH  14  15
ATOM     15  C   UNL     1       3.789   2.534  20.035  0.00  0.00    +0.000 C 
BRANCH  15  16
ATOM     16  C   UNL     1       3.567   1.776  18.719  0.00  0.00    +0.000 C 
BRANCH  16  17
ATOM     17  N   UNL     1       2.310   2.174  18.084  0.00  0.00    +0.000 NA
ATOM     18  H   UNL     1       1.958   1.425  17.491  0.00  0.00    +0.000 HD
BRANCH  17  19
ATOM     19  C   UNL     1       2.490   3.352  17.231  0.00  0.00    +0.000 C 
BRANCH  19  20
ATOM     20  C   UNL     1       1.513   4.435  17.695  0.00  0.00    +0.000 C 
BRANCH  20  21
ATOM     21  C   UNL     1       2.159   5.418  18.677  0.00  0.00    +0.000 C 
BRANCH  21  23
ATOM     22  C   UNL     1       2.146   7.816  19.126  0.00  0.00    +0.000 C 
ATOM     23  N   UNL     1       2.369   6.768  18.128  0.00  0.00    +0.000 NA
ATOM     24  C   UNL     1       3.725   6.880  17.585  0.00  0.00    +0.000 C 
ENDBRANCH  21  23
ENDBRANCH  20  21
ENDBRANCH  19  20
ENDBRANCH  17  19
ENDBRANCH  16  17
ENDBRANCH  15  16
ENDBRANCH  14  15
ENDBRANCH   1  14
TORSDOF 9
ENDMDL
MODEL 5
REMARK VINA RESULT:      -5.9      4.390      6.848
REMARK  Name = 
REMARK  11 active torsions:
REMARK  status: ('A' for Active; 'I' for Inactive)
REMARK    1  A    between atoms: C_1  and  N_2
REMARK    2  A    between atoms: N_2  and  C_3
REMARK    3  A    between atoms: N_2  and  C_4
REMARK    4  A    between atoms: C_4  and  C_5
REMARK    5  A    between atoms: C_5  and  C_6
REMARK    6  A    between atoms: C_6  and  N_7
REMARK    7  A    between atoms: N_7  and  C_8
REMARK    8  A    between atoms: C_8  and  C_9
REMARK    9  A    between atoms: C_9  and  C_10
REMARK   10  A    between atoms: C_10  and  N_11
REMARK   11  A    between atoms: N_11  and  C_12
REMARK                            x       y       z     vdW  Elec       q    Type
REMARK                         _______ _______ _______ _____ _____    ______ ____
ROOT
ATOM      1  N   UNL     1       2.433   6.479  17.907  0.00  0.00    +0.000 N 
ATOM      2  H   UNL     1       1.785   6.175  17.191  0.00  0.00    +0.000 HD
ENDROOT
BRANCH   1   3
ATOM      3  C   UNL     1       3.285   5.530  18.452  0.00  0.00    +0.000 A 
ATOM      4  C   UNL     1       4.592   5.460  18.155  0.00  0.00    +0.000 A 
ATOM      5  C   UNL     1       5.528   4.483  18.713  0.00  0.00    +0.000 A 
ATOM      6  O   UNL     1       6.715   4.502  18.406  0.00  0.00    +0.000 OA
ATOM      7  O   UNL     1       5.008   3.548  19.587  0.00  0.00    +0.000 OA
ATOM      8  C   UNL     1       3.642   3.570  19.924  0.00  0.00    +0.000 A 
ATOM      9  C   UNL     1       3.229   2.575  20.814  0.00  0.00    +0.000 A 
ATOM     10  C   UNL     1       1.899   2.520  21.206  0.00  0.00    +0.000 A 
ATOM     11  C   UNL     1       0.995   3.455  20.707  0.00  0.00    +0.000 A 
ATOM     12  C   UNL     1       1.421   4.446  19.812  0.00  0.00    +0.000 A 
ATOM     13  C   UNL     1       2.761   4.523  19.401  0.00  0.00    +0.000 A 
ENDBRANCH   1   3
BRANCH   1  14
ATOM     14  C   UNL     1       2.594   7.916  18.055  0.00  0.00    +0.000 C 
BRANCH  14  15
ATOM     15  C   UNL     1       1.765   8.481  19.202  0.00  0.00    +0.000 C 
BRANCH  15  16
ATOM     16  C   UNL     1       0.999   9.738  18.768  0.00  0.00    +0.000 C 
BRANCH  16  17
ATOM     17  N   UNL     1       0.072  10.178  19.811  0.00  0.00    +0.000 NA
ATOM     18  H   UNL     1      -0.102   9.424  20.474  0.00  0.00    +0.000 HD
BRANCH  17  19
ATOM     19  C   UNL     1      -1.225  10.564  19.249  0.00  0.00    +0.000 C 
BRANCH  19  20
ATOM     20  C   UNL     1      -1.237  10.186  17.766  0.00  0.00    +0.000 C 
BRANCH  20  21
ATOM     21  C   UNL     1      -2.087  11.147  16.927  0.00  0.00    +0.000 C 
BRANCH  21  23
ATOM     22  C   UNL     1      -4.515  11.357  16.832  0.00  0.00    +0.000 C 
ATOM     23  N   UNL     1      -3.348  10.565  16.438  0.00  0.00    +0.000 NA
ATOM     24  C   UNL     1      -3.305  10.436  14.980  0.00  0.00    +0.000 C 
ENDBRANCH  21  23
ENDBRANCH  20  21
ENDBRANCH  19  20
ENDBRANCH  17  19
ENDBRANCH  16  17
ENDBRANCH  15  16
ENDBRANCH  14  15
ENDBRANCH   1  14
TORSDOF 9
ENDMDL
MODEL 6
REMARK VINA RESULT:      -5.9      1.062      1.307
REMARK  Name = 
REMARK  11 active torsions:
REMARK  status: ('A' for Active; 'I' for Inactive)
REMARK    1  A    between atoms: C_1  and  N_2
REMARK    2  A    between atoms: N_2  and  C_3
REMARK    3  A    between atoms: N_2  and  C_4
REMARK    4  A    between atoms: C_4  and  C_5
REMARK    5  A    between atoms: C_5  and  C_6
REMARK    6  A    between atoms: C_6  and  N_7
REMARK    7  A    between atoms: N_7  and  C_8
REMARK    8  A    between atoms: C_8  and  C_9
REMARK    9  A    between atoms: C_9  and  C_10
REMARK   10  A    between atoms: C_10  and  N_11
REMARK   11  A    between atoms: N_11  and  C_12
REMARK                            x       y       z     vdW  Elec       q    Type
REMARK                         _______ _______ _______ _____ _____    ______ ____
ROOT
ATOM      1  N   UNL     1       5.855   3.641  18.837  0.00  0.00    +0.000 N 
ATOM      2  H   UNL     1       6.359   2.769  18.945  0.00  0.00    +0.000 HD
ENDROOT
BRANCH   1   3
ATOM      3  C   UNL     1       6.444   4.635  18.069  0.00  0.00    +0.000 A 
ATOM      4  C   UNL     1       7.022   5.725  18.598  0.00  0.00    +0.000 A 
ATOM      5  C   UNL     1       7.661   6.793  17.827  0.00  0.00    +0.000 A 
ATOM      6  O   UNL     1       8.188   7.747  18.391  0.00  0.00    +0.000 OA
ATOM      7  O   UNL     1       7.634   6.673  16.452  0.00  0.00    +0.000 OA
ATOM      8  C   UNL     1       7.031   5.555  15.846  0.00  0.00    +0.000 A 
ATOM      9  C   UNL     1       7.061   5.543  14.449  0.00  0.00    +0.000 A 
ATOM     10  C   UNL     1       6.493   4.477  13.764  0.00  0.00    +0.000 A 
ATOM     11  C   UNL     1       5.901   3.438  14.478  0.00  0.00    +0.000 A 
ATOM     12  C   UNL     1       5.874   3.464  15.879  0.00  0.00    +0.000 A 
ATOM     13  C   UNL     1       6.442   4.529  16.594  0.00  0.00    +0.000 A 
ENDBRANCH   1   3
BRANCH   1  14
ATOM     14  C   UNL     1       4.461   3.630  19.246  0.00  0.00    +0.000 C 
BRANCH  14  15
ATOM     15  C   UNL     1       3.655   2.543  18.543  0.00  0.00    +0.000 C 
BRANCH  15  16
ATOM     16  C   UNL     1       2.230   2.456  19.103  0.00  0.00    +0.000 C 
BRANCH  16  17
ATOM     17  N   UNL     1       2.243   2.247  20.552  0.00  0.00    +0.000 NA
ATOM     18  H   UNL     1       2.038   1.274  20.772  0.00  0.00    +0.000 HD
BRANCH  17  19
ATOM     19  C   UNL     1       1.228   3.063  21.221  0.00  0.00    +0.000 C 
BRANCH  19  20
ATOM     20  C   UNL     1       0.980   4.314  20.373  0.00  0.00    +0.000 C 
BRANCH  20  21
ATOM     21  C   UNL     1       1.787   5.520  20.866  0.00  0.00    +0.000 C 
BRANCH  21  23
ATOM     22  C   UNL     1       1.543   7.946  20.804  0.00  0.00    +0.000 C 
ATOM     23  N   UNL     1       1.661   6.716  20.017  0.00  0.00    +0.000 NA
ATOM     24  C   UNL     1       2.811   6.811  19.115  0.00  0.00    +0.000 C 
ENDBRANCH  21  23
ENDBRANCH  20  21
ENDBRANCH  19  20
ENDBRANCH  17  19
ENDBRANCH  16  17
ENDBRANCH  15  16
ENDBRANCH  14  15
ENDBRANCH   1  14
TORSDOF 9
ENDMDL
MODEL 7
REMARK VINA RESULT:      -5.9      4.560      6.964
REMARK  Name = 
REMARK  11 active torsions:
REMARK  status: ('A' for Active; 'I' for Inactive)
REMARK    1  A    between atoms: C_1  and  N_2
REMARK    2  A    between atoms: N_2  and  C_3
REMARK    3  A    between atoms: N_2  and  C_4
REMARK    4  A    between atoms: C_4  and  C_5
REMARK    5  A    between atoms: C_5  and  C_6
REMARK    6  A    between atoms: C_6  and  N_7
REMARK    7  A    between atoms: N_7  and  C_8
REMARK    8  A    between atoms: C_8  and  C_9
REMARK    9  A    between atoms: C_9  and  C_10
REMARK   10  A    between atoms: C_10  and  N_11
REMARK   11  A    between atoms: N_11  and  C_12
REMARK                            x       y       z     vdW  Elec       q    Type
REMARK                         _______ _______ _______ _____ _____    ______ ____
ROOT
ATOM      1  N   UNL     1       1.784   7.028  20.787  0.00  0.00    +0.000 N 
ATOM      2  H   UNL     1       1.162   6.515  21.398  0.00  0.00    +0.000 HD
ENDROOT
BRANCH   1   3
ATOM      3  C   UNL     1       2.305   6.360  19.688  0.00  0.00    +0.000 A 
ATOM      4  C   UNL     1       3.145   6.934  18.811  0.00  0.00    +0.000 A 
ATOM      5  C   UNL     1       3.725   6.266  17.645  0.00  0.00    +0.000 A 
ATOM      6  O   UNL     1       4.504   6.857  16.905  0.00  0.00    +0.000 OA
ATOM      7  O   UNL     1       3.348   4.955  17.424  0.00  0.00    +0.000 OA
ATOM      8  C   UNL     1       2.462   4.310  18.307  0.00  0.00    +0.000 A 
ATOM      9  C   UNL     1       2.151   2.988  17.981  0.00  0.00    +0.000 A 
ATOM     10  C   UNL     1       1.287   2.270  18.797  0.00  0.00    +0.000 A 
ATOM     11  C   UNL     1       0.742   2.878  19.926  0.00  0.00    +0.000 A 
ATOM     12  C   UNL     1       1.059   4.207  20.239  0.00  0.00    +0.000 A 
ATOM     13  C   UNL     1       1.931   4.953  19.431  0.00  0.00    +0.000 A 
ENDBRANCH   1   3
BRANCH   1  14
ATOM     14  C   UNL     1       1.813   8.470  20.966  0.00  0.00    +0.000 C 
BRANCH  14  15
ATOM     15  C   UNL     1       0.641   9.166  20.284  0.00  0.00    +0.000 C 
BRANCH  15  16
ATOM     16  C   UNL     1       1.108   9.989  19.076  0.00  0.00    +0.000 C 
BRANCH  16  17
ATOM     17  N   UNL     1      -0.017  10.345  18.211  0.00  0.00    +0.000 NA
ATOM     18  H   UNL     1       0.091  11.295  17.860  0.00  0.00    +0.000 HD
BRANCH  17  19
ATOM     19  C   UNL     1      -1.288  10.297  18.939  0.00  0.00    +0.000 C 
BRANCH  19  20
ATOM     20  C   UNL     1      -2.395  10.797  18.006  0.00  0.00    +0.000 C 
BRANCH  20  21
ATOM     21  C   UNL     1      -2.234  10.269  16.577  0.00  0.00    +0.000 C 
BRANCH  21  23
ATOM     22  C   UNL     1      -3.342  10.107  14.410  0.00  0.00    +0.000 C 
ATOM     23  N   UNL     1      -3.091  10.942  15.586  0.00  0.00    +0.000 NA
ATOM     24  C   UNL     1      -4.362  11.324  16.205  0.00  0.00    +0.000 C 
ENDBRANCH  21  23
ENDBRANCH  20  21
ENDBRANCH  19  20
ENDBRANCH  17  19
ENDBRANCH  16  17
ENDBRANCH  15  16
ENDBRANCH  14  15
ENDBRANCH   1  14
TORSDOF 9
ENDMDL
MODEL 8
REMARK VINA RESULT:      -5.9      2.734      3.662
REMARK  Name = 
REMARK  11 active torsions:
REMARK  status: ('A' for Active; 'I' for Inactive)
REMARK    1  A    between atoms: C_1  and  N_2
REMARK    2  A    between atoms: N_2  and  C_3
REMARK    3  A    between atoms: N_2  and  C_4
REMARK    4  A    between atoms: C_4  and  C_5
REMARK    5  A    between atoms: C_5  and  C_6
REMARK    6  A    between atoms: C_6  and  N_7
REMARK    7  A    between atoms: N_7  and  C_8
REMARK    8  A    between atoms: C_8  and  C_9
REMARK    9  A    between atoms: C_9  and  C_10
REMARK   10  A    between atoms: C_10  and  N_11
REMARK   11  A    between atoms: N_11  and  C_12
REMARK                            x       y       z     vdW  Elec       q    Type
REMARK                         _______ _______ _______ _____ _____    ______ ____
ROOT
ATOM      1  N   UNL     1       3.674   3.906  18.488  0.00  0.00    +0.000 N 
ATOM      2  H   UNL     1       3.547   2.907  18.592  0.00  0.00    +0.000 HD
ENDROOT
BRANCH   1   3
ATOM      3  C   UNL     1       4.968   4.379  18.325  0.00  0.00    +0.000 A 
ATOM      4  C   UNL     1       5.736   4.783  19.350  0.00  0.00    +0.000 A 
ATOM      5  C   UNL     1       7.107   5.281  19.225  0.00  0.00    +0.000 A 
ATOM      6  O   UNL     1       7.749   5.609  20.217  0.00  0.00    +0.000 OA
ATOM      7  O   UNL     1       7.627   5.364  17.948  0.00  0.00    +0.000 OA
ATOM      8  C   UNL     1       6.860   4.964  16.838  0.00  0.00    +0.000 A 
ATOM      9  C   UNL     1       7.489   5.096  15.598  0.00  0.00    +0.000 A 
ATOM     10  C   UNL     1       6.810   4.723  14.446  0.00  0.00    +0.000 A 
ATOM     11  C   UNL     1       5.513   4.224  14.543  0.00  0.00    +0.000 A 
ATOM     12  C   UNL     1       4.892   4.100  15.793  0.00  0.00    +0.000 A 
ATOM     13  C   UNL     1       5.558   4.470  16.972  0.00  0.00    +0.000 A 
ENDBRANCH   1   3
BRANCH   1  14
ATOM     14  C   UNL     1       2.472   4.679  18.223  0.00  0.00    +0.000 C 
BRANCH  14  15
ATOM     15  C   UNL     1       1.455   4.583  19.354  0.00  0.00    +0.000 C 
BRANCH  15  16
ATOM     16  C   UNL     1       1.908   5.386  20.580  0.00  0.00    +0.000 C 
BRANCH  16  17
ATOM     17  N   UNL     1       2.713   6.544  20.186  0.00  0.00    +0.000 NA
ATOM     18  H   UNL     1       3.375   6.784  20.922  0.00  0.00    +0.000 HD
BRANCH  17  19
ATOM     19  C   UNL     1       1.876   7.725  19.957  0.00  0.00    +0.000 C 
BRANCH  19  20
ATOM     20  C   UNL     1       1.356   8.215  21.311  0.00  0.00    +0.000 C 
BRANCH  20  21
ATOM     21  C   UNL     1      -0.134   8.571  21.266  0.00  0.00    +0.000 C 
BRANCH  21  23
ATOM     22  C   UNL     1      -0.449   9.979  23.233  0.00  0.00    +0.000 C 
ATOM     23  N   UNL     1      -0.446   9.919  21.770  0.00  0.00    +0.000 NA
ATOM     24  C   UNL     1       0.515  10.886  21.235  0.00  0.00    +0.000 C 
ENDBRANCH  21  23
ENDBRANCH  20  21
ENDBRANCH  19  20
ENDBRANCH  17  19
ENDBRANCH  16  17
ENDBRANCH  15  16
ENDBRANCH  14  15
ENDBRANCH   1  14
TORSDOF 9
ENDMDL
MODEL 9
REMARK VINA RESULT:      -5.9      3.989      7.241
REMARK  Name = 
REMARK  11 active torsions:
REMARK  status: ('A' for Active; 'I' for Inactive)
REMARK    1  A    between atoms: C_1  and  N_2
REMARK    2  A    between atoms: N_2  and  C_3
REMARK    3  A    between atoms: N_2  and  C_4
REMARK    4  A    between atoms: C_4  and  C_5
REMARK    5  A    between atoms: C_5  and  C_6
REMARK    6  A    between atoms: C_6  and  N_7
REMARK    7  A    between atoms: N_7  and  C_8
REMARK    8  A    between atoms: C_8  and  C_9
REMARK    9  A    between atoms: C_9  and  C_10
REMARK   10  A    between atoms: C_10  and  N_11
REMARK   11  A    between atoms: N_11  and  C_12
REMARK                            x       y       z     vdW  Elec       q    Type
REMARK                         _______ _______ _______ _____ _____    ______ ____
ROOT
ATOM      1  N   UNL     1       5.613   5.005  17.029  0.00  0.00    +0.000 N 
ATOM      2  H   UNL     1       5.496   4.050  16.714  0.00  0.00    +0.000 HD
ENDROOT
BRANCH   1   3
ATOM      3  C   UNL     1       4.541   5.608  17.671  0.00  0.00    +0.000 A 
ATOM      4  C   UNL     1       4.106   6.842  17.371  0.00  0.00    +0.000 A 
ATOM      5  C   UNL     1       2.976   7.513  18.016  0.00  0.00    +0.000 A 
ATOM      6  O   UNL     1       2.629   8.636  17.666  0.00  0.00    +0.000 OA
ATOM      7  O   UNL     1       2.335   6.825  19.027  0.00  0.00    +0.000 OA
ATOM      8  C   UNL     1       2.757   5.531  19.387  0.00  0.00    +0.000 A 
ATOM      9  C   UNL     1       2.036   4.935  20.425  0.00  0.00    +0.000 A 
ATOM     10  C   UNL     1       2.379   3.657  20.846  0.00  0.00    +0.000 A 
ATOM     11  C   UNL     1       3.436   2.990  20.231  0.00  0.00    +0.000 A 
ATOM     12  C   UNL     1       4.154   3.602  19.194  0.00  0.00    +0.000 A 
ATOM     13  C   UNL     1       3.826   4.892  18.749  0.00  0.00    +0.000 A 
ENDBRANCH   1   3
BRANCH   1  14
ATOM     14  C   UNL     1       6.973   5.515  17.037  0.00  0.00    +0.000 C 
BRANCH  14  15
ATOM     15  C   UNL     1       7.481   5.797  18.446  0.00  0.00    +0.000 C 
BRANCH  15  16
ATOM     16  C   UNL     1       8.145   7.178  18.533  0.00  0.00    +0.000 C 
BRANCH  16  17
ATOM     17  N   UNL     1       7.759   8.022  17.401  0.00  0.00    +0.000 NA
ATOM     18  H   UNL     1       8.361   7.839  16.600  0.00  0.00    +0.000 HD
BRANCH  17  19
ATOM     19  C   UNL     1       7.891   9.445  17.724  0.00  0.00    +0.000 C 
BRANCH  19  20
ATOM     20  C   UNL     1       8.942   9.592  18.827  0.00  0.00    +0.000 C 
BRANCH  20  21
ATOM     21  C   UNL     1       9.725  10.904  18.712  0.00  0.00    +0.000 C 
BRANCH  21  23
ATOM     22  C   UNL     1      10.791  12.761  19.881  0.00  0.00    +0.000 C 
ATOM     23  N   UNL     1      10.259  11.401  19.992  0.00  0.00    +0.000 NA
ATOM     24  C   UNL     1       9.215  11.357  21.018  0.00  0.00    +0.000 C 
ENDBRANCH  21  23
ENDBRANCH  20  21
ENDBRANCH  19  20
ENDBRANCH  17  19
ENDBRANCH  16  17
ENDBRANCH  15  16
ENDBRANCH  14  15
ENDBRANCH   1  14
TORSDOF 9
ENDMDL
