MODEL 1
REMARK VINA RESULT:      -6.8      0.000      0.000
REMARK  Name = 
REMARK  3 active torsions:
REMARK  status: ('A' for Active; 'I' for Inactive)
REMARK    1  A    between atoms: C_2  and  C_3
REMARK    2  A    between atoms: C_3  and  C_4
REMARK    3  A    between atoms: C_4  and  N_5
REMARK                            x       y       z     vdW  Elec       q    Type
REMARK                         _______ _______ _______ _____ _____    ______ ____
ROOT
ATOM      1  O   UNL     1       5.667   6.927  17.527  0.00  0.00    +0.000 OA
ATOM      2  C   UNL     1       5.232   5.798  17.764  0.00  0.00    +0.000 C 
ATOM      3  N   UNL     1       3.882   5.577  17.662  0.00  0.00    +0.000 N 
ATOM      4  C   UNL     1       3.184   4.385  17.882  0.00  0.00    +0.000 A 
ATOM      5  C   UNL     1       1.814   4.460  18.091  0.00  0.00    +0.000 A 
ATOM      6  C   UNL     1       1.126   3.301  18.451  0.00  0.00    +0.000 A 
ATOM      7  C   UNL     1       1.816   2.099  18.560  0.00  0.00    +0.000 A 
ATOM      8  C   UNL     1       3.166   2.105  18.275  0.00  0.00    +0.000 A 
ATOM      9  N   UNL     1       3.846   3.219  17.930  0.00  0.00    +0.000 NA
ATOM     10  H   UNL     1       3.349   6.416  17.484  0.00  0.00    +0.000 HD
ENDROOT
BRANCH   2  11
ATOM     11  C   UNL     1       6.146   4.665  18.168  0.00  0.00    +0.000 C 
BRANCH  11  12
ATOM     12  C   UNL     1       7.393   4.600  17.308  0.00  0.00    +0.000 C 
BRANCH  12  13
ATOM     13  N   UNL     1       7.027   4.532  15.906  0.00  0.00    +0.000 N 
ATOM     14  C   UNL     1       6.198   3.634  15.307  0.00  0.00    +0.000 A 
ATOM     15  N   UNL     1       6.199   3.834  14.010  0.00  0.00    +0.000 NA
ATOM     16  C   UNL     1       7.067   4.879  13.863  0.00  0.00    +0.000 A 
ATOM     17  N   UNL     1       7.599   5.344  14.997  0.00  0.00    +0.000 NA
ENDBRANCH  12  13
ENDBRANCH  11  12
ENDBRANCH   2  11
TORSDOF 3
ENDMDL
MODEL 2
REMARK VINA RESULT:      -6.7      1.402      1.880
REMARK  Name = 
REMARK  3 active torsions:
REMARK  status: ('A' for Active; 'I' for Inactive)
REMARK    1  A    between atoms: C_2  and  C_3
REMARK    2  A    between atoms: C_3  and  C_4
REMARK    3  A    between atoms: C_4  and  N_5
REMARK                            x       y       z     vdW  Elec       q    Type
REMARK                         _______ _______ _______ _____ _____    ______ ____
ROOT
ATOM      1  O   UNL     1       7.273   5.153  19.597  0.00  0.00    +0.000 OA
ATOM      2  C   UNL     1       6.138   5.059  19.123  0.00  0.00    +0.000 C 
ATOM      3  N   UNL     1       5.341   4.018  19.525  0.00  0.00    +0.000 N 
ATOM      4  C   UNL     1       4.034   3.726  19.120  0.00  0.00    +0.000 A 
ATOM      5  C   UNL     1       3.550   2.445  19.350  0.00  0.00    +0.000 A 
ATOM      6  C   UNL     1       2.304   2.095  18.829  0.00  0.00    +0.000 A 
ATOM      7  C   UNL     1       1.566   3.038  18.122  0.00  0.00    +0.000 A 
ATOM      8  C   UNL     1       2.098   4.305  17.993  0.00  0.00    +0.000 A 
ATOM      9  N   UNL     1       3.304   4.658  18.489  0.00  0.00    +0.000 NA
ATOM     10  H   UNL     1       5.814   3.356  20.124  0.00  0.00    +0.000 HD
ENDROOT
BRANCH   2  11
ATOM     11  C   UNL     1       5.616   6.053  18.113  0.00  0.00    +0.000 C 
BRANCH  11  12
ATOM     12  C   UNL     1       6.657   6.411  17.071  0.00  0.00    +0.000 C 
BRANCH  12  13
ATOM     13  N   UNL     1       6.453   5.621  15.872  0.00  0.00    +0.000 N 
ATOM     14  C   UNL     1       5.334   4.939  15.508  0.00  0.00    +0.000 A 
ATOM     15  N   UNL     1       5.570   4.262  14.408  0.00  0.00    +0.000 NA
ATOM     16  C   UNL     1       6.876   4.564  14.140  0.00  0.00    +0.000 A 
ATOM     17  N   UNL     1       7.460   5.395  15.007  0.00  0.00    +0.000 NA
ENDBRANCH  12  13
ENDBRANCH  11  12
ENDBRANCH   2  11
TORSDOF 3
ENDMDL
MODEL 3
REMARK VINA RESULT:      -6.6      1.717      2.336
REMARK  Name = 
REMARK  3 active torsions:
REMARK  status: ('A' for Active; 'I' for Inactive)
REMARK    1  A    between atoms: C_2  and  C_3
REMARK    2  A    between atoms: C_3  and  C_4
REMARK    3  A    between atoms: C_4  and  N_5
REMARK                            x       y       z     vdW  Elec       q    Type
REMARK                         _______ _______ _______ _____ _____    ______ ____
ROOT
ATOM      1  O   UNL     1       8.058   4.381  17.379  0.00  0.00    +0.000 OA
ATOM      2  C   UNL     1       6.826   4.435  17.383  0.00  0.00    +0.000 C 
ATOM      3  N   UNL     1       6.151   3.967  18.482  0.00  0.00    +0.000 N 
ATOM      4  C   UNL     1       4.769   3.935  18.696  0.00  0.00    +0.000 A 
ATOM      5  C   UNL     1       4.282   3.096  19.689  0.00  0.00    +0.000 A 
ATOM      6  C   UNL     1       2.900   2.945  19.821  0.00  0.00    +0.000 A 
ATOM      7  C   UNL     1       2.049   3.657  18.984  0.00  0.00    +0.000 A 
ATOM      8  C   UNL     1       2.620   4.514  18.066  0.00  0.00    +0.000 A 
ATOM      9  N   UNL     1       3.954   4.668  17.923  0.00  0.00    +0.000 NA
ATOM     10  H   UNL     1       6.750   3.527  19.166  0.00  0.00    +0.000 HD
ENDROOT
BRANCH   2  11
ATOM     11  C   UNL     1       6.052   4.991  16.212  0.00  0.00    +0.000 C 
BRANCH  11  12
ATOM     12  C   UNL     1       5.842   3.959  15.121  0.00  0.00    +0.000 C 
BRANCH  12  13
ATOM     13  N   UNL     1       6.554   4.352  13.921  0.00  0.00    +0.000 N 
ATOM     14  C   UNL     1       6.472   3.789  12.685  0.00  0.00    +0.000 A 
ATOM     15  N   UNL     1       7.344   4.356  11.885  0.00  0.00    +0.000 NA
ATOM     16  C   UNL     1       7.953   5.270  12.698  0.00  0.00    +0.000 A 
ATOM     17  N   UNL     1       7.502   5.308  13.955  0.00  0.00    +0.000 NA
ENDBRANCH  12  13
ENDBRANCH  11  12
ENDBRANCH   2  11
TORSDOF 3
ENDMDL
MODEL 4
REMARK VINA RESULT:      -6.6      1.496      1.847
REMARK  Name = 
REMARK  3 active torsions:
REMARK  status: ('A' for Active; 'I' for Inactive)
REMARK    1  A    between atoms: C_2  and  C_3
REMARK    2  A    between atoms: C_3  and  C_4
REMARK    3  A    between atoms: C_4  and  N_5
REMARK                            x       y       z     vdW  Elec       q    Type
REMARK                         _______ _______ _______ _____ _____    ______ ____
ROOT
ATOM      1  O   UNL     1       7.531   4.580  18.514  0.00  0.00    +0.000 OA
ATOM      2  C   UNL     1       6.369   4.379  18.156  0.00  0.00    +0.000 C 
ATOM      3  N   UNL     1       5.484   3.846  19.059  0.00  0.00    +0.000 N 
ATOM      4  C   UNL     1       4.133   3.542  18.866  0.00  0.00    +0.000 A 
ATOM      5  C   UNL     1       3.523   2.679  19.766  0.00  0.00    +0.000 A 
ATOM      6  C   UNL     1       2.218   2.255  19.510  0.00  0.00    +0.000 A 
ATOM      7  C   UNL     1       1.552   2.725  18.384  0.00  0.00    +0.000 A 
ATOM      8  C   UNL     1       2.213   3.627  17.576  0.00  0.00    +0.000 A 
ATOM      9  N   UNL     1       3.476   4.045  17.809  0.00  0.00    +0.000 NA
ATOM     10  H   UNL     1       5.913   3.579  19.934  0.00  0.00    +0.000 HD
ENDROOT
BRANCH   2  11
ATOM     11  C   UNL     1       5.905   4.695  16.754  0.00  0.00    +0.000 C 
BRANCH  11  12
ATOM     12  C   UNL     1       6.977   5.395  15.940  0.00  0.00    +0.000 C 
BRANCH  12  13
ATOM     13  N   UNL     1       6.929   4.945  14.563  0.00  0.00    +0.000 N 
ATOM     14  C   UNL     1       6.163   3.949  14.040  0.00  0.00    +0.000 A 
ATOM     15  N   UNL     1       6.476   3.771  12.778  0.00  0.00    +0.000 NA
ATOM     16  C   UNL     1       7.462   4.694  12.576  0.00  0.00    +0.000 A 
ATOM     17  N   UNL     1       7.774   5.440  13.639  0.00  0.00    +0.000 NA
ENDBRANCH  12  13
ENDBRANCH  11  12
ENDBRANCH   2  11
TORSDOF 3
ENDMDL
MODEL 5
REMARK VINA RESULT:      -6.5      2.440      5.756
REMARK  Name = 
REMARK  3 active torsions:
REMARK  status: ('A' for Active; 'I' for Inactive)
REMARK    1  A    between atoms: C_2  and  C_3
REMARK    2  A    between atoms: C_3  and  C_4
REMARK    3  A    between atoms: C_4  and  N_5
REMARK                            x       y       z     vdW  Elec       q    Type
REMARK                         _______ _______ _______ _____ _____    ______ ____
ROOT
ATOM      1  O   UNL     1       4.026   2.185  19.220  0.00  0.00    +0.000 OA
ATOM      2  C   UNL     1       4.454   3.149  18.580  0.00  0.00    +0.000 C 
ATOM      3  N   UNL     1       5.641   3.720  18.965  0.00  0.00    +0.000 N 
ATOM      4  C   UNL     1       6.302   4.808  18.385  0.00  0.00    +0.000 A 
ATOM      5  C   UNL     1       7.275   5.454  19.134  0.00  0.00    +0.000 A 
ATOM      6  C   UNL     1       7.844   6.624  18.628  0.00  0.00    +0.000 A 
ATOM      7  C   UNL     1       7.449   7.096  17.382  0.00  0.00    +0.000 A 
ATOM      8  C   UNL     1       6.519   6.356  16.679  0.00  0.00    +0.000 A 
ATOM      9  N   UNL     1       5.957   5.225  17.157  0.00  0.00    +0.000 NA
ATOM     10  H   UNL     1       6.015   3.335  19.820  0.00  0.00    +0.000 HD
ENDROOT
BRANCH   2  11
ATOM     11  C   UNL     1       3.701   3.714  17.399  0.00  0.00    +0.000 C 
BRANCH  11  12
ATOM     12  C   UNL     1       2.243   3.978  17.722  0.00  0.00    +0.000 C 
BRANCH  12  13
ATOM     13  N   UNL     1       2.137   5.032  18.712  0.00  0.00    +0.000 N 
ATOM     14  C   UNL     1       2.592   6.311  18.617  0.00  0.00    +0.000 A 
ATOM     15  N   UNL     1       2.399   6.932  19.757  0.00  0.00    +0.000 NA
ATOM     16  C   UNL     1       1.818   5.969  20.534  0.00  0.00    +0.000 A 
ATOM     17  N   UNL     1       1.634   4.788  19.938  0.00  0.00    +0.000 NA
ENDBRANCH  12  13
ENDBRANCH  11  12
ENDBRANCH   2  11
TORSDOF 3
ENDMDL
MODEL 6
REMARK VINA RESULT:      -6.5      2.519      6.021
REMARK  Name = 
REMARK  3 active torsions:
REMARK  status: ('A' for Active; 'I' for Inactive)
REMARK    1  A    between atoms: C_2  and  C_3
REMARK    2  A    between atoms: C_3  and  C_4
REMARK    3  A    between atoms: C_4  and  N_5
REMARK                            x       y       z     vdW  Elec       q    Type
REMARK                         _______ _______ _______ _____ _____    ______ ____
ROOT
ATOM      1  O   UNL     1       3.453   1.597  17.859  0.00  0.00    +0.000 OA
ATOM      2  C   UNL     1       3.696   2.792  17.672  0.00  0.00    +0.000 C 
ATOM      3  N   UNL     1       5.006   3.197  17.621  0.00  0.00    +0.000 N 
ATOM      4  C   UNL     1       5.502   4.489  17.419  0.00  0.00    +0.000 A 
ATOM      5  C   UNL     1       6.819   4.746  17.771  0.00  0.00    +0.000 A 
ATOM      6  C   UNL     1       7.287   6.059  17.709  0.00  0.00    +0.000 A 
ATOM      7  C   UNL     1       6.440   7.069  17.270  0.00  0.00    +0.000 A 
ATOM      8  C   UNL     1       5.164   6.715  16.882  0.00  0.00    +0.000 A 
ATOM      9  N   UNL     1       4.696   5.449  16.940  0.00  0.00    +0.000 NA
ATOM     10  H   UNL     1       5.664   2.463  17.840  0.00  0.00    +0.000 HD
ENDROOT
BRANCH   2  11
ATOM     11  C   UNL     1       2.592   3.809  17.507  0.00  0.00    +0.000 C 
BRANCH  11  12
ATOM     12  C   UNL     1       1.380   3.481  18.356  0.00  0.00    +0.000 C 
BRANCH  12  13
ATOM     13  N   UNL     1       1.736   3.504  19.761  0.00  0.00    +0.000 N 
ATOM     14  C   UNL     1       1.489   2.547  20.697  0.00  0.00    +0.000 A 
ATOM     15  N   UNL     1       1.872   2.976  21.876  0.00  0.00    +0.000 NA
ATOM     16  C   UNL     1       2.348   4.228  21.604  0.00  0.00    +0.000 A 
ATOM     17  N   UNL     1       2.289   4.596  20.322  0.00  0.00    +0.000 NA
ENDBRANCH  12  13
ENDBRANCH  11  12
ENDBRANCH   2  11
TORSDOF 3
ENDMDL
MODEL 7
REMARK VINA RESULT:      -6.4      1.590      2.175
REMARK  Name = 
REMARK  3 active torsions:
REMARK  status: ('A' for Active; 'I' for Inactive)
REMARK    1  A    between atoms: C_2  and  C_3
REMARK    2  A    between atoms: C_3  and  C_4
REMARK    3  A    between atoms: C_4  and  N_5
REMARK                            x       y       z     vdW  Elec       q    Type
REMARK                         _______ _______ _______ _____ _____    ______ ____
ROOT
ATOM      1  O   UNL     1       7.687   4.562  18.119  0.00  0.00    +0.000 OA
ATOM      2  C   UNL     1       6.513   4.334  17.817  0.00  0.00    +0.000 C 
ATOM      3  N   UNL     1       5.666   3.853  18.784  0.00  0.00    +0.000 N 
ATOM      4  C   UNL     1       4.311   3.531  18.660  0.00  0.00    +0.000 A 
ATOM      5  C   UNL     1       3.740   2.723  19.633  0.00  0.00    +0.000 A 
ATOM      6  C   UNL     1       2.430   2.277  19.452  0.00  0.00    +0.000 A 
ATOM      7  C   UNL     1       1.720   2.675  18.326  0.00  0.00    +0.000 A 
ATOM      8  C   UNL     1       2.344   3.529  17.441  0.00  0.00    +0.000 A 
ATOM      9  N   UNL     1       3.612   3.966  17.600  0.00  0.00    +0.000 NA
ATOM     10  H   UNL     1       6.129   3.642  19.656  0.00  0.00    +0.000 HD
ENDROOT
BRANCH   2  11
ATOM     11  C   UNL     1       5.996   4.562  16.416  0.00  0.00    +0.000 C 
BRANCH  11  12
ATOM     12  C   UNL     1       7.040   5.189  15.515  0.00  0.00    +0.000 C 
BRANCH  12  13
ATOM     13  N   UNL     1       6.948   4.629  14.181  0.00  0.00    +0.000 N 
ATOM     14  C   UNL     1       7.628   5.016  13.068  0.00  0.00    +0.000 A 
ATOM     15  N   UNL     1       7.197   4.338  12.031  0.00  0.00    +0.000 NA
ATOM     16  C   UNL     1       6.229   3.539  12.571  0.00  0.00    +0.000 A 
ATOM     17  N   UNL     1       6.040   3.679  13.886  0.00  0.00    +0.000 NA
ENDBRANCH  12  13
ENDBRANCH  11  12
ENDBRANCH   2  11
TORSDOF 3
ENDMDL
MODEL 8
REMARK VINA RESULT:      -6.4      2.537      3.174
REMARK  Name = 
REMARK  3 active torsions:
REMARK  status: ('A' for Active; 'I' for Inactive)
REMARK    1  A    between atoms: C_2  and  C_3
REMARK    2  A    between atoms: C_3  and  C_4
REMARK    3  A    between atoms: C_4  and  N_5
REMARK                            x       y       z     vdW  Elec       q    Type
REMARK                         _______ _______ _______ _____ _____    ______ ____
ROOT
ATOM      1  O   UNL     1       3.039   8.054  18.070  0.00  0.00    +0.000 OA
ATOM      2  C   UNL     1       3.009   6.827  18.184  0.00  0.00    +0.000 C 
ATOM      3  N   UNL     1       2.145   6.271  19.093  0.00  0.00    +0.000 N 
ATOM      4  C   UNL     1       1.950   4.915  19.379  0.00  0.00    +0.000 A 
ATOM      5  C   UNL     1       1.318   4.584  20.570  0.00  0.00    +0.000 A 
ATOM      6  C   UNL     1       1.241   3.240  20.937  0.00  0.00    +0.000 A 
ATOM      7  C   UNL     1       1.767   2.267  20.096  0.00  0.00    +0.000 A 
ATOM      8  C   UNL     1       2.324   2.682  18.903  0.00  0.00    +0.000 A 
ATOM      9  N   UNL     1       2.409   3.978  18.535  0.00  0.00    +0.000 NA
ATOM     10  H   UNL     1       1.665   6.952  19.662  0.00  0.00    +0.000 HD
ENDROOT
BRANCH   2  11
ATOM     11  C   UNL     1       3.903   5.932  17.358  0.00  0.00    +0.000 C 
BRANCH  11  12
ATOM     12  C   UNL     1       5.241   6.580  17.057  0.00  0.00    +0.000 C 
BRANCH  12  13
ATOM     13  N   UNL     1       6.232   6.146  18.022  0.00  0.00    +0.000 N 
ATOM     14  C   UNL     1       6.037   5.364  19.118  0.00  0.00    +0.000 A 
ATOM     15  N   UNL     1       7.155   5.277  19.800  0.00  0.00    +0.000 NA
ATOM     16  C   UNL     1       8.017   6.045  19.070  0.00  0.00    +0.000 A 
ATOM     17  N   UNL     1       7.499   6.597  17.969  0.00  0.00    +0.000 NA
ENDBRANCH  12  13
ENDBRANCH  11  12
ENDBRANCH   2  11
TORSDOF 3
ENDMDL
MODEL 9
REMARK VINA RESULT:      -6.4      1.649      2.159
REMARK  Name = 
REMARK  3 active torsions:
REMARK  status: ('A' for Active; 'I' for Inactive)
REMARK    1  A    between atoms: C_2  and  C_3
REMARK    2  A    between atoms: C_3  and  C_4
REMARK    3  A    between atoms: C_4  and  N_5
REMARK                            x       y       z     vdW  Elec       q    Type
REMARK                         _______ _______ _______ _____ _____    ______ ____
ROOT
ATOM      1  O   UNL     1       6.646   4.819  19.074  0.00  0.00    +0.000 OA
ATOM      2  C   UNL     1       5.456   4.600  18.838  0.00  0.00    +0.000 C 
ATOM      3  N   UNL     1       4.662   4.121  19.849  0.00  0.00    +0.000 N 
ATOM      4  C   UNL     1       3.299   3.808  19.801  0.00  0.00    +0.000 A 
ATOM      5  C   UNL     1       2.779   2.999  20.802  0.00  0.00    +0.000 A 
ATOM      6  C   UNL     1       1.458   2.563  20.693  0.00  0.00    +0.000 A 
ATOM      7  C   UNL     1       0.688   2.970  19.610  0.00  0.00    +0.000 A 
ATOM      8  C   UNL     1       1.267   3.824  18.694  0.00  0.00    +0.000 A 
ATOM      9  N   UNL     1       2.545   4.251  18.783  0.00  0.00    +0.000 NA
ATOM     10  H   UNL     1       5.171   3.903  20.694  0.00  0.00    +0.000 HD
ENDROOT
BRANCH   2  11
ATOM     11  C   UNL     1       4.862   4.837  17.470  0.00  0.00    +0.000 C 
BRANCH  11  12
ATOM     12  C   UNL     1       5.194   3.720  16.500  0.00  0.00    +0.000 C 
BRANCH  12  13
ATOM     13  N   UNL     1       6.102   4.202  15.478  0.00  0.00    +0.000 N 
ATOM     14  C   UNL     1       7.064   5.156  15.604  0.00  0.00    +0.000 A 
ATOM     15  N   UNL     1       7.608   5.389  14.433  0.00  0.00    +0.000 NA
ATOM     16  C   UNL     1       6.925   4.542  13.606  0.00  0.00    +0.000 A 
ATOM     17  N   UNL     1       5.994   3.791  14.200  0.00  0.00    +0.000 NA
ENDBRANCH  12  13
ENDBRANCH  11  12
ENDBRANCH   2  11
TORSDOF 3
ENDMDL
