MODEL 1
REMARK VINA RESULT:      -7.3      0.000      0.000
REMARK  Name = 
REMARK  6 active torsions:
REMARK  status: ('A' for Active; 'I' for Inactive)
REMARK    1  A    between atoms: N_6  and  C_7
REMARK    2  A    between atoms: C_7  and  O_8
REMARK    3  A    between atoms: O_8  and  C_9
REMARK    4  A    between atoms: C_9  and  C_10
REMARK    5  A    between atoms: C_16  and  C_17
REMARK    6  A    between atoms: C_17  and  C_18
REMARK                            x       y       z     vdW  Elec       q    Type
REMARK                         _______ _______ _______ _____ _____    ______ ____
ROOT
ATOM      1  O   UNL     1       2.073   6.885  20.214  0.00  0.00    +0.000 OA
ATOM      2  C   UNL     1       1.643   8.000  20.492  0.00  0.00    +0.000 A 
ATOM      3  N   UNL     1       1.366   8.318  21.782  0.00  0.00    +0.000 N 
ATOM      4  C   UNL     1       0.819   9.496  22.212  0.00  0.00    +0.000 A 
ATOM      5  O   UNL     1       0.675   9.658  23.415  0.00  0.00    +0.000 OA
ATOM      6  N   UNL     1       0.445  10.398  21.229  0.00  0.00    +0.000 N 
ATOM      7  C   UNL     1       0.708  10.175  19.858  0.00  0.00    +0.000 A 
ATOM      8  C   UNL     1       1.373   9.059  19.476  0.00  0.00    +0.000 A 
ATOM      9 BR   UNL     1       2.057   8.730  17.765  0.00  0.00    +0.000 Br
ATOM     10  H   UNL     1       1.546   7.625  22.487  0.00  0.00    +0.000 HD
ENDROOT
BRANCH   6  11
ATOM     11  C   UNL     1      -0.121  11.646  21.747  0.00  0.00    +0.000 C 
BRANCH  11  12
ATOM     12  O   UNL     1      -1.514  11.529  22.031  0.00  0.00    +0.000 OA
BRANCH  12  13
ATOM     13  C   UNL     1      -1.926  12.224  23.212  0.00  0.00    +0.000 C 
BRANCH  13  14
ATOM     14  C   UNL     1      -3.412  12.487  23.189  0.00  0.00    +0.000 A 
ATOM     15  C   UNL     1      -4.139  12.484  24.391  0.00  0.00    +0.000 A 
ATOM     16  C   UNL     1      -5.522  12.676  24.385  0.00  0.00    +0.000 A 
ATOM     17  C   UNL     1      -6.189  12.892  23.182  0.00  0.00    +0.000 A 
ATOM     18  C   UNL     1      -5.471  12.951  21.988  0.00  0.00    +0.000 A 
ATOM     19  C   UNL     1      -4.087  12.764  21.994  0.00  0.00    +0.000 A 
ENDBRANCH  13  14
ENDBRANCH  12  13
ENDBRANCH  11  12
ENDBRANCH   6  11
BRANCH   7  20
ATOM     20  C   UNL     1       0.178  11.180  18.821  0.00  0.00    +0.000 C 
BRANCH  20  21
ATOM     21  C   UNL     1      -1.257  11.048  18.349  0.00  0.00    +0.000 A 
ATOM     22  C   UNL     1      -2.285  11.892  18.785  0.00  0.00    +0.000 A 
ATOM     23  C   UNL     1      -3.614  11.609  18.480  0.00  0.00    +0.000 A 
ATOM     24  C   UNL     1      -3.931  10.503  17.696  0.00  0.00    +0.000 A 
ATOM     25  C   UNL     1      -2.919   9.709  17.167  0.00  0.00    +0.000 A 
ATOM     26  C   UNL     1      -1.585   9.985  17.486  0.00  0.00    +0.000 A 
ENDBRANCH  20  21
ENDBRANCH   7  20
TORSDOF 6
ENDMDL
MODEL 2
REMARK VINA RESULT:      -7.2      6.690      9.621
REMARK  Name = 
REMARK  6 active torsions:
REMARK  status: ('A' for Active; 'I' for Inactive)
REMARK    1  A    between atoms: N_6  and  C_7
REMARK    2  A    between atoms: C_7  and  O_8
REMARK    3  A    between atoms: O_8  and  C_9
REMARK    4  A    between atoms: C_9  and  C_10
REMARK    5  A    between atoms: C_16  and  C_17
REMARK    6  A    between atoms: C_17  and  C_18
REMARK                            x       y       z     vdW  Elec       q    Type
REMARK                         _______ _______ _______ _____ _____    ______ ____
ROOT
ATOM      1  O   UNL     1       7.794   5.595  19.676  0.00  0.00    +0.000 OA
ATOM      2  C   UNL     1       6.828   5.170  19.051  0.00  0.00    +0.000 A 
ATOM      3  N   UNL     1       6.131   4.105  19.522  0.00  0.00    +0.000 N 
ATOM      4  C   UNL     1       5.084   3.495  18.888  0.00  0.00    +0.000 A 
ATOM      5  O   UNL     1       4.521   2.574  19.462  0.00  0.00    +0.000 OA
ATOM      6  N   UNL     1       4.773   3.962  17.620  0.00  0.00    +0.000 N 
ATOM      7  C   UNL     1       5.421   5.079  17.046  0.00  0.00    +0.000 A 
ATOM      8  C   UNL     1       6.363   5.746  17.756  0.00  0.00    +0.000 A 
ATOM      9 BR   UNL     1       7.116   7.394  17.288  0.00  0.00    +0.000 Br
ATOM     10  H   UNL     1       6.419   3.703  20.396  0.00  0.00    +0.000 HD
ENDROOT
BRANCH   6  11
ATOM     11  C   UNL     1       3.636   3.283  16.995  0.00  0.00    +0.000 C 
BRANCH  11  12
ATOM     12  O   UNL     1       2.464   4.095  16.985  0.00  0.00    +0.000 OA
BRANCH  12  13
ATOM     13  C   UNL     1       1.721   4.058  18.208  0.00  0.00    +0.000 C 
BRANCH  13  14
ATOM     14  C   UNL     1       1.813   5.379  18.932  0.00  0.00    +0.000 A 
ATOM     15  C   UNL     1       1.477   5.453  20.293  0.00  0.00    +0.000 A 
ATOM     16  C   UNL     1       1.509   6.675  20.968  0.00  0.00    +0.000 A 
ATOM     17  C   UNL     1       1.894   7.831  20.294  0.00  0.00    +0.000 A 
ATOM     18  C   UNL     1       2.282   7.762  18.956  0.00  0.00    +0.000 A 
ATOM     19  C   UNL     1       2.255   6.538  18.283  0.00  0.00    +0.000 A 
ENDBRANCH  13  14
ENDBRANCH  12  13
ENDBRANCH  11  12
ENDBRANCH   6  11
BRANCH   7  20
ATOM     20  C   UNL     1       5.085   5.478  15.600  0.00  0.00    +0.000 C 
BRANCH  20  21
ATOM     21  C   UNL     1       5.888   4.862  14.470  0.00  0.00    +0.000 A 
ATOM     22  C   UNL     1       7.184   5.274  14.142  0.00  0.00    +0.000 A 
ATOM     23  C   UNL     1       7.801   4.821  12.978  0.00  0.00    +0.000 A 
ATOM     24  C   UNL     1       7.147   3.914  12.149  0.00  0.00    +0.000 A 
ATOM     25  C   UNL     1       5.900   3.413  12.508  0.00  0.00    +0.000 A 
ATOM     26  C   UNL     1       5.275   3.879  13.669  0.00  0.00    +0.000 A 
ENDBRANCH  20  21
ENDBRANCH   7  20
TORSDOF 6
ENDMDL
MODEL 3
REMARK VINA RESULT:      -7.2      4.430      7.583
REMARK  Name = 
REMARK  6 active torsions:
REMARK  status: ('A' for Active; 'I' for Inactive)
REMARK    1  A    between atoms: N_6  and  C_7
REMARK    2  A    between atoms: C_7  and  O_8
REMARK    3  A    between atoms: O_8  and  C_9
REMARK    4  A    between atoms: C_9  and  C_10
REMARK    5  A    between atoms: C_16  and  C_17
REMARK    6  A    between atoms: C_17  and  C_18
REMARK                            x       y       z     vdW  Elec       q    Type
REMARK                         _______ _______ _______ _____ _____    ______ ____
ROOT
ATOM      1  O   UNL     1       1.283   2.440  20.897  0.00  0.00    +0.000 OA
ATOM      2  C   UNL     1       1.708   3.473  20.387  0.00  0.00    +0.000 A 
ATOM      3  N   UNL     1       1.398   4.676  20.933  0.00  0.00    +0.000 N 
ATOM      4  C   UNL     1       1.749   5.895  20.423  0.00  0.00    +0.000 A 
ATOM      5  O   UNL     1       1.441   6.894  21.055  0.00  0.00    +0.000 OA
ATOM      6  N   UNL     1       2.404   5.888  19.201  0.00  0.00    +0.000 N 
ATOM      7  C   UNL     1       2.793   4.690  18.558  0.00  0.00    +0.000 A 
ATOM      8  C   UNL     1       2.550   3.499  19.157  0.00  0.00    +0.000 A 
ATOM      9 BR   UNL     1       3.234   1.846  18.608  0.00  0.00    +0.000 Br
ATOM     10  H   UNL     1       0.838   4.685  21.767  0.00  0.00    +0.000 HD
ENDROOT
BRANCH   6  11
ATOM     11  C   UNL     1       2.768   7.219  18.709  0.00  0.00    +0.000 C 
BRANCH  11  12
ATOM     12  O   UNL     1       1.738   7.799  17.912  0.00  0.00    +0.000 OA
BRANCH  12  13
ATOM     13  C   UNL     1       1.843   9.220  17.771  0.00  0.00    +0.000 C 
BRANCH  13  14
ATOM     14  C   UNL     1       0.692   9.914  18.456  0.00  0.00    +0.000 A 
ATOM     15  C   UNL     1      -0.563   9.967  17.829  0.00  0.00    +0.000 A 
ATOM     16  C   UNL     1      -1.628  10.647  18.425  0.00  0.00    +0.000 A 
ATOM     17  C   UNL     1      -1.454  11.264  19.661  0.00  0.00    +0.000 A 
ATOM     18  C   UNL     1      -0.227  11.172  20.319  0.00  0.00    +0.000 A 
ATOM     19  C   UNL     1       0.836  10.488  19.725  0.00  0.00    +0.000 A 
ENDBRANCH  13  14
ENDBRANCH  12  13
ENDBRANCH  11  12
ENDBRANCH   6  11
BRANCH   7  20
ATOM     20  C   UNL     1       3.432   4.764  17.162  0.00  0.00    +0.000 C 
BRANCH  20  21
ATOM     21  C   UNL     1       4.945   4.802  17.056  0.00  0.00    +0.000 A 
ATOM     22  C   UNL     1       5.635   4.512  15.873  0.00  0.00    +0.000 A 
ATOM     23  C   UNL     1       7.020   4.365  15.877  0.00  0.00    +0.000 A 
ATOM     24  C   UNL     1       7.739   4.550  17.053  0.00  0.00    +0.000 A 
ATOM     25  C   UNL     1       7.086   4.939  18.218  0.00  0.00    +0.000 A 
ATOM     26  C   UNL     1       5.693   5.072  18.218  0.00  0.00    +0.000 A 
ENDBRANCH  20  21
ENDBRANCH   7  20
TORSDOF 6
ENDMDL
MODEL 4
REMARK VINA RESULT:      -7.2      4.468      7.500
REMARK  Name = 
REMARK  6 active torsions:
REMARK  status: ('A' for Active; 'I' for Inactive)
REMARK    1  A    between atoms: N_6  and  C_7
REMARK    2  A    between atoms: C_7  and  O_8
REMARK    3  A    between atoms: O_8  and  C_9
REMARK    4  A    between atoms: C_9  and  C_10
REMARK    5  A    between atoms: C_16  and  C_17
REMARK    6  A    between atoms: C_17  and  C_18
REMARK                            x       y       z     vdW  Elec       q    Type
REMARK                         _______ _______ _______ _____ _____    ______ ____
ROOT
ATOM      1  O   UNL     1       1.105   2.572  20.951  0.00  0.00    +0.000 OA
ATOM      2  C   UNL     1       1.580   3.568  20.414  0.00  0.00    +0.000 A 
ATOM      3  N   UNL     1       1.351   4.797  20.941  0.00  0.00    +0.000 N 
ATOM      4  C   UNL     1       1.763   5.984  20.400  0.00  0.00    +0.000 A 
ATOM      5  O   UNL     1       1.526   7.011  21.018  0.00  0.00    +0.000 OA
ATOM      6  N   UNL     1       2.394   5.916  19.168  0.00  0.00    +0.000 N 
ATOM      7  C   UNL     1       2.700   4.685  18.543  0.00  0.00    +0.000 A 
ATOM      8  C   UNL     1       2.399   3.522  19.169  0.00  0.00    +0.000 A 
ATOM      9 BR   UNL     1       2.975   1.822  18.641  0.00  0.00    +0.000 Br
ATOM     10  H   UNL     1       0.808   4.855  21.784  0.00  0.00    +0.000 HD
ENDROOT
BRANCH   6  11
ATOM     11  C   UNL     1       2.826   7.214  18.644  0.00  0.00    +0.000 C 
BRANCH  11  12
ATOM     12  O   UNL     1       1.813   7.844  17.864  0.00  0.00    +0.000 OA
BRANCH  12  13
ATOM     13  C   UNL     1       1.941   9.267  17.784  0.00  0.00    +0.000 C 
BRANCH  13  14
ATOM     14  C   UNL     1       0.773   9.950  18.453  0.00  0.00    +0.000 A 
ATOM     15  C   UNL     1       0.958  10.604  19.682  0.00  0.00    +0.000 A 
ATOM     16  C   UNL     1      -0.120  11.200  20.339  0.00  0.00    +0.000 A 
ATOM     17  C   UNL     1      -1.389  11.164  19.768  0.00  0.00    +0.000 A 
ATOM     18  C   UNL     1      -1.575  10.563  18.522  0.00  0.00    +0.000 A 
ATOM     19  C   UNL     1      -0.496   9.973  17.862  0.00  0.00    +0.000 A 
ENDBRANCH  13  14
ENDBRANCH  12  13
ENDBRANCH  11  12
ENDBRANCH   6  11
BRANCH   7  20
ATOM     20  C   UNL     1       3.317   4.694  17.134  0.00  0.00    +0.000 C 
BRANCH  20  21
ATOM     21  C   UNL     1       4.820   4.544  16.998  0.00  0.00    +0.000 A 
ATOM     22  C   UNL     1       5.707   4.738  18.063  0.00  0.00    +0.000 A 
ATOM     23  C   UNL     1       7.081   4.784  17.844  0.00  0.00    +0.000 A 
ATOM     24  C   UNL     1       7.592   4.593  16.563  0.00  0.00    +0.000 A 
ATOM     25  C   UNL     1       6.736   4.297  15.508  0.00  0.00    +0.000 A 
ATOM     26  C   UNL     1       5.354   4.264  15.725  0.00  0.00    +0.000 A 
ENDBRANCH  20  21
ENDBRANCH   7  20
TORSDOF 6
ENDMDL
MODEL 5
REMARK VINA RESULT:      -7.1      8.278     10.072
REMARK  Name = 
REMARK  6 active torsions:
REMARK  status: ('A' for Active; 'I' for Inactive)
REMARK    1  A    between atoms: N_6  and  C_7
REMARK    2  A    between atoms: C_7  and  O_8
REMARK    3  A    between atoms: O_8  and  C_9
REMARK    4  A    between atoms: C_9  and  C_10
REMARK    5  A    between atoms: C_16  and  C_17
REMARK    6  A    between atoms: C_17  and  C_18
REMARK                            x       y       z     vdW  Elec       q    Type
REMARK                         _______ _______ _______ _____ _____    ______ ____
ROOT
ATOM      1  O   UNL     1       8.419   6.154  19.578  0.00  0.00    +0.000 OA
ATOM      2  C   UNL     1       7.413   5.694  19.049  0.00  0.00    +0.000 A 
ATOM      3  N   UNL     1       6.770   4.640  19.614  0.00  0.00    +0.000 N 
ATOM      4  C   UNL     1       5.685   3.995  19.088  0.00  0.00    +0.000 A 
ATOM      5  O   UNL     1       5.182   3.092  19.740  0.00  0.00    +0.000 OA
ATOM      6  N   UNL     1       5.269   4.408  17.832  0.00  0.00    +0.000 N 
ATOM      7  C   UNL     1       5.854   5.509  17.166  0.00  0.00    +0.000 A 
ATOM      8  C   UNL     1       6.839   6.213  17.773  0.00  0.00    +0.000 A 
ATOM      9 BR   UNL     1       7.530   7.849  17.183  0.00  0.00    +0.000 Br
ATOM     10  H   UNL     1       7.132   4.276  20.477  0.00  0.00    +0.000 HD
ENDROOT
BRANCH   6  11
ATOM     11  C   UNL     1       4.095   3.692  17.326  0.00  0.00    +0.000 C 
BRANCH  11  12
ATOM     12  O   UNL     1       3.042   4.580  16.957  0.00  0.00    +0.000 OA
BRANCH  12  13
ATOM     13  C   UNL     1       2.519   5.345  18.048  0.00  0.00    +0.000 C 
BRANCH  13  14
ATOM     14  C   UNL     1       2.082   4.442  19.176  0.00  0.00    +0.000 A 
ATOM     15  C   UNL     1       1.255   3.339  18.906  0.00  0.00    +0.000 A 
ATOM     16  C   UNL     1       0.801   2.521  19.941  0.00  0.00    +0.000 A 
ATOM     17  C   UNL     1       1.183   2.785  21.254  0.00  0.00    +0.000 A 
ATOM     18  C   UNL     1       2.046   3.846  21.529  0.00  0.00    +0.000 A 
ATOM     19  C   UNL     1       2.505   4.661  20.492  0.00  0.00    +0.000 A 
ENDBRANCH  13  14
ENDBRANCH  12  13
ENDBRANCH  11  12
ENDBRANCH   6  11
BRANCH   7  20
ATOM     20  C   UNL     1       5.399   5.847  15.737  0.00  0.00    +0.000 C 
BRANCH  20  21
ATOM     21  C   UNL     1       6.048   5.118  14.576  0.00  0.00    +0.000 A 
ATOM     22  C   UNL     1       7.307   5.461  14.067  0.00  0.00    +0.000 A 
ATOM     23  C   UNL     1       7.770   4.898  12.881  0.00  0.00    +0.000 A 
ATOM     24  C   UNL     1       7.002   3.951  12.209  0.00  0.00    +0.000 A 
ATOM     25  C   UNL     1       5.795   3.520  12.750  0.00  0.00    +0.000 A 
ATOM     26  C   UNL     1       5.322   4.097  13.934  0.00  0.00    +0.000 A 
ENDBRANCH  20  21
ENDBRANCH   7  20
TORSDOF 6
ENDMDL
MODEL 6
REMARK VINA RESULT:      -7.1      4.404      7.440
REMARK  Name = 
REMARK  6 active torsions:
REMARK  status: ('A' for Active; 'I' for Inactive)
REMARK    1  A    between atoms: N_6  and  C_7
REMARK    2  A    between atoms: C_7  and  O_8
REMARK    3  A    between atoms: O_8  and  C_9
REMARK    4  A    between atoms: C_9  and  C_10
REMARK    5  A    between atoms: C_16  and  C_17
REMARK    6  A    between atoms: C_17  and  C_18
REMARK                            x       y       z     vdW  Elec       q    Type
REMARK                         _______ _______ _______ _____ _____    ______ ____
ROOT
ATOM      1  O   UNL     1       1.504   3.354  21.493  0.00  0.00    +0.000 OA
ATOM      2  C   UNL     1       1.924   4.217  20.729  0.00  0.00    +0.000 A 
ATOM      3  N   UNL     1       1.762   5.529  21.033  0.00  0.00    +0.000 N 
ATOM      4  C   UNL     1       2.120   6.581  20.236  0.00  0.00    +0.000 A 
ATOM      5  O   UNL     1       1.959   7.713  20.668  0.00  0.00    +0.000 OA
ATOM      6  N   UNL     1       2.612   6.264  18.979  0.00  0.00    +0.000 N 
ATOM      7  C   UNL     1       2.840   4.930  18.570  0.00  0.00    +0.000 A 
ATOM      8  C   UNL     1       2.602   3.915  19.435  0.00  0.00    +0.000 A 
ATOM      9 BR   UNL     1       3.105   2.130  19.183  0.00  0.00    +0.000 Br
ATOM     10  H   UNL     1       1.315   5.760  21.902  0.00  0.00    +0.000 HD
ENDROOT
BRANCH   6  11
ATOM     11  C   UNL     1       2.993   7.428  18.174  0.00  0.00    +0.000 C 
BRANCH  11  12
ATOM     12  O   UNL     1       1.857   8.150  17.702  0.00  0.00    +0.000 OA
BRANCH  12  13
ATOM     13  C   UNL     1       1.978   9.570  17.829  0.00  0.00    +0.000 C 
BRANCH  13  14
ATOM     14  C   UNL     1       0.723  10.165  18.418  0.00  0.00    +0.000 A 
ATOM     15  C   UNL     1      -0.519   9.914  17.812  0.00  0.00    +0.000 A 
ATOM     16  C   UNL     1      -1.685  10.494  18.313  0.00  0.00    +0.000 A 
ATOM     17  C   UNL     1      -1.626  11.316  19.436  0.00  0.00    +0.000 A 
ATOM     18  C   UNL     1      -0.407  11.530  20.079  0.00  0.00    +0.000 A 
ATOM     19  C   UNL     1       0.759  10.945  19.580  0.00  0.00    +0.000 A 
ENDBRANCH  13  14
ENDBRANCH  12  13
ENDBRANCH  11  12
ENDBRANCH   6  11
BRANCH   7  20
ATOM     20  C   UNL     1       3.299   4.657  17.129  0.00  0.00    +0.000 C 
BRANCH  20  21
ATOM     21  C   UNL     1       4.786   4.551  16.847  0.00  0.00    +0.000 A 
ATOM     22  C   UNL     1       5.767   4.880  17.789  0.00  0.00    +0.000 A 
ATOM     23  C   UNL     1       7.107   4.958  17.421  0.00  0.00    +0.000 A 
ATOM     24  C   UNL     1       7.492   4.666  16.116  0.00  0.00    +0.000 A 
ATOM     25  C   UNL     1       6.548   4.238  15.189  0.00  0.00    +0.000 A 
ATOM     26  C   UNL     1       5.199   4.174  15.555  0.00  0.00    +0.000 A 
ENDBRANCH  20  21
ENDBRANCH   7  20
TORSDOF 6
ENDMDL
MODEL 7
REMARK VINA RESULT:      -7.0      8.147     10.075
REMARK  Name = 
REMARK  6 active torsions:
REMARK  status: ('A' for Active; 'I' for Inactive)
REMARK    1  A    between atoms: N_6  and  C_7
REMARK    2  A    between atoms: C_7  and  O_8
REMARK    3  A    between atoms: O_8  and  C_9
REMARK    4  A    between atoms: C_9  and  C_10
REMARK    5  A    between atoms: C_16  and  C_17
REMARK    6  A    between atoms: C_17  and  C_18
REMARK                            x       y       z     vdW  Elec       q    Type
REMARK                         _______ _______ _______ _____ _____    ______ ____
ROOT
ATOM      1  O   UNL     1       8.167   5.496  19.557  0.00  0.00    +0.000 OA
ATOM      2  C   UNL     1       7.137   5.198  18.960  0.00  0.00    +0.000 A 
ATOM      3  N   UNL     1       6.381   4.156  19.389  0.00  0.00    +0.000 N 
ATOM      4  C   UNL     1       5.256   3.682  18.773  0.00  0.00    +0.000 A 
ATOM      5  O   UNL     1       4.650   2.765  19.308  0.00  0.00    +0.000 OA
ATOM      6  N   UNL     1       4.919   4.271  17.565  0.00  0.00    +0.000 N 
ATOM      7  C   UNL     1       5.626   5.377  17.040  0.00  0.00    +0.000 A 
ATOM      8  C   UNL     1       6.654   5.910  17.742  0.00  0.00    +0.000 A 
ATOM      9 BR   UNL     1       7.515   7.526  17.356  0.00  0.00    +0.000 Br
ATOM     10  H   UNL     1       6.681   3.664  20.212  0.00  0.00    +0.000 HD
ENDROOT
BRANCH   6  11
ATOM     11  C   UNL     1       3.698   3.735  16.957  0.00  0.00    +0.000 C 
BRANCH  11  12
ATOM     12  O   UNL     1       2.604   4.644  17.056  0.00  0.00    +0.000 OA
BRANCH  12  13
ATOM     13  C   UNL     1       1.419   4.068  17.616  0.00  0.00    +0.000 C 
BRANCH  13  14
ATOM     14  C   UNL     1       1.582   3.842  19.100  0.00  0.00    +0.000 A 
ATOM     15  C   UNL     1       1.296   2.581  19.648  0.00  0.00    +0.000 A 
ATOM     16  C   UNL     1       1.394   2.365  21.024  0.00  0.00    +0.000 A 
ATOM     17  C   UNL     1       1.795   3.402  21.863  0.00  0.00    +0.000 A 
ATOM     18  C   UNL     1       2.134   4.643  21.324  0.00  0.00    +0.000 A 
ATOM     19  C   UNL     1       2.041   4.857  19.947  0.00  0.00    +0.000 A 
ENDBRANCH  13  14
ENDBRANCH  12  13
ENDBRANCH  11  12
ENDBRANCH   6  11
BRANCH   7  20
ATOM     20  C   UNL     1       5.248   5.916  15.650  0.00  0.00    +0.000 C 
BRANCH  20  21
ATOM     21  C   UNL     1       5.829   5.237  14.424  0.00  0.00    +0.000 A 
ATOM     22  C   UNL     1       5.168   4.218  13.730  0.00  0.00    +0.000 A 
ATOM     23  C   UNL     1       5.824   3.492  12.739  0.00  0.00    +0.000 A 
ATOM     24  C   UNL     1       7.136   3.805  12.396  0.00  0.00    +0.000 A 
ATOM     25  C   UNL     1       7.778   4.881  13.001  0.00  0.00    +0.000 A 
ATOM     26  C   UNL     1       7.124   5.600  14.007  0.00  0.00    +0.000 A 
ENDBRANCH  20  21
ENDBRANCH   7  20
TORSDOF 6
ENDMDL
MODEL 8
REMARK VINA RESULT:      -7.0      6.267      9.129
REMARK  Name = 
REMARK  6 active torsions:
REMARK  status: ('A' for Active; 'I' for Inactive)
REMARK    1  A    between atoms: N_6  and  C_7
REMARK    2  A    between atoms: C_7  and  O_8
REMARK    3  A    between atoms: O_8  and  C_9
REMARK    4  A    between atoms: C_9  and  C_10
REMARK    5  A    between atoms: C_16  and  C_17
REMARK    6  A    between atoms: C_17  and  C_18
REMARK                            x       y       z     vdW  Elec       q    Type
REMARK                         _______ _______ _______ _____ _____    ______ ____
ROOT
ATOM      1  O   UNL     1       7.354   5.581  13.950  0.00  0.00    +0.000 OA
ATOM      2  C   UNL     1       6.933   5.318  15.073  0.00  0.00    +0.000 A 
ATOM      3  N   UNL     1       7.395   6.006  16.148  0.00  0.00    +0.000 N 
ATOM      4  C   UNL     1       7.060   5.763  17.452  0.00  0.00    +0.000 A 
ATOM      5  O   UNL     1       7.518   6.501  18.311  0.00  0.00    +0.000 OA
ATOM      6  N   UNL     1       6.244   4.666  17.686  0.00  0.00    +0.000 N 
ATOM      7  C   UNL     1       5.691   3.897  16.636  0.00  0.00    +0.000 A 
ATOM      8  C   UNL     1       5.934   4.246  15.350  0.00  0.00    +0.000 A 
ATOM      9 BR   UNL     1       5.072   3.536  13.848  0.00  0.00    +0.000 Br
ATOM     10  H   UNL     1       8.063   6.738  15.987  0.00  0.00    +0.000 HD
ENDROOT
BRANCH   6  11
ATOM     11  C   UNL     1       5.907   4.463  19.097  0.00  0.00    +0.000 C 
BRANCH  11  12
ATOM     12  O   UNL     1       5.203   5.574  19.647  0.00  0.00    +0.000 OA
BRANCH  12  13
ATOM     13  C   UNL     1       3.784   5.397  19.697  0.00  0.00    +0.000 C 
BRANCH  13  14
ATOM     14  C   UNL     1       3.071   6.651  19.254  0.00  0.00    +0.000 A 
ATOM     15  C   UNL     1       2.186   7.297  20.133  0.00  0.00    +0.000 A 
ATOM     16  C   UNL     1       1.480   8.431  19.726  0.00  0.00    +0.000 A 
ATOM     17  C   UNL     1       1.664   8.941  18.444  0.00  0.00    +0.000 A 
ATOM     18  C   UNL     1       2.580   8.340  17.579  0.00  0.00    +0.000 A 
ATOM     19  C   UNL     1       3.290   7.209  17.989  0.00  0.00    +0.000 A 
ENDBRANCH  13  14
ENDBRANCH  12  13
ENDBRANCH  11  12
ENDBRANCH   6  11
BRANCH   7  20
ATOM     20  C   UNL     1       4.873   2.642  16.979  0.00  0.00    +0.000 C 
BRANCH  20  21
ATOM     21  C   UNL     1       3.436   2.813  17.435  0.00  0.00    +0.000 A 
ATOM     22  C   UNL     1       2.591   3.811  16.937  0.00  0.00    +0.000 A 
ATOM     23  C   UNL     1       1.353   4.053  17.526  0.00  0.00    +0.000 A 
ATOM     24  C   UNL     1       0.922   3.270  18.594  0.00  0.00    +0.000 A 
ATOM     25  C   UNL     1       1.701   2.207  19.039  0.00  0.00    +0.000 A 
ATOM     26  C   UNL     1       2.951   1.974  18.456  0.00  0.00    +0.000 A 
ENDBRANCH  20  21
ENDBRANCH   7  20
TORSDOF 6
ENDMDL
MODEL 9
REMARK VINA RESULT:      -7.0      0.398      1.417
REMARK  Name = 
REMARK  6 active torsions:
REMARK  status: ('A' for Active; 'I' for Inactive)
REMARK    1  A    between atoms: N_6  and  C_7
REMARK    2  A    between atoms: C_7  and  O_8
REMARK    3  A    between atoms: O_8  and  C_9
REMARK    4  A    between atoms: C_9  and  C_10
REMARK    5  A    between atoms: C_16  and  C_17
REMARK    6  A    between atoms: C_17  and  C_18
REMARK                            x       y       z     vdW  Elec       q    Type
REMARK                         _______ _______ _______ _____ _____    ______ ____
ROOT
ATOM      1  O   UNL     1       2.060   7.139  20.350  0.00  0.00    +0.000 OA
ATOM      2  C   UNL     1       1.564   8.222  20.644  0.00  0.00    +0.000 A 
ATOM      3  N   UNL     1       1.281   8.509  21.940  0.00  0.00    +0.000 N 
ATOM      4  C   UNL     1       0.666   9.646  22.387  0.00  0.00    +0.000 A 
ATOM      5  O   UNL     1       0.524   9.788  23.593  0.00  0.00    +0.000 OA
ATOM      6  N   UNL     1       0.226  10.533  21.416  0.00  0.00    +0.000 N 
ATOM      7  C   UNL     1       0.488  10.340  20.041  0.00  0.00    +0.000 A 
ATOM      8  C   UNL     1       1.218   9.271  19.642  0.00  0.00    +0.000 A 
ATOM      9 BR   UNL     1       1.904   9.002  17.921  0.00  0.00    +0.000 Br
ATOM     10  H   UNL     1       1.510   7.822  22.636  0.00  0.00    +0.000 HD
ENDROOT
BRANCH   6  11
ATOM     11  C   UNL     1      -0.412  11.738  21.952  0.00  0.00    +0.000 C 
BRANCH  11  12
ATOM     12  O   UNL     1      -1.828  11.603  22.042  0.00  0.00    +0.000 OA
BRANCH  12  13
ATOM     13  C   UNL     1      -2.364  11.944  23.325  0.00  0.00    +0.000 C 
BRANCH  13  14
ATOM     14  C   UNL     1      -3.778  12.456  23.198  0.00  0.00    +0.000 A 
ATOM     15  C   UNL     1      -4.292  12.776  21.930  0.00  0.00    +0.000 A 
ATOM     16  C   UNL     1      -5.580  13.297  21.796  0.00  0.00    +0.000 A 
ATOM     17  C   UNL     1      -6.374  13.487  22.925  0.00  0.00    +0.000 A 
ATOM     18  C   UNL     1      -5.894  13.123  24.183  0.00  0.00    +0.000 A 
ATOM     19  C   UNL     1      -4.608  12.597  24.316  0.00  0.00    +0.000 A 
ENDBRANCH  13  14
ENDBRANCH  12  13
ENDBRANCH  11  12
ENDBRANCH   6  11
BRANCH   7  20
ATOM     20  C   UNL     1      -0.113  11.319  19.020  0.00  0.00    +0.000 C 
BRANCH  20  21
ATOM     21  C   UNL     1      -1.450  10.981  18.388  0.00  0.00    +0.000 A 
ATOM     22  C   UNL     1      -1.609   9.974  17.430  0.00  0.00    +0.000 A 
ATOM     23  C   UNL     1      -2.809   9.836  16.737  0.00  0.00    +0.000 A 
ATOM     24  C   UNL     1      -3.883  10.673  17.025  0.00  0.00    +0.000 A 
ATOM     25  C   UNL     1      -3.781  11.614  18.045  0.00  0.00    +0.000 A 
ATOM     26  C   UNL     1      -2.571  11.762  18.730  0.00  0.00    +0.000 A 
ENDBRANCH  20  21
ENDBRANCH   7  20
TORSDOF 6
ENDMDL
