MODEL 1
REMARK VINA RESULT:      -7.3      0.000      0.000
REMARK  Name = 
REMARK  1 active torsions:
REMARK  status: ('A' for Active; 'I' for Inactive)
REMARK    1  A    between atoms: C_1  and  C_2
REMARK                            x       y       z     vdW  Elec       q    Type
REMARK                         _______ _______ _______ _____ _____    ______ ____
ROOT
ATOM      1  C   UNL     1       7.595   7.202  17.708  0.00  0.00    +0.000 C 
ATOM      2  C   UNL     1       6.983   6.086  16.906  0.00  0.00    +0.000 C 
ATOM      3  N   UNL     1       7.480   5.760  15.766  0.00  0.00    +0.000 NA
ATOM      4  C   UNL     1       6.829   4.777  14.869  0.00  0.00    +0.000 C 
ATOM      5  C   UNL     1       5.647   3.947  15.422  0.00  0.00    +0.000 C 
ATOM      6  C   UNL     1       5.120   4.475  16.708  0.00  0.00    +0.000 A 
ATOM      7  C   UNL     1       5.781   5.473  17.385  0.00  0.00    +0.000 A 
ATOM      8  N   UNL     1       5.060   5.779  18.505  0.00  0.00    +0.000 N 
ATOM      9  C   UNL     1       3.867   5.095  18.488  0.00  0.00    +0.000 A 
ATOM     10  C   UNL     1       2.765   5.202  19.342  0.00  0.00    +0.000 A 
ATOM     11  C   UNL     1       1.668   4.379  19.082  0.00  0.00    +0.000 A 
ATOM     12  C   UNL     1       1.689   3.465  18.030  0.00  0.00    +0.000 A 
ATOM     13  C   UNL     1       2.803   3.367  17.188  0.00  0.00    +0.000 A 
ATOM     14  C   UNL     1       3.906   4.214  17.404  0.00  0.00    +0.000 A 
ATOM     15  H   UNL     1       5.312   6.467  19.201  0.00  0.00    +0.000 HD
ENDROOT
TORSDOF 0
ENDMDL
MODEL 2
REMARK VINA RESULT:      -7.1      1.335      1.335
REMARK  Name = 
REMARK  1 active torsions:
REMARK  status: ('A' for Active; 'I' for Inactive)
REMARK    1  A    between atoms: C_1  and  C_2
REMARK                            x       y       z     vdW  Elec       q    Type
REMARK                         _______ _______ _______ _____ _____    ______ ____
ROOT
ATOM      1  C   UNL     1       7.908   5.673  18.976  0.00  0.00    +0.000 C 
ATOM      2  C   UNL     1       7.057   5.192  17.832  0.00  0.00    +0.000 C 
ATOM      3  N   UNL     1       7.353   5.518  16.624  0.00  0.00    +0.000 NA
ATOM      4  C   UNL     1       6.469   5.202  15.478  0.00  0.00    +0.000 C 
ATOM      5  C   UNL     1       5.273   4.250  15.712  0.00  0.00    +0.000 C 
ATOM      6  C   UNL     1       4.992   4.017  17.154  0.00  0.00    +0.000 A 
ATOM      7  C   UNL     1       5.859   4.464  18.123  0.00  0.00    +0.000 A 
ATOM      8  N   UNL     1       5.337   4.141  19.344  0.00  0.00    +0.000 N 
ATOM      9  C   UNL     1       4.074   3.621  19.184  0.00  0.00    +0.000 A 
ATOM     10  C   UNL     1       3.117   3.290  20.148  0.00  0.00    +0.000 A 
ATOM     11  C   UNL     1       1.898   2.781  19.696  0.00  0.00    +0.000 A 
ATOM     12  C   UNL     1       1.663   2.582  18.337  0.00  0.00    +0.000 A 
ATOM     13  C   UNL     1       2.635   2.914  17.385  0.00  0.00    +0.000 A 
ATOM     14  C   UNL     1       3.856   3.467  17.813  0.00  0.00    +0.000 A 
ATOM     15  H   UNL     1       5.764   4.333  20.240  0.00  0.00    +0.000 HD
ENDROOT
TORSDOF 0
ENDMDL
MODEL 3
REMARK VINA RESULT:      -7.0      1.746      4.655
REMARK  Name = 
REMARK  1 active torsions:
REMARK  status: ('A' for Active; 'I' for Inactive)
REMARK    1  A    between atoms: C_1  and  C_2
REMARK                            x       y       z     vdW  Elec       q    Type
REMARK                         _______ _______ _______ _____ _____    ______ ____
ROOT
ATOM      1  C   UNL     1       7.790   6.109  18.624  0.00  0.00    +0.000 C 
ATOM      2  C   UNL     1       6.659   5.285  18.072  0.00  0.00    +0.000 C 
ATOM      3  N   UNL     1       5.847   4.685  18.867  0.00  0.00    +0.000 NA
ATOM      4  C   UNL     1       4.813   3.742  18.382  0.00  0.00    +0.000 C 
ATOM      5  C   UNL     1       4.552   3.657  16.860  0.00  0.00    +0.000 C 
ATOM      6  C   UNL     1       5.605   4.327  16.053  0.00  0.00    +0.000 A 
ATOM      7  C   UNL     1       6.573   5.096  16.655  0.00  0.00    +0.000 A 
ATOM      8  N   UNL     1       7.417   5.557  15.684  0.00  0.00    +0.000 N 
ATOM      9  C   UNL     1       7.094   4.979  14.478  0.00  0.00    +0.000 A 
ATOM     10  C   UNL     1       7.763   5.040  13.252  0.00  0.00    +0.000 A 
ATOM     11  C   UNL     1       7.206   4.340  12.180  0.00  0.00    +0.000 A 
ATOM     12  C   UNL     1       6.012   3.636  12.326  0.00  0.00    +0.000 A 
ATOM     13  C   UNL     1       5.353   3.590  13.560  0.00  0.00    +0.000 A 
ATOM     14  C   UNL     1       5.915   4.254  14.666  0.00  0.00    +0.000 A 
ATOM     15  H   UNL     1       8.216   6.158  15.831  0.00  0.00    +0.000 HD
ENDROOT
TORSDOF 0
ENDMDL
MODEL 4
REMARK VINA RESULT:      -6.9      1.334      2.582
REMARK  Name = 
REMARK  1 active torsions:
REMARK  status: ('A' for Active; 'I' for Inactive)
REMARK    1  A    between atoms: C_1  and  C_2
REMARK                            x       y       z     vdW  Elec       q    Type
REMARK                         _______ _______ _______ _____ _____    ______ ____
ROOT
ATOM      1  C   UNL     1       6.297   3.878  14.880  0.00  0.00    +0.000 C 
ATOM      2  C   UNL     1       6.370   4.402  16.288  0.00  0.00    +0.000 C 
ATOM      3  N   UNL     1       7.505   4.707  16.807  0.00  0.00    +0.000 NA
ATOM      4  C   UNL     1       7.651   5.081  18.234  0.00  0.00    +0.000 C 
ATOM      5  C   UNL     1       6.369   5.338  19.060  0.00  0.00    +0.000 C 
ATOM      6  C   UNL     1       5.134   4.872  18.376  0.00  0.00    +0.000 A 
ATOM      7  C   UNL     1       5.170   4.450  17.067  0.00  0.00    +0.000 A 
ATOM      8  N   UNL     1       3.911   4.053  16.713  0.00  0.00    +0.000 N 
ATOM      9  C   UNL     1       3.091   4.075  17.818  0.00  0.00    +0.000 A 
ATOM     10  C   UNL     1       1.778   3.619  17.963  0.00  0.00    +0.000 A 
ATOM     11  C   UNL     1       1.182   3.762  19.218  0.00  0.00    +0.000 A 
ATOM     12  C   UNL     1       1.866   4.364  20.272  0.00  0.00    +0.000 A 
ATOM     13  C   UNL     1       3.180   4.820  20.108  0.00  0.00    +0.000 A 
ATOM     14  C   UNL     1       3.816   4.651  18.864  0.00  0.00    +0.000 A 
ATOM     15  H   UNL     1       3.633   3.707  15.805  0.00  0.00    +0.000 HD
ENDROOT
TORSDOF 0
ENDMDL
MODEL 5
REMARK VINA RESULT:      -6.8      1.835      2.595
REMARK  Name = 
REMARK  1 active torsions:
REMARK  status: ('A' for Active; 'I' for Inactive)
REMARK    1  A    between atoms: C_1  and  C_2
REMARK                            x       y       z     vdW  Elec       q    Type
REMARK                         _______ _______ _______ _____ _____    ______ ____
ROOT
ATOM      1  C   UNL     1       7.657   4.554  17.794  0.00  0.00    +0.000 C 
ATOM      2  C   UNL     1       6.315   5.225  17.679  0.00  0.00    +0.000 C 
ATOM      3  N   UNL     1       6.207   6.357  17.080  0.00  0.00    +0.000 NA
ATOM      4  C   UNL     1       4.945   7.133  17.071  0.00  0.00    +0.000 C 
ATOM      5  C   UNL     1       3.660   6.451  17.596  0.00  0.00    +0.000 C 
ATOM      6  C   UNL     1       3.933   5.189  18.333  0.00  0.00    +0.000 A 
ATOM      7  C   UNL     1       5.191   4.635  18.340  0.00  0.00    +0.000 A 
ATOM      8  N   UNL     1       5.157   3.509  19.115  0.00  0.00    +0.000 N 
ATOM      9  C   UNL     1       3.929   3.406  19.727  0.00  0.00    +0.000 A 
ATOM     10  C   UNL     1       3.493   2.509  20.707  0.00  0.00    +0.000 A 
ATOM     11  C   UNL     1       2.180   2.641  21.161  0.00  0.00    +0.000 A 
ATOM     12  C   UNL     1       1.331   3.611  20.631  0.00  0.00    +0.000 A 
ATOM     13  C   UNL     1       1.783   4.498  19.646  0.00  0.00    +0.000 A 
ATOM     14  C   UNL     1       3.115   4.412  19.201  0.00  0.00    +0.000 A 
ATOM     15  H   UNL     1       5.934   2.888  19.291  0.00  0.00    +0.000 HD
ENDROOT
TORSDOF 0
ENDMDL
MODEL 6
REMARK VINA RESULT:      -6.7      1.623      2.928
REMARK  Name = 
REMARK  1 active torsions:
REMARK  status: ('A' for Active; 'I' for Inactive)
REMARK    1  A    between atoms: C_1  and  C_2
REMARK                            x       y       z     vdW  Elec       q    Type
REMARK                         _______ _______ _______ _____ _____    ______ ____
ROOT
ATOM      1  C   UNL     1       5.878   3.690  15.450  0.00  0.00    +0.000 C 
ATOM      2  C   UNL     1       5.143   4.764  16.204  0.00  0.00    +0.000 C 
ATOM      3  N   UNL     1       5.503   5.994  16.094  0.00  0.00    +0.000 NA
ATOM      4  C   UNL     1       4.917   7.070  16.927  0.00  0.00    +0.000 C 
ATOM      5  C   UNL     1       3.674   6.740  17.786  0.00  0.00    +0.000 C 
ATOM      6  C   UNL     1       3.414   5.279  17.892  0.00  0.00    +0.000 A 
ATOM      7  C   UNL     1       4.116   4.380  17.124  0.00  0.00    +0.000 A 
ATOM      8  N   UNL     1       3.695   3.121  17.450  0.00  0.00    +0.000 N 
ATOM      9  C   UNL     1       2.835   3.184  18.522  0.00  0.00    +0.000 A 
ATOM     10  C   UNL     1       2.277   2.150  19.279  0.00  0.00    +0.000 A 
ATOM     11  C   UNL     1       1.431   2.508  20.331  0.00  0.00    +0.000 A 
ATOM     12  C   UNL     1       1.135   3.844  20.591  0.00  0.00    +0.000 A 
ATOM     13  C   UNL     1       1.699   4.867  19.819  0.00  0.00    +0.000 A 
ATOM     14  C   UNL     1       2.586   4.535  18.778  0.00  0.00    +0.000 A 
ATOM     15  H   UNL     1       4.026   2.261  17.036  0.00  0.00    +0.000 HD
ENDROOT
TORSDOF 0
ENDMDL
MODEL 7
REMARK VINA RESULT:      -6.5      1.946      4.896
REMARK  Name = 
REMARK  1 active torsions:
REMARK  status: ('A' for Active; 'I' for Inactive)
REMARK    1  A    between atoms: C_1  and  C_2
REMARK                            x       y       z     vdW  Elec       q    Type
REMARK                         _______ _______ _______ _____ _____    ______ ____
ROOT
ATOM      1  C   UNL     1       3.722   1.106  18.868  0.00  0.00    +0.000 C 
ATOM      2  C   UNL     1       3.201   2.482  18.558  0.00  0.00    +0.000 C 
ATOM      3  N   UNL     1       1.949   2.662  18.323  0.00  0.00    +0.000 NA
ATOM      4  C   UNL     1       1.407   3.963  17.864  0.00  0.00    +0.000 C 
ATOM      5  C   UNL     1       2.337   5.198  17.894  0.00  0.00    +0.000 C 
ATOM      6  C   UNL     1       3.766   4.843  18.099  0.00  0.00    +0.000 A 
ATOM      7  C   UNL     1       4.135   3.558  18.422  0.00  0.00    +0.000 A 
ATOM      8  N   UNL     1       5.498   3.517  18.517  0.00  0.00    +0.000 N 
ATOM      9  C   UNL     1       6.026   4.722  18.117  0.00  0.00    +0.000 A 
ATOM     10  C   UNL     1       7.360   5.088  17.915  0.00  0.00    +0.000 A 
ATOM     11  C   UNL     1       7.611   6.396  17.495  0.00  0.00    +0.000 A 
ATOM     12  C   UNL     1       6.571   7.305  17.317  0.00  0.00    +0.000 A 
ATOM     13  C   UNL     1       5.241   6.923  17.529  0.00  0.00    +0.000 A 
ATOM     14  C   UNL     1       4.958   5.600  17.914  0.00  0.00    +0.000 A 
ATOM     15  H   UNL     1       6.050   2.705  18.755  0.00  0.00    +0.000 HD
ENDROOT
TORSDOF 0
ENDMDL
MODEL 8
REMARK VINA RESULT:      -6.5      1.525      4.706
REMARK  Name = 
REMARK  1 active torsions:
REMARK  status: ('A' for Active; 'I' for Inactive)
REMARK    1  A    between atoms: C_1  and  C_2
REMARK                            x       y       z     vdW  Elec       q    Type
REMARK                         _______ _______ _______ _____ _____    ______ ____
ROOT
ATOM      1  C   UNL     1       1.786   5.408  20.798  0.00  0.00    +0.000 C 
ATOM      2  C   UNL     1       1.998   4.469  19.642  0.00  0.00    +0.000 C 
ATOM      3  N   UNL     1       1.288   3.403  19.535  0.00  0.00    +0.000 NA
ATOM      4  C   UNL     1       1.556   2.371  18.507  0.00  0.00    +0.000 C 
ATOM      5  C   UNL     1       2.571   2.696  17.386  0.00  0.00    +0.000 C 
ATOM      6  C   UNL     1       3.379   3.911  17.671  0.00  0.00    +0.000 A 
ATOM      7  C   UNL     1       3.074   4.729  18.734  0.00  0.00    +0.000 A 
ATOM      8  N   UNL     1       3.993   5.739  18.772  0.00  0.00    +0.000 N 
ATOM      9  C   UNL     1       4.975   5.507  17.837  0.00  0.00    +0.000 A 
ATOM     10  C   UNL     1       6.177   6.187  17.618  0.00  0.00    +0.000 A 
ATOM     11  C   UNL     1       7.000   5.724  16.591  0.00  0.00    +0.000 A 
ATOM     12  C   UNL     1       6.618   4.644  15.797  0.00  0.00    +0.000 A 
ATOM     13  C   UNL     1       5.408   3.978  16.027  0.00  0.00    +0.000 A 
ATOM     14  C   UNL     1       4.580   4.400  17.082  0.00  0.00    +0.000 A 
ATOM     15  H   UNL     1       4.011   6.498  19.440  0.00  0.00    +0.000 HD
ENDROOT
TORSDOF 0
ENDMDL
MODEL 9
REMARK VINA RESULT:      -6.5      1.067      2.491
REMARK  Name = 
REMARK  1 active torsions:
REMARK  status: ('A' for Active; 'I' for Inactive)
REMARK    1  A    between atoms: C_1  and  C_2
REMARK                            x       y       z     vdW  Elec       q    Type
REMARK                         _______ _______ _______ _____ _____    ______ ____
ROOT
ATOM      1  C   UNL     1       6.323   3.957  14.452  0.00  0.00    +0.000 C 
ATOM      2  C   UNL     1       6.267   4.923  15.603  0.00  0.00    +0.000 C 
ATOM      3  N   UNL     1       7.280   5.665  15.876  0.00  0.00    +0.000 NA
ATOM      4  C   UNL     1       7.336   6.520  17.085  0.00  0.00    +0.000 C 
ATOM      5  C   UNL     1       6.045   6.700  17.917  0.00  0.00    +0.000 C 
ATOM      6  C   UNL     1       4.979   5.730  17.552  0.00  0.00    +0.000 A 
ATOM      7  C   UNL     1       5.112   4.918  16.450  0.00  0.00    +0.000 A 
ATOM      8  N   UNL     1       4.009   4.115  16.376  0.00  0.00    +0.000 N 
ATOM      9  C   UNL     1       3.231   4.294  17.497  0.00  0.00    +0.000 A 
ATOM     10  C   UNL     1       2.098   3.591  17.918  0.00  0.00    +0.000 A 
ATOM     11  C   UNL     1       1.505   3.988  19.118  0.00  0.00    +0.000 A 
ATOM     12  C   UNL     1       2.008   5.063  19.847  0.00  0.00    +0.000 A 
ATOM     13  C   UNL     1       3.141   5.759  19.408  0.00  0.00    +0.000 A 
ATOM     14  C   UNL     1       3.781   5.354  18.222  0.00  0.00    +0.000 A 
ATOM     15  H   UNL     1       3.825   3.426  15.661  0.00  0.00    +0.000 HD
ENDROOT
TORSDOF 0
ENDMDL
