MODEL 1
REMARK VINA RESULT:      -7.9      0.000      0.000
REMARK  Name = 
REMARK  4 active torsions:
REMARK  status: ('A' for Active; 'I' for Inactive)
REMARK    1  A    between atoms: C_1  and  C_2
REMARK    2  A    between atoms: C_5  and  C_6
REMARK    3  A    between atoms: C_6  and  N_7
REMARK    4  A    between atoms: C_13  and  C_14
REMARK                            x       y       z     vdW  Elec       q    Type
REMARK                         _______ _______ _______ _____ _____    ______ ____
ROOT
ATOM      1  C   UNL     1      -0.236   9.880  21.406  0.00  0.00    +0.000 C 
ATOM      2  C   UNL     1       0.670   9.314  20.349  0.00  0.00    +0.000 A 
ATOM      3  C   UNL     1       1.417   8.190  20.504  0.00  0.00    +0.000 A 
ATOM      4  N   UNL     1       2.211   7.733  19.438  0.00  0.00    +0.000 N 
ATOM      5  C   UNL     1       3.031   6.616  19.193  0.00  0.00    +0.000 A 
ATOM      6  C   UNL     1       3.464   6.830  17.868  0.00  0.00    +0.000 A 
ATOM      7  N   UNL     1       2.984   8.028  17.375  0.00  0.00    +0.000 NA
ATOM      8  C   UNL     1       2.213   8.500  18.304  0.00  0.00    +0.000 A 
ATOM      9  C   UNL     1       1.388   9.665  18.196  0.00  0.00    +0.000 A 
ATOM     10  N   UNL     1       0.638  10.071  19.178  0.00  0.00    +0.000 NA
ENDROOT
BRANCH   6  11
ATOM     11  C   UNL     1       4.211   6.027  16.896  0.00  0.00    +0.000 A 
ATOM     12  C   UNL     1       5.085   6.533  15.933  0.00  0.00    +0.000 A 
ATOM     13  C   UNL     1       5.863   5.665  15.154  0.00  0.00    +0.000 A 
ATOM     14  C   UNL     1       5.804   4.290  15.360  0.00  0.00    +0.000 A 
ATOM     15  F   UNL     1       6.591   3.476  14.646  0.00  0.00    +0.000 F 
ATOM     16  C   UNL     1       4.961   3.753  16.311  0.00  0.00    +0.000 A 
ATOM     17  C   UNL     1       4.163   4.618  17.060  0.00  0.00    +0.000 A 
ENDBRANCH   6  11
BRANCH   5  18
ATOM     18  C   UNL     1       3.149   5.444  20.161  0.00  0.00    +0.000 C 
BRANCH  18  19
ATOM     19  N   UNL     1       1.904   4.766  20.562  0.00  0.00    +0.000 NA
ATOM     20  C   UNL     1       2.036   3.727  21.597  0.00  0.00    +0.000 C 
ATOM     21  C   UNL     1       2.610   2.374  21.138  0.00  0.00    +0.000 C 
ATOM     22  O   UNL     1       1.985   1.826  19.979  0.00  0.00    +0.000 OA
ATOM     23  C   UNL     1       1.709   2.756  18.936  0.00  0.00    +0.000 C 
ATOM     24  C   UNL     1       1.191   4.129  19.419  0.00  0.00    +0.000 C 
ENDBRANCH  18  19
ENDBRANCH   5  18
TORSDOF 3
ENDMDL
MODEL 2
REMARK VINA RESULT:      -7.7      0.986      1.452
REMARK  Name = 
REMARK  4 active torsions:
REMARK  status: ('A' for Active; 'I' for Inactive)
REMARK    1  A    between atoms: C_1  and  C_2
REMARK    2  A    between atoms: C_5  and  C_6
REMARK    3  A    between atoms: C_6  and  N_7
REMARK    4  A    between atoms: C_13  and  C_14
REMARK                            x       y       z     vdW  Elec       q    Type
REMARK                         _______ _______ _______ _____ _____    ______ ____
ROOT
ATOM      1  C   UNL     1      -0.041   9.007  21.678  0.00  0.00    +0.000 C 
ATOM      2  C   UNL     1       0.923   8.540  20.624  0.00  0.00    +0.000 A 
ATOM      3  C   UNL     1       1.666   7.406  20.715  0.00  0.00    +0.000 A 
ATOM      4  N   UNL     1       2.517   7.048  19.656  0.00  0.00    +0.000 N 
ATOM      5  C   UNL     1       3.354   5.958  19.354  0.00  0.00    +0.000 A 
ATOM      6  C   UNL     1       3.856   6.292  18.080  0.00  0.00    +0.000 A 
ATOM      7  N   UNL     1       3.398   7.531  17.674  0.00  0.00    +0.000 NA
ATOM      8  C   UNL     1       2.577   7.916  18.599  0.00  0.00    +0.000 A 
ATOM      9  C   UNL     1       1.754   9.086  18.554  0.00  0.00    +0.000 A 
ATOM     10  N   UNL     1       0.950   9.401  19.528  0.00  0.00    +0.000 NA
ENDROOT
BRANCH   6  11
ATOM     11  C   UNL     1       4.658   5.582  17.079  0.00  0.00    +0.000 A 
ATOM     12  C   UNL     1       4.921   4.212  17.080  0.00  0.00    +0.000 A 
ATOM     13  C   UNL     1       5.573   3.612  15.993  0.00  0.00    +0.000 A 
ATOM     14  C   UNL     1       5.928   4.370  14.881  0.00  0.00    +0.000 A 
ATOM     15  F   UNL     1       6.502   3.777  13.827  0.00  0.00    +0.000 F 
ATOM     16  C   UNL     1       5.673   5.726  14.838  0.00  0.00    +0.000 A 
ATOM     17  C   UNL     1       5.056   6.324  15.937  0.00  0.00    +0.000 A 
ENDBRANCH   6  11
BRANCH   5  18
ATOM     18  C   UNL     1       3.425   4.702  20.215  0.00  0.00    +0.000 C 
BRANCH  18  19
ATOM     19  N   UNL     1       2.246   3.818  20.227  0.00  0.00    +0.000 NA
ATOM     20  C   UNL     1       2.518   2.373  20.142  0.00  0.00    +0.000 C 
ATOM     21  C   UNL     1       2.898   1.829  18.754  0.00  0.00    +0.000 C 
ATOM     22  O   UNL     1       2.016   2.217  17.702  0.00  0.00    +0.000 OA
ATOM     23  C   UNL     1       1.595   3.578  17.728  0.00  0.00    +0.000 C 
ATOM     24  C   UNL     1       1.276   4.124  19.138  0.00  0.00    +0.000 C 
ENDBRANCH  18  19
ENDBRANCH   5  18
TORSDOF 3
ENDMDL
MODEL 3
REMARK VINA RESULT:      -7.7      0.842      1.543
REMARK  Name = 
REMARK  4 active torsions:
REMARK  status: ('A' for Active; 'I' for Inactive)
REMARK    1  A    between atoms: C_1  and  C_2
REMARK    2  A    between atoms: C_5  and  C_6
REMARK    3  A    between atoms: C_6  and  N_7
REMARK    4  A    between atoms: C_13  and  C_14
REMARK                            x       y       z     vdW  Elec       q    Type
REMARK                         _______ _______ _______ _____ _____    ______ ____
ROOT
ATOM      1  C   UNL     1      -0.009   9.606  21.017  0.00  0.00    +0.000 C 
ATOM      2  C   UNL     1       0.958   9.013  20.031  0.00  0.00    +0.000 A 
ATOM      3  C   UNL     1       1.659   7.869  20.241  0.00  0.00    +0.000 A 
ATOM      4  N   UNL     1       2.518   7.388  19.239  0.00  0.00    +0.000 N 
ATOM      5  C   UNL     1       3.322   6.248  19.055  0.00  0.00    +0.000 A 
ATOM      6  C   UNL     1       3.860   6.447  17.767  0.00  0.00    +0.000 A 
ATOM      7  N   UNL     1       3.452   7.658  17.240  0.00  0.00    +0.000 NA
ATOM      8  C   UNL     1       2.627   8.153  18.108  0.00  0.00    +0.000 A 
ATOM      9  C   UNL     1       1.846   9.340  17.938  0.00  0.00    +0.000 A 
ATOM     10  N   UNL     1       1.036   9.769  18.862  0.00  0.00    +0.000 NA
ENDROOT
BRANCH   6  11
ATOM     11  C   UNL     1       4.655   5.623  16.854  0.00  0.00    +0.000 A 
ATOM     12  C   UNL     1       4.790   4.236  16.927  0.00  0.00    +0.000 A 
ATOM     13  C   UNL     1       5.453   3.531  15.912  0.00  0.00    +0.000 A 
ATOM     14  C   UNL     1       5.948   4.202  14.797  0.00  0.00    +0.000 A 
ATOM     15  F   UNL     1       6.531   3.511  13.810  0.00  0.00    +0.000 F 
ATOM     16  C   UNL     1       5.823   5.572  14.683  0.00  0.00    +0.000 A 
ATOM     17  C   UNL     1       5.194   6.272  15.712  0.00  0.00    +0.000 A 
ENDBRANCH   6  11
BRANCH   5  18
ATOM     18  C   UNL     1       3.334   5.075  20.028  0.00  0.00    +0.000 C 
BRANCH  18  19
ATOM     19  N   UNL     1       2.671   3.830  19.600  0.00  0.00    +0.000 NA
ATOM     20  C   UNL     1       1.314   3.605  20.125  0.00  0.00    +0.000 C 
ATOM     21  C   UNL     1       1.216   3.138  21.589  0.00  0.00    +0.000 C 
ATOM     22  O   UNL     1       2.051   2.030  21.916  0.00  0.00    +0.000 OA
ATOM     23  C   UNL     1       3.370   2.079  21.380  0.00  0.00    +0.000 C 
ATOM     24  C   UNL     1       3.455   2.607  19.931  0.00  0.00    +0.000 C 
ENDBRANCH  18  19
ENDBRANCH   5  18
TORSDOF 3
ENDMDL
MODEL 4
REMARK VINA RESULT:      -7.4      2.912      5.848
REMARK  Name = 
REMARK  4 active torsions:
REMARK  status: ('A' for Active; 'I' for Inactive)
REMARK    1  A    between atoms: C_1  and  C_2
REMARK    2  A    between atoms: C_5  and  C_6
REMARK    3  A    between atoms: C_6  and  N_7
REMARK    4  A    between atoms: C_13  and  C_14
REMARK                            x       y       z     vdW  Elec       q    Type
REMARK                         _______ _______ _______ _____ _____    ______ ____
ROOT
ATOM      1  C   UNL     1       6.898   3.974  15.390  0.00  0.00    +0.000 C 
ATOM      2  C   UNL     1       6.032   4.979  16.097  0.00  0.00    +0.000 A 
ATOM      3  C   UNL     1       4.748   4.748  16.479  0.00  0.00    +0.000 A 
ATOM      4  N   UNL     1       4.036   5.749  17.160  0.00  0.00    +0.000 N 
ATOM      5  C   UNL     1       2.769   5.860  17.761  0.00  0.00    +0.000 A 
ATOM      6  C   UNL     1       2.785   7.167  18.287  0.00  0.00    +0.000 A 
ATOM      7  N   UNL     1       3.961   7.818  17.967  0.00  0.00    +0.000 NA
ATOM      8  C   UNL     1       4.687   6.938  17.354  0.00  0.00    +0.000 A 
ATOM      9  C   UNL     1       6.048   7.113  16.945  0.00  0.00    +0.000 A 
ATOM     10  N   UNL     1       6.709   6.173  16.334  0.00  0.00    +0.000 NA
ENDROOT
BRANCH   6  11
ATOM     11  C   UNL     1       1.887   7.928  19.161  0.00  0.00    +0.000 A 
ATOM     12  C   UNL     1       1.653   7.658  20.510  0.00  0.00    +0.000 A 
ATOM     13  C   UNL     1       0.891   8.540  21.290  0.00  0.00    +0.000 A 
ATOM     14  C   UNL     1       0.395   9.718  20.738  0.00  0.00    +0.000 A 
ATOM     15  F   UNL     1      -0.285  10.577  21.507  0.00  0.00    +0.000 F 
ATOM     16  C   UNL     1       0.616  10.025  19.411  0.00  0.00    +0.000 A 
ATOM     17  C   UNL     1       1.344   9.128  18.631  0.00  0.00    +0.000 A 
ENDBRANCH   6  11
BRANCH   5  18
ATOM     18  C   UNL     1       1.810   4.683  17.900  0.00  0.00    +0.000 C 
BRANCH  18  19
ATOM     19  N   UNL     1       1.775   3.985  19.198  0.00  0.00    +0.000 NA
ATOM     20  C   UNL     1       3.005   4.054  20.004  0.00  0.00    +0.000 C 
ATOM     21  C   UNL     1       4.165   3.145  19.561  0.00  0.00    +0.000 C 
ATOM     22  O   UNL     1       3.803   1.782  19.346  0.00  0.00    +0.000 OA
ATOM     23  C   UNL     1       2.572   1.577  18.660  0.00  0.00    +0.000 C 
ATOM     24  C   UNL     1       1.437   2.539  19.075  0.00  0.00    +0.000 C 
ENDBRANCH  18  19
ENDBRANCH   5  18
TORSDOF 3
ENDMDL
MODEL 5
REMARK VINA RESULT:      -7.4      2.901      5.894
REMARK  Name = 
REMARK  4 active torsions:
REMARK  status: ('A' for Active; 'I' for Inactive)
REMARK    1  A    between atoms: C_1  and  C_2
REMARK    2  A    between atoms: C_5  and  C_6
REMARK    3  A    between atoms: C_6  and  N_7
REMARK    4  A    between atoms: C_13  and  C_14
REMARK                            x       y       z     vdW  Elec       q    Type
REMARK                         _______ _______ _______ _____ _____    ______ ____
ROOT
ATOM      1  C   UNL     1       6.988   4.020  15.319  0.00  0.00    +0.000 C 
ATOM      2  C   UNL     1       6.112   5.010  16.033  0.00  0.00    +0.000 A 
ATOM      3  C   UNL     1       4.848   4.746  16.457  0.00  0.00    +0.000 A 
ATOM      4  N   UNL     1       4.125   5.738  17.140  0.00  0.00    +0.000 N 
ATOM      5  C   UNL     1       2.873   5.821  17.776  0.00  0.00    +0.000 A 
ATOM      6  C   UNL     1       2.862   7.139  18.278  0.00  0.00    +0.000 A 
ATOM      7  N   UNL     1       4.008   7.820  17.911  0.00  0.00    +0.000 NA
ATOM      8  C   UNL     1       4.743   6.950  17.292  0.00  0.00    +0.000 A 
ATOM      9  C   UNL     1       6.085   7.160  16.840  0.00  0.00    +0.000 A 
ATOM     10  N   UNL     1       6.758   6.229  16.227  0.00  0.00    +0.000 NA
ENDROOT
BRANCH   6  11
ATOM     11  C   UNL     1       1.967   7.887  19.164  0.00  0.00    +0.000 A 
ATOM     12  C   UNL     1       1.715   7.583  20.502  0.00  0.00    +0.000 A 
ATOM     13  C   UNL     1       0.958   8.455  21.299  0.00  0.00    +0.000 A 
ATOM     14  C   UNL     1       0.485   9.654  20.776  0.00  0.00    +0.000 A 
ATOM     15  F   UNL     1      -0.190  10.502  21.562  0.00  0.00    +0.000 F 
ATOM     16  C   UNL     1       0.725   9.996  19.461  0.00  0.00    +0.000 A 
ATOM     17  C   UNL     1       1.447   9.110  18.662  0.00  0.00    +0.000 A 
ENDBRANCH   6  11
BRANCH   5  18
ATOM     18  C   UNL     1       1.956   4.618  17.966  0.00  0.00    +0.000 C 
BRANCH  18  19
ATOM     19  N   UNL     1       2.511   3.445  18.666  0.00  0.00    +0.000 NA
ATOM     20  C   UNL     1       1.563   2.356  18.956  0.00  0.00    +0.000 C 
ATOM     21  C   UNL     1       0.596   2.585  20.131  0.00  0.00    +0.000 C 
ATOM     22  O   UNL     1       1.221   3.017  21.339  0.00  0.00    +0.000 OA
ATOM     23  C   UNL     1       2.235   4.005  21.183  0.00  0.00    +0.000 C 
ATOM     24  C   UNL     1       3.158   3.791  19.963  0.00  0.00    +0.000 C 
ENDBRANCH  18  19
ENDBRANCH   5  18
TORSDOF 3
ENDMDL
MODEL 6
REMARK VINA RESULT:      -7.3      2.884      5.805
REMARK  Name = 
REMARK  4 active torsions:
REMARK  status: ('A' for Active; 'I' for Inactive)
REMARK    1  A    between atoms: C_1  and  C_2
REMARK    2  A    between atoms: C_5  and  C_6
REMARK    3  A    between atoms: C_6  and  N_7
REMARK    4  A    between atoms: C_13  and  C_14
REMARK                            x       y       z     vdW  Elec       q    Type
REMARK                         _______ _______ _______ _____ _____    ______ ____
ROOT
ATOM      1  C   UNL     1       7.030   4.254  15.756  0.00  0.00    +0.000 C 
ATOM      2  C   UNL     1       5.961   5.148  16.318  0.00  0.00    +0.000 A 
ATOM      3  C   UNL     1       5.204   4.846  17.405  0.00  0.00    +0.000 A 
ATOM      4  N   UNL     1       4.249   5.768  17.864  0.00  0.00    +0.000 N 
ATOM      5  C   UNL     1       3.363   5.851  18.953  0.00  0.00    +0.000 A 
ATOM      6  C   UNL     1       2.751   7.107  18.765  0.00  0.00    +0.000 A 
ATOM      7  N   UNL     1       3.197   7.709  17.603  0.00  0.00    +0.000 NA
ATOM      8  C   UNL     1       4.110   6.918  17.134  0.00  0.00    +0.000 A 
ATOM      9  C   UNL     1       4.952   7.188  16.008  0.00  0.00    +0.000 A 
ATOM     10  N   UNL     1       5.850   6.339  15.601  0.00  0.00    +0.000 NA
ENDROOT
BRANCH   6  11
ATOM     11  C   UNL     1       1.842   7.932  19.567  0.00  0.00    +0.000 A 
ATOM     12  C   UNL     1       1.496   7.692  20.897  0.00  0.00    +0.000 A 
ATOM     13  C   UNL     1       0.738   8.628  21.615  0.00  0.00    +0.000 A 
ATOM     14  C   UNL     1       0.358   9.828  21.021  0.00  0.00    +0.000 A 
ATOM     15  F   UNL     1      -0.320  10.737  21.733  0.00  0.00    +0.000 F 
ATOM     16  C   UNL     1       0.692  10.107  19.711  0.00  0.00    +0.000 A 
ATOM     17  C   UNL     1       1.415   9.157  18.991  0.00  0.00    +0.000 A 
ENDBRANCH   6  11
BRANCH   5  18
ATOM     18  C   UNL     1       3.344   4.833  20.088  0.00  0.00    +0.000 C 
BRANCH  18  19
ATOM     19  N   UNL     1       2.283   3.811  20.066  0.00  0.00    +0.000 NA
ATOM     20  C   UNL     1       2.733   2.409  20.109  0.00  0.00    +0.000 C 
ATOM     21  C   UNL     1       3.298   1.832  18.799  0.00  0.00    +0.000 C 
ATOM     22  O   UNL     1       2.475   2.042  17.653  0.00  0.00    +0.000 OA
ATOM     23  C   UNL     1       1.893   3.337  17.547  0.00  0.00    +0.000 C 
ATOM     24  C   UNL     1       1.386   3.925  18.882  0.00  0.00    +0.000 C 
ENDBRANCH  18  19
ENDBRANCH   5  18
TORSDOF 3
ENDMDL
MODEL 7
REMARK VINA RESULT:      -7.3      1.538      2.351
REMARK  Name = 
REMARK  4 active torsions:
REMARK  status: ('A' for Active; 'I' for Inactive)
REMARK    1  A    between atoms: C_1  and  C_2
REMARK    2  A    between atoms: C_5  and  C_6
REMARK    3  A    between atoms: C_6  and  N_7
REMARK    4  A    between atoms: C_13  and  C_14
REMARK                            x       y       z     vdW  Elec       q    Type
REMARK                         _______ _______ _______ _____ _____    ______ ____
ROOT
ATOM      1  C   UNL     1       0.957   8.111  21.171  0.00  0.00    +0.000 C 
ATOM      2  C   UNL     1       1.837   7.758  20.006  0.00  0.00    +0.000 A 
ATOM      3  C   UNL     1       2.616   6.646  19.945  0.00  0.00    +0.000 A 
ATOM      4  N   UNL     1       3.381   6.397  18.794  0.00  0.00    +0.000 N 
ATOM      5  C   UNL     1       4.218   5.362  18.338  0.00  0.00    +0.000 A 
ATOM      6  C   UNL     1       4.597   5.807  17.055  0.00  0.00    +0.000 A 
ATOM      7  N   UNL     1       4.072   7.057  16.787  0.00  0.00    +0.000 NA
ATOM      8  C   UNL     1       3.325   7.343  17.806  0.00  0.00    +0.000 A 
ATOM      9  C   UNL     1       2.469   8.485  17.921  0.00  0.00    +0.000 A 
ATOM     10  N   UNL     1       1.745   8.699  18.981  0.00  0.00    +0.000 NA
ENDROOT
BRANCH   6  11
ATOM     11  C   UNL     1       5.328   5.201  15.938  0.00  0.00    +0.000 A 
ATOM     12  C   UNL     1       4.759   4.429  14.925  0.00  0.00    +0.000 A 
ATOM     13  C   UNL     1       5.526   4.025  13.822  0.00  0.00    +0.000 A 
ATOM     14  C   UNL     1       6.854   4.425  13.706  0.00  0.00    +0.000 A 
ATOM     15  F   UNL     1       7.560   4.077  12.623  0.00  0.00    +0.000 F 
ATOM     16  C   UNL     1       7.449   5.198  14.682  0.00  0.00    +0.000 A 
ATOM     17  C   UNL     1       6.692   5.568  15.793  0.00  0.00    +0.000 A 
ENDBRANCH   6  11
BRANCH   5  18
ATOM     18  C   UNL     1       4.398   4.048  19.090  0.00  0.00    +0.000 C 
BRANCH  18  19
ATOM     19  N   UNL     1       3.681   2.867  18.576  0.00  0.00    +0.000 NA
ATOM     20  C   UNL     1       2.581   3.136  17.635  0.00  0.00    +0.000 C 
ATOM     21  C   UNL     1       1.267   3.652  18.249  0.00  0.00    +0.000 C 
ATOM     22  O   UNL     1       0.785   2.885  19.351  0.00  0.00    +0.000 OA
ATOM     23  C   UNL     1       1.774   2.473  20.289  0.00  0.00    +0.000 C 
ATOM     24  C   UNL     1       3.108   2.016  19.657  0.00  0.00    +0.000 C 
ENDBRANCH  18  19
ENDBRANCH   5  18
TORSDOF 3
ENDMDL
MODEL 8
REMARK VINA RESULT:      -7.3      2.882      5.708
REMARK  Name = 
REMARK  4 active torsions:
REMARK  status: ('A' for Active; 'I' for Inactive)
REMARK    1  A    between atoms: C_1  and  C_2
REMARK    2  A    between atoms: C_5  and  C_6
REMARK    3  A    between atoms: C_6  and  N_7
REMARK    4  A    between atoms: C_13  and  C_14
REMARK                            x       y       z     vdW  Elec       q    Type
REMARK                         _______ _______ _______ _____ _____    ______ ____
ROOT
ATOM      1  C   UNL     1       7.391   4.347  16.936  0.00  0.00    +0.000 C 
ATOM      2  C   UNL     1       6.259   5.313  17.145  0.00  0.00    +0.000 A 
ATOM      3  C   UNL     1       5.223   5.103  17.999  0.00  0.00    +0.000 A 
ATOM      4  N   UNL     1       4.230   6.086  18.138  0.00  0.00    +0.000 N 
ATOM      5  C   UNL     1       3.088   6.267  18.941  0.00  0.00    +0.000 A 
ATOM      6  C   UNL     1       2.616   7.532  18.536  0.00  0.00    +0.000 A 
ATOM      7  N   UNL     1       3.389   8.047  17.512  0.00  0.00    +0.000 NA
ATOM      8  C   UNL     1       4.352   7.196  17.345  0.00  0.00    +0.000 A 
ATOM      9  C   UNL     1       5.478   7.367  16.478  0.00  0.00    +0.000 A 
ATOM     10  N   UNL     1       6.408   6.462  16.371  0.00  0.00    +0.000 NA
ENDROOT
BRANCH   6  11
ATOM     11  C   UNL     1       1.570   8.436  19.022  0.00  0.00    +0.000 A 
ATOM     12  C   UNL     1       1.217   8.617  20.360  0.00  0.00    +0.000 A 
ATOM     13  C   UNL     1       0.306   9.618  20.726  0.00  0.00    +0.000 A 
ATOM     14  C   UNL     1      -0.225  10.471  19.763  0.00  0.00    +0.000 A 
ATOM     15  F   UNL     1      -1.052  11.457  20.132  0.00  0.00    +0.000 F 
ATOM     16  C   UNL     1       0.110  10.332  18.432  0.00  0.00    +0.000 A 
ATOM     17  C   UNL     1       0.989   9.312  18.068  0.00  0.00    +0.000 A 
ENDBRANCH   6  11
BRANCH   5  18
ATOM     18  C   UNL     1       2.712   5.318  20.074  0.00  0.00    +0.000 C 
BRANCH  18  19
ATOM     19  N   UNL     1       1.459   4.557  19.934  0.00  0.00    +0.000 NA
ATOM     20  C   UNL     1       1.236   3.488  20.923  0.00  0.00    +0.000 C 
ATOM     21  C   UNL     1       2.034   2.189  20.717  0.00  0.00    +0.000 C 
ATOM     22  O   UNL     1       1.962   1.650  19.399  0.00  0.00    +0.000 OA
ATOM     23  C   UNL     1       2.064   2.601  18.343  0.00  0.00    +0.000 C 
ATOM     24  C   UNL     1       1.306   3.924  18.594  0.00  0.00    +0.000 C 
ENDBRANCH  18  19
ENDBRANCH   5  18
TORSDOF 3
ENDMDL
MODEL 9
REMARK VINA RESULT:      -7.3      2.857      5.762
REMARK  Name = 
REMARK  4 active torsions:
REMARK  status: ('A' for Active; 'I' for Inactive)
REMARK    1  A    between atoms: C_1  and  C_2
REMARK    2  A    between atoms: C_5  and  C_6
REMARK    3  A    between atoms: C_6  and  N_7
REMARK    4  A    between atoms: C_13  and  C_14
REMARK                            x       y       z     vdW  Elec       q    Type
REMARK                         _______ _______ _______ _____ _____    ______ ____
ROOT
ATOM      1  C   UNL     1       6.465   3.657  15.331  0.00  0.00    +0.000 C 
ATOM      2  C   UNL     1       5.711   4.760  16.019  0.00  0.00    +0.000 A 
ATOM      3  C   UNL     1       4.445   4.638  16.498  0.00  0.00    +0.000 A 
ATOM      4  N   UNL     1       3.843   5.726  17.150  0.00  0.00    +0.000 N 
ATOM      5  C   UNL     1       2.629   5.959  17.822  0.00  0.00    +0.000 A 
ATOM      6  C   UNL     1       2.759   7.295  18.252  0.00  0.00    +0.000 A 
ATOM      7  N   UNL     1       3.947   7.846  17.811  0.00  0.00    +0.000 NA
ATOM      8  C   UNL     1       4.575   6.882  17.217  0.00  0.00    +0.000 A 
ATOM      9  C   UNL     1       5.913   6.941  16.709  0.00  0.00    +0.000 A 
ATOM     10  N   UNL     1       6.473   5.922  16.126  0.00  0.00    +0.000 NA
ENDROOT
BRANCH   6  11
ATOM     11  C   UNL     1       1.970   8.169  19.126  0.00  0.00    +0.000 A 
ATOM     12  C   UNL     1       1.294   9.319  18.720  0.00  0.00    +0.000 A 
ATOM     13  C   UNL     1       0.445   9.996  19.607  0.00  0.00    +0.000 A 
ATOM     14  C   UNL     1       0.235   9.505  20.892  0.00  0.00    +0.000 A 
ATOM     15  F   UNL     1      -0.618  10.130  21.713  0.00  0.00    +0.000 F 
ATOM     16  C   UNL     1       0.877   8.363  21.327  0.00  0.00    +0.000 A 
ATOM     17  C   UNL     1       1.747   7.712  20.452  0.00  0.00    +0.000 A 
ENDBRANCH   6  11
BRANCH   5  18
ATOM     18  C   UNL     1       1.614   4.858  18.107  0.00  0.00    +0.000 C 
BRANCH  18  19
ATOM     19  N   UNL     1       1.584   4.297  19.470  0.00  0.00    +0.000 NA
ATOM     20  C   UNL     1       2.879   4.219  20.167  0.00  0.00    +0.000 C 
ATOM     21  C   UNL     1       3.821   3.082  19.733  0.00  0.00    +0.000 C 
ATOM     22  O   UNL     1       3.216   1.792  19.692  0.00  0.00    +0.000 OA
ATOM     23  C   UNL     1       1.908   1.748  19.127  0.00  0.00    +0.000 C 
ATOM     24  C   UNL     1       0.996   2.929  19.526  0.00  0.00    +0.000 C 
ENDBRANCH  18  19
ENDBRANCH   5  18
TORSDOF 3
ENDMDL
