MODEL 1
REMARK VINA RESULT:      -6.4      0.000      0.000
REMARK  Name = 
REMARK  5 active torsions:
REMARK  status: ('A' for Active; 'I' for Inactive)
REMARK    1  A    between atoms: C_1  and  C_2
REMARK    2  A    between atoms: C_4  and  C_5
REMARK    3  A    between atoms: C_9  and  C_10
REMARK    4  A    between atoms: C_12  and  C_13
REMARK    5  A    between atoms: C_20  and  C_21
REMARK                            x       y       z     vdW  Elec       q    Type
REMARK                         _______ _______ _______ _____ _____    ______ ____
ROOT
ATOM      1  C   UNL     1      -7.483  14.399  23.402  0.00  0.00    +0.000 C 
ATOM      2  C   UNL     1      -6.831  13.857  22.155  0.00  0.00    +0.000 A 
ATOM      3  C   UNL     1      -7.702  13.738  20.944  0.00  0.00    +0.000 A 
ATOM      4  C   UNL     1      -7.121  13.258  19.833  0.00  0.00    +0.000 A 
ATOM      5  C   UNL     1      -7.862  13.078  18.543  0.00  0.00    +0.000 C 
ATOM      6  N   UNL     1      -5.766  12.908  19.871  0.00  0.00    +0.000 N 
ATOM      7  N   UNL     1      -5.024  12.416  18.849  0.00  0.00    +0.000 NA
ATOM      8  C   UNL     1      -3.787  12.236  19.333  0.00  0.00    +0.000 A 
ATOM      9  C   UNL     1      -2.630  11.755  18.683  0.00  0.00    +0.000 A 
ATOM     10  C   UNL     1      -1.454  11.646  19.479  0.00  0.00    +0.000 A 
ATOM     11  C   UNL     1      -1.514  12.050  20.872  0.00  0.00    +0.000 A 
ATOM     12  C   UNL     1      -2.648  12.572  21.572  0.00  0.00    +0.000 A 
ATOM     13  C   UNL     1      -3.753  12.619  20.718  0.00  0.00    +0.000 A 
ATOM     14  C   UNL     1      -5.018  13.047  21.047  0.00  0.00    +0.000 A 
ATOM     15  N   UNL     1      -5.572  13.534  22.201  0.00  0.00    +0.000 NA
ENDROOT
BRANCH  10  16
ATOM     16  C   UNL     1      -0.153  11.140  18.936  0.00  0.00    +0.000 A 
ATOM     17  C   UNL     1       0.004   9.794  18.548  0.00  0.00    +0.000 A 
ATOM     18  C   UNL     1       1.208   9.309  18.022  0.00  0.00    +0.000 A 
ATOM     19  C   UNL     1       2.306  10.151  17.905  0.00  0.00    +0.000 A 
ATOM     20  C   UNL     1       2.191  11.479  18.288  0.00  0.00    +0.000 A 
ATOM     21  C   UNL     1       0.973  11.970  18.770  0.00  0.00    +0.000 A 
ENDBRANCH  10  16
BRANCH  12  22
ATOM     22  C   UNL     1      -2.576  12.977  23.014  0.00  0.00    +0.000 C 
ATOM     23  F   UNL     1      -3.385  12.206  23.805  0.00  0.00    +0.000 F 
ATOM     24  F   UNL     1      -1.335  12.847  23.555  0.00  0.00    +0.000 F 
ATOM     25  F   UNL     1      -2.980  14.256  23.238  0.00  0.00    +0.000 F 
ENDBRANCH  12  22
BRANCH   9  26
ATOM     26  C   UNL     1      -2.765  11.432  17.300  0.00  0.00    +0.000 C 
ATOM     27  N   UNL     1      -2.909  11.205  16.170  0.00  0.00    +0.000 NA
ENDBRANCH   9  26
TORSDOF 3
ENDMDL
MODEL 2
REMARK VINA RESULT:      -6.3      3.579      5.000
REMARK  Name = 
REMARK  5 active torsions:
REMARK  status: ('A' for Active; 'I' for Inactive)
REMARK    1  A    between atoms: C_1  and  C_2
REMARK    2  A    between atoms: C_4  and  C_5
REMARK    3  A    between atoms: C_9  and  C_10
REMARK    4  A    between atoms: C_12  and  C_13
REMARK    5  A    between atoms: C_20  and  C_21
REMARK                            x       y       z     vdW  Elec       q    Type
REMARK                         _______ _______ _______ _____ _____    ______ ____
ROOT
ATOM      1  C   UNL     1      -5.414  13.994  19.904  0.00  0.00    +0.000 C 
ATOM      2  C   UNL     1      -4.175  13.333  20.452  0.00  0.00    +0.000 A 
ATOM      3  C   UNL     1      -3.800  13.679  21.859  0.00  0.00    +0.000 A 
ATOM      4  C   UNL     1      -2.698  13.089  22.348  0.00  0.00    +0.000 A 
ATOM      5  C   UNL     1      -2.195  13.337  23.738  0.00  0.00    +0.000 C 
ATOM      6  N   UNL     1      -1.983  12.203  21.534  0.00  0.00    +0.000 N 
ATOM      7  N   UNL     1      -0.860  11.520  21.865  0.00  0.00    +0.000 NA
ATOM      8  C   UNL     1      -0.530  10.791  20.790  0.00  0.00    +0.000 A 
ATOM      9  C   UNL     1       0.547   9.898  20.607  0.00  0.00    +0.000 A 
ATOM     10  C   UNL     1       0.653   9.285  19.326  0.00  0.00    +0.000 A 
ATOM     11  C   UNL     1      -0.345   9.595  18.319  0.00  0.00    +0.000 A 
ATOM     12  C   UNL     1      -1.473  10.465  18.461  0.00  0.00    +0.000 A 
ATOM     13  C   UNL     1      -1.478  11.033  19.737  0.00  0.00    +0.000 A 
ATOM     14  C   UNL     1      -2.398  11.932  20.224  0.00  0.00    +0.000 A 
ATOM     15  N   UNL     1      -3.517  12.512  19.688  0.00  0.00    +0.000 NA
ENDROOT
BRANCH  10  16
ATOM     16  C   UNL     1       1.749   8.326  18.975  0.00  0.00    +0.000 A 
ATOM     17  C   UNL     1       2.528   8.498  17.813  0.00  0.00    +0.000 A 
ATOM     18  C   UNL     1       3.568   7.622  17.480  0.00  0.00    +0.000 A 
ATOM     19  C   UNL     1       3.834   6.520  18.282  0.00  0.00    +0.000 A 
ATOM     20  C   UNL     1       3.079   6.311  19.427  0.00  0.00    +0.000 A 
ATOM     21  C   UNL     1       2.072   7.217  19.780  0.00  0.00    +0.000 A 
ENDBRANCH  10  16
BRANCH  12  22
ATOM     22  C   UNL     1      -2.452  10.686  17.346  0.00  0.00    +0.000 C 
ATOM     23  F   UNL     1      -2.066  10.061  16.192  0.00  0.00    +0.000 F 
ATOM     24  F   UNL     1      -3.695  10.198  17.607  0.00  0.00    +0.000 F 
ATOM     25  F   UNL     1      -2.597  11.995  17.006  0.00  0.00    +0.000 F 
ENDBRANCH  12  22
BRANCH   9  26
ATOM     26  C   UNL     1       1.412   9.706  21.726  0.00  0.00    +0.000 C 
ATOM     27  N   UNL     1       2.152   9.537  22.605  0.00  0.00    +0.000 NA
ENDBRANCH   9  26
TORSDOF 3
ENDMDL
MODEL 3
REMARK VINA RESULT:      -6.3      6.196     10.482
REMARK  Name = 
REMARK  5 active torsions:
REMARK  status: ('A' for Active; 'I' for Inactive)
REMARK    1  A    between atoms: C_1  and  C_2
REMARK    2  A    between atoms: C_4  and  C_5
REMARK    3  A    between atoms: C_9  and  C_10
REMARK    4  A    between atoms: C_12  and  C_13
REMARK    5  A    between atoms: C_20  and  C_21
REMARK                            x       y       z     vdW  Elec       q    Type
REMARK                         _______ _______ _______ _____ _____    ______ ____
ROOT
ATOM      1  C   UNL     1       4.695   1.399  17.411  0.00  0.00    +0.000 C 
ATOM      2  C   UNL     1       4.405   2.879  17.404  0.00  0.00    +0.000 A 
ATOM      3  C   UNL     1       5.025   3.675  16.299  0.00  0.00    +0.000 A 
ATOM      4  C   UNL     1       4.766   4.993  16.291  0.00  0.00    +0.000 A 
ATOM      5  C   UNL     1       5.316   5.921  15.252  0.00  0.00    +0.000 C 
ATOM      6  N   UNL     1       3.946   5.530  17.291  0.00  0.00    +0.000 N 
ATOM      7  N   UNL     1       3.578   6.827  17.432  0.00  0.00    +0.000 NA
ATOM      8  C   UNL     1       2.790   6.881  18.513  0.00  0.00    +0.000 A 
ATOM      9  C   UNL     1       2.134   7.988  19.092  0.00  0.00    +0.000 A 
ATOM     10  C   UNL     1       1.379   7.734  20.273  0.00  0.00    +0.000 A 
ATOM     11  C   UNL     1       1.316   6.376  20.782  0.00  0.00    +0.000 A 
ATOM     12  C   UNL     1       1.932   5.213  20.218  0.00  0.00    +0.000 A 
ATOM     13  C   UNL     1       2.665   5.567  19.083  0.00  0.00    +0.000 A 
ATOM     14  C   UNL     1       3.404   4.716  18.295  0.00  0.00    +0.000 A 
ATOM     15  N   UNL     1       3.644   3.369  18.337  0.00  0.00    +0.000 NA
ENDROOT
BRANCH  10  16
ATOM     16  C   UNL     1       0.639   8.809  21.009  0.00  0.00    +0.000 A 
ATOM     17  C   UNL     1       0.651   8.872  22.417  0.00  0.00    +0.000 A 
ATOM     18  C   UNL     1      -0.020   9.881  23.120  0.00  0.00    +0.000 A 
ATOM     19  C   UNL     1      -0.757  10.835  22.433  0.00  0.00    +0.000 A 
ATOM     20  C   UNL     1      -0.802  10.797  21.047  0.00  0.00    +0.000 A 
ATOM     21  C   UNL     1      -0.091   9.814  20.348  0.00  0.00    +0.000 A 
ENDBRANCH  10  16
BRANCH  12  22
ATOM     22  C   UNL     1       1.771   3.853  20.829  0.00  0.00    +0.000 C 
ATOM     23  F   UNL     1       1.130   2.985  19.988  0.00  0.00    +0.000 F 
ATOM     24  F   UNL     1       2.952   3.244  21.124  0.00  0.00    +0.000 F 
ATOM     25  F   UNL     1       1.026   3.856  21.967  0.00  0.00    +0.000 F 
ENDBRANCH  12  22
BRANCH   9  26
ATOM     26  C   UNL     1       2.299   9.242  18.431  0.00  0.00    +0.000 C 
ATOM     27  N   UNL     1       2.387  10.258  17.875  0.00  0.00    +0.000 NA
ENDBRANCH   9  26
TORSDOF 3
ENDMDL
MODEL 4
REMARK VINA RESULT:      -6.3     12.241     14.334
REMARK  Name = 
REMARK  5 active torsions:
REMARK  status: ('A' for Active; 'I' for Inactive)
REMARK    1  A    between atoms: C_1  and  C_2
REMARK    2  A    between atoms: C_4  and  C_5
REMARK    3  A    between atoms: C_9  and  C_10
REMARK    4  A    between atoms: C_12  and  C_13
REMARK    5  A    between atoms: C_20  and  C_21
REMARK                            x       y       z     vdW  Elec       q    Type
REMARK                         _______ _______ _______ _____ _____    ______ ____
ROOT
ATOM      1  C   UNL     1      11.692  13.408  16.589  0.00  0.00    +0.000 C 
ATOM      2  C   UNL     1      10.933  12.942  17.806  0.00  0.00    +0.000 A 
ATOM      3  C   UNL     1      10.377  11.554  17.755  0.00  0.00    +0.000 A 
ATOM      4  C   UNL     1       9.702  11.139  18.839  0.00  0.00    +0.000 A 
ATOM      5  C   UNL     1       9.085   9.777  18.937  0.00  0.00    +0.000 C 
ATOM      6  N   UNL     1       9.566  12.007  19.929  0.00  0.00    +0.000 N 
ATOM      7  N   UNL     1       8.927  11.752  21.097  0.00  0.00    +0.000 NA
ATOM      8  C   UNL     1       9.055  12.856  21.846  0.00  0.00    +0.000 A 
ATOM      9  C   UNL     1       8.583  13.115  23.151  0.00  0.00    +0.000 A 
ATOM     10  C   UNL     1       8.854  14.410  23.678  0.00  0.00    +0.000 A 
ATOM     11  C   UNL     1       9.601  15.352  22.866  0.00  0.00    +0.000 A 
ATOM     12  C   UNL     1      10.130  15.132  21.554  0.00  0.00    +0.000 A 
ATOM     13  C   UNL     1       9.795  13.849  21.116  0.00  0.00    +0.000 A 
ATOM     14  C   UNL     1      10.115  13.295  19.898  0.00  0.00    +0.000 A 
ATOM     15  N   UNL     1      10.811  13.756  18.813  0.00  0.00    +0.000 NA
ENDROOT
BRANCH  10  16
ATOM     16  C   UNL     1       8.406  14.839  25.042  0.00  0.00    +0.000 A 
ATOM     17  C   UNL     1       7.090  15.290  25.272  0.00  0.00    +0.000 A 
ATOM     18  C   UNL     1       6.651  15.677  26.544  0.00  0.00    +0.000 A 
ATOM     19  C   UNL     1       7.529  15.661  27.619  0.00  0.00    +0.000 A 
ATOM     20  C   UNL     1       8.835  15.235  27.427  0.00  0.00    +0.000 A 
ATOM     21  C   UNL     1       9.256  14.805  26.164  0.00  0.00    +0.000 A 
ENDBRANCH  10  16
BRANCH  12  22
ATOM     22  C   UNL     1      10.911  16.185  20.824  0.00  0.00    +0.000 C 
ATOM     23  F   UNL     1      11.124  17.294  21.597  0.00  0.00    +0.000 F 
ATOM     24  F   UNL     1      12.153  15.778  20.446  0.00  0.00    +0.000 F 
ATOM     25  F   UNL     1      10.282  16.647  19.710  0.00  0.00    +0.000 F 
ENDBRANCH  12  22
BRANCH   9  26
ATOM     26  C   UNL     1       7.886  12.052  23.798  0.00  0.00    +0.000 C 
ATOM     27  N   UNL     1       7.352  11.154  24.306  0.00  0.00    +0.000 NA
ENDBRANCH   9  26
TORSDOF 3
ENDMDL
MODEL 5
REMARK VINA RESULT:      -6.2     12.256     14.363
REMARK  Name = 
REMARK  5 active torsions:
REMARK  status: ('A' for Active; 'I' for Inactive)
REMARK    1  A    between atoms: C_1  and  C_2
REMARK    2  A    between atoms: C_4  and  C_5
REMARK    3  A    between atoms: C_9  and  C_10
REMARK    4  A    between atoms: C_12  and  C_13
REMARK    5  A    between atoms: C_20  and  C_21
REMARK                            x       y       z     vdW  Elec       q    Type
REMARK                         _______ _______ _______ _____ _____    ______ ____
ROOT
ATOM      1  C   UNL     1      11.815  13.378  16.699  0.00  0.00    +0.000 C 
ATOM      2  C   UNL     1      11.028  12.904  17.893  0.00  0.00    +0.000 A 
ATOM      3  C   UNL     1      10.464  11.520  17.816  0.00  0.00    +0.000 A 
ATOM      4  C   UNL     1       9.764  11.097  18.880  0.00  0.00    +0.000 A 
ATOM      5  C   UNL     1       9.136   9.738  18.950  0.00  0.00    +0.000 C 
ATOM      6  N   UNL     1       9.610  11.953  19.976  0.00  0.00    +0.000 N 
ATOM      7  N   UNL     1       8.944  11.690  21.127  0.00  0.00    +0.000 NA
ATOM      8  C   UNL     1       9.063  12.784  21.892  0.00  0.00    +0.000 A 
ATOM      9  C   UNL     1       8.565  13.032  23.189  0.00  0.00    +0.000 A 
ATOM     10  C   UNL     1       8.832  14.319  23.736  0.00  0.00    +0.000 A 
ATOM     11  C   UNL     1       9.603  15.266  22.951  0.00  0.00    +0.000 A 
ATOM     12  C   UNL     1      10.158  15.057  21.648  0.00  0.00    +0.000 A 
ATOM     13  C   UNL     1       9.824  13.781  21.189  0.00  0.00    +0.000 A 
ATOM     14  C   UNL     1      10.167  13.239  19.972  0.00  0.00    +0.000 A 
ATOM     15  N   UNL     1      10.889  13.707  18.907  0.00  0.00    +0.000 NA
ENDROOT
BRANCH  10  16
ATOM     16  C   UNL     1       8.358  14.736  25.095  0.00  0.00    +0.000 A 
ATOM     17  C   UNL     1       9.147  14.520  26.243  0.00  0.00    +0.000 A 
ATOM     18  C   UNL     1       8.727  14.919  27.518  0.00  0.00    +0.000 A 
ATOM     19  C   UNL     1       7.484  15.513  27.687  0.00  0.00    +0.000 A 
ATOM     20  C   UNL     1       6.675  15.730  26.581  0.00  0.00    +0.000 A 
ATOM     21  C   UNL     1       7.119  15.371  25.304  0.00  0.00    +0.000 A 
ENDBRANCH  10  16
BRANCH  12  22
ATOM     22  C   UNL     1      10.960  16.113  20.947  0.00  0.00    +0.000 C 
ATOM     23  F   UNL     1      12.204  15.663  20.595  0.00  0.00    +0.000 F 
ATOM     24  F   UNL     1      10.401  16.538  19.781  0.00  0.00    +0.000 F 
ATOM     25  F   UNL     1      11.186  17.216  21.710  0.00  0.00    +0.000 F 
ENDBRANCH  12  22
BRANCH   9  26
ATOM     26  C   UNL     1       7.848  11.966  23.809  0.00  0.00    +0.000 C 
ATOM     27  N   UNL     1       7.232  11.131  24.332  0.00  0.00    +0.000 NA
ENDBRANCH   9  26
TORSDOF 3
ENDMDL
MODEL 6
REMARK VINA RESULT:      -6.0      1.087      1.545
REMARK  Name = 
REMARK  5 active torsions:
REMARK  status: ('A' for Active; 'I' for Inactive)
REMARK    1  A    between atoms: C_1  and  C_2
REMARK    2  A    between atoms: C_4  and  C_5
REMARK    3  A    between atoms: C_9  and  C_10
REMARK    4  A    between atoms: C_12  and  C_13
REMARK    5  A    between atoms: C_20  and  C_21
REMARK                            x       y       z     vdW  Elec       q    Type
REMARK                         _______ _______ _______ _____ _____    ______ ____
ROOT
ATOM      1  C   UNL     1      -6.621  15.537  22.413  0.00  0.00    +0.000 C 
ATOM      2  C   UNL     1      -6.070  14.585  21.382  0.00  0.00    +0.000 A 
ATOM      3  C   UNL     1      -6.941  14.303  20.199  0.00  0.00    +0.000 A 
ATOM      4  C   UNL     1      -6.449  13.457  19.280  0.00  0.00    +0.000 A 
ATOM      5  C   UNL     1      -7.204  13.076  18.043  0.00  0.00    +0.000 C 
ATOM      6  N   UNL     1      -5.179  12.904  19.476  0.00  0.00    +0.000 N 
ATOM      7  N   UNL     1      -4.531  12.042  18.655  0.00  0.00    +0.000 NA
ATOM      8  C   UNL     1      -3.348  11.787  19.232  0.00  0.00    +0.000 A 
ATOM      9  C   UNL     1      -2.292  10.963  18.788  0.00  0.00    +0.000 A 
ATOM     10  C   UNL     1      -1.158  10.867  19.644  0.00  0.00    +0.000 A 
ATOM     11  C   UNL     1      -1.153  11.625  20.882  0.00  0.00    +0.000 A 
ATOM     12  C   UNL     1      -2.180  12.498  21.365  0.00  0.00    +0.000 A 
ATOM     13  C   UNL     1      -3.253  12.508  20.472  0.00  0.00    +0.000 A 
ATOM     14  C   UNL     1      -4.424  13.216  20.615  0.00  0.00    +0.000 A 
ATOM     15  N   UNL     1      -4.889  14.075  21.574  0.00  0.00    +0.000 NA
ENDROOT
BRANCH  10  16
ATOM     16  C   UNL     1       0.035  10.022  19.317  0.00  0.00    +0.000 A 
ATOM     17  C   UNL     1       0.691  10.132  18.074  0.00  0.00    +0.000 A 
ATOM     18  C   UNL     1       1.818   9.363  17.760  0.00  0.00    +0.000 A 
ATOM     19  C   UNL     1       2.300   8.430  18.668  0.00  0.00    +0.000 A 
ATOM     20  C   UNL     1       1.672   8.286  19.896  0.00  0.00    +0.000 A 
ATOM     21  C   UNL     1       0.574   9.090  20.224  0.00  0.00    +0.000 A 
ENDBRANCH  10  16
BRANCH  12  22
ATOM     22  C   UNL     1      -2.044  13.247  22.657  0.00  0.00    +0.000 C 
ATOM     23  F   UNL     1      -2.208  14.595  22.489  0.00  0.00    +0.000 F 
ATOM     24  F   UNL     1      -2.970  12.897  23.590  0.00  0.00    +0.000 F 
ATOM     25  F   UNL     1      -0.820  13.111  23.235  0.00  0.00    +0.000 F 
ENDBRANCH  12  22
BRANCH   9  26
ATOM     26  C   UNL     1      -2.476  10.316  17.529  0.00  0.00    +0.000 C 
ATOM     27  N   UNL     1      -2.582   9.809  16.490  0.00  0.00    +0.000 NA
ENDBRANCH   9  26
TORSDOF 3
ENDMDL
MODEL 7
REMARK VINA RESULT:      -6.0      6.383     10.251
REMARK  Name = 
REMARK  5 active torsions:
REMARK  status: ('A' for Active; 'I' for Inactive)
REMARK    1  A    between atoms: C_1  and  C_2
REMARK    2  A    between atoms: C_4  and  C_5
REMARK    3  A    between atoms: C_9  and  C_10
REMARK    4  A    between atoms: C_12  and  C_13
REMARK    5  A    between atoms: C_20  and  C_21
REMARK                            x       y       z     vdW  Elec       q    Type
REMARK                         _______ _______ _______ _____ _____    ______ ____
ROOT
ATOM      1  C   UNL     1       4.717   1.590  18.458  0.00  0.00    +0.000 C 
ATOM      2  C   UNL     1       3.871   2.672  19.079  0.00  0.00    +0.000 A 
ATOM      3  C   UNL     1       3.082   2.290  20.292  0.00  0.00    +0.000 A 
ATOM      4  C   UNL     1       2.330   3.254  20.847  0.00  0.00    +0.000 A 
ATOM      5  C   UNL     1       1.484   3.024  22.062  0.00  0.00    +0.000 C 
ATOM      6  N   UNL     1       2.330   4.530  20.273  0.00  0.00    +0.000 N 
ATOM      7  N   UNL     1       1.640   5.615  20.701  0.00  0.00    +0.000 NA
ATOM      8  C   UNL     1       1.946   6.614  19.863  0.00  0.00    +0.000 A 
ATOM      9  C   UNL     1       1.507   7.955  19.865  0.00  0.00    +0.000 A 
ATOM     10  C   UNL     1       1.991   8.784  18.813  0.00  0.00    +0.000 A 
ATOM     11  C   UNL     1       2.903   8.214  17.839  0.00  0.00    +0.000 A 
ATOM     12  C   UNL     1       3.405   6.873  17.807  0.00  0.00    +0.000 A 
ATOM     13  C   UNL     1       2.858   6.136  18.860  0.00  0.00    +0.000 A 
ATOM     14  C   UNL     1       3.096   4.809  19.133  0.00  0.00    +0.000 A 
ATOM     15  N   UNL     1       3.877   3.855  18.539  0.00  0.00    +0.000 NA
ENDROOT
BRANCH  10  16
ATOM     16  C   UNL     1       1.604  10.225  18.674  0.00  0.00    +0.000 A 
ATOM     17  C   UNL     1       2.545  11.200  18.284  0.00  0.00    +0.000 A 
ATOM     18  C   UNL     1       2.196  12.548  18.131  0.00  0.00    +0.000 A 
ATOM     19  C   UNL     1       0.901  12.967  18.403  0.00  0.00    +0.000 A 
ATOM     20  C   UNL     1      -0.048  12.037  18.801  0.00  0.00    +0.000 A 
ATOM     21  C   UNL     1       0.294  10.684  18.907  0.00  0.00    +0.000 A 
ENDBRANCH  10  16
BRANCH  12  22
ATOM     22  C   UNL     1       4.367   6.409  16.753  0.00  0.00    +0.000 C 
ATOM     23  F   UNL     1       5.638   6.276  17.242  0.00  0.00    +0.000 F 
ATOM     24  F   UNL     1       4.062   5.188  16.237  0.00  0.00    +0.000 F 
ATOM     25  F   UNL     1       4.480   7.271  15.707  0.00  0.00    +0.000 F 
ENDBRANCH  12  22
BRANCH   9  26
ATOM     26  C   UNL     1       0.627   8.334  20.923  0.00  0.00    +0.000 C 
ATOM     27  N   UNL     1      -0.107   8.679  21.754  0.00  0.00    +0.000 NA
ENDBRANCH   9  26
TORSDOF 3
ENDMDL
MODEL 8
REMARK VINA RESULT:      -5.9      1.563      6.621
REMARK  Name = 
REMARK  5 active torsions:
REMARK  status: ('A' for Active; 'I' for Inactive)
REMARK    1  A    between atoms: C_1  and  C_2
REMARK    2  A    between atoms: C_4  and  C_5
REMARK    3  A    between atoms: C_9  and  C_10
REMARK    4  A    between atoms: C_12  and  C_13
REMARK    5  A    between atoms: C_20  and  C_21
REMARK                            x       y       z     vdW  Elec       q    Type
REMARK                         _______ _______ _______ _____ _____    ______ ____
ROOT
ATOM      1  C   UNL     1       1.332   9.861  18.658  0.00  0.00    +0.000 C 
ATOM      2  C   UNL     1      -0.108  10.303  18.602  0.00  0.00    +0.000 A 
ATOM      3  C   UNL     1      -0.880   9.913  17.381  0.00  0.00    +0.000 A 
ATOM      4  C   UNL     1      -2.163  10.305  17.332  0.00  0.00    +0.000 A 
ATOM      5  C   UNL     1      -3.062   9.994  16.174  0.00  0.00    +0.000 C 
ATOM      6  N   UNL     1      -2.692  11.035  18.402  0.00  0.00    +0.000 N 
ATOM      7  N   UNL     1      -3.959  11.504  18.521  0.00  0.00    +0.000 NA
ATOM      8  C   UNL     1      -4.021  12.132  19.703  0.00  0.00    +0.000 A 
ATOM      9  C   UNL     1      -5.110  12.786  20.316  0.00  0.00    +0.000 A 
ATOM     10  C   UNL     1      -4.857  13.393  21.579  0.00  0.00    +0.000 A 
ATOM     11  C   UNL     1      -3.529  13.283  22.153  0.00  0.00    +0.000 A 
ATOM     12  C   UNL     1      -2.399  12.606  21.592  0.00  0.00    +0.000 A 
ATOM     13  C   UNL     1      -2.738  12.066  20.349  0.00  0.00    +0.000 A 
ATOM     14  C   UNL     1      -1.902  11.364  19.512  0.00  0.00    +0.000 A 
ATOM     15  N   UNL     1      -0.591  10.982  19.601  0.00  0.00    +0.000 NA
ENDROOT
BRANCH  10  16
ATOM     16  C   UNL     1      -5.909  14.136  22.346  0.00  0.00    +0.000 A 
ATOM     17  C   UNL     1      -6.713  13.484  23.304  0.00  0.00    +0.000 A 
ATOM     18  C   UNL     1      -7.687  14.166  24.042  0.00  0.00    +0.000 A 
ATOM     19  C   UNL     1      -7.913  15.517  23.815  0.00  0.00    +0.000 A 
ATOM     20  C   UNL     1      -7.150  16.188  22.871  0.00  0.00    +0.000 A 
ATOM     21  C   UNL     1      -6.146  15.512  22.169  0.00  0.00    +0.000 A 
ENDBRANCH  10  16
BRANCH  12  22
ATOM     22  C   UNL     1      -1.077  12.543  22.299  0.00  0.00    +0.000 C 
ATOM     23  F   UNL     1      -0.061  13.046  21.532  0.00  0.00    +0.000 F 
ATOM     24  F   UNL     1      -1.039  13.270  23.448  0.00  0.00    +0.000 F 
ATOM     25  F   UNL     1      -0.691  11.277  22.610  0.00  0.00    +0.000 F 
ENDBRANCH  12  22
BRANCH   9  26
ATOM     26  C   UNL     1      -6.346  12.768  19.603  0.00  0.00    +0.000 C 
ATOM     27  N   UNL     1      -7.365  12.795  19.045  0.00  0.00    +0.000 NA
ENDBRANCH   9  26
TORSDOF 3
ENDMDL
MODEL 9
REMARK VINA RESULT:      -5.9      4.546      6.658
REMARK  Name = 
REMARK  5 active torsions:
REMARK  status: ('A' for Active; 'I' for Inactive)
REMARK    1  A    between atoms: C_1  and  C_2
REMARK    2  A    between atoms: C_4  and  C_5
REMARK    3  A    between atoms: C_9  and  C_10
REMARK    4  A    between atoms: C_12  and  C_13
REMARK    5  A    between atoms: C_20  and  C_21
REMARK                            x       y       z     vdW  Elec       q    Type
REMARK                         _______ _______ _______ _____ _____    ______ ____
ROOT
ATOM      1  C   UNL     1      -0.535  14.306  21.507  0.00  0.00    +0.000 C 
ATOM      2  C   UNL     1       0.173  13.246  20.702  0.00  0.00    +0.000 A 
ATOM      3  C   UNL     1       0.879  13.706  19.465  0.00  0.00    +0.000 A 
ATOM      4  C   UNL     1       1.511  12.762  18.749  0.00  0.00    +0.000 A 
ATOM      5  C   UNL     1       2.258  13.067  17.487  0.00  0.00    +0.000 C 
ATOM      6  N   UNL     1       1.477  11.435  19.194  0.00  0.00    +0.000 N 
ATOM      7  N   UNL     1       2.060  10.364  18.602  0.00  0.00    +0.000 NA
ATOM      8  C   UNL     1       1.777   9.306  19.373  0.00  0.00    +0.000 A 
ATOM      9  C   UNL     1       2.151   7.954  19.216  0.00  0.00    +0.000 A 
ATOM     10  C   UNL     1       1.666   7.042  20.197  0.00  0.00    +0.000 A 
ATOM     11  C   UNL     1       0.854   7.555  21.285  0.00  0.00    +0.000 A 
ATOM     12  C   UNL     1       0.472   8.916  21.511  0.00  0.00    +0.000 A 
ATOM     13  C   UNL     1       0.973   9.726  20.489  0.00  0.00    +0.000 A 
ATOM     14  C   UNL     1       0.791  11.083  20.364  0.00  0.00    +0.000 A 
ATOM     15  N   UNL     1       0.135  12.015  21.123  0.00  0.00    +0.000 NA
ENDROOT
BRANCH  10  16
ATOM     16  C   UNL     1       1.966   5.575  20.157  0.00  0.00    +0.000 A 
ATOM     17  C   UNL     1       0.958   4.616  20.383  0.00  0.00    +0.000 A 
ATOM     18  C   UNL     1       1.217   3.241  20.332  0.00  0.00    +0.000 A 
ATOM     19  C   UNL     1       2.506   2.784  20.092  0.00  0.00    +0.000 A 
ATOM     20  C   UNL     1       3.526   3.700  19.877  0.00  0.00    +0.000 A 
ATOM     21  C   UNL     1       3.252   5.072  19.883  0.00  0.00    +0.000 A 
ENDBRANCH  10  16
BRANCH  12  22
ATOM     22  C   UNL     1      -0.356   9.324  22.693  0.00  0.00    +0.000 C 
ATOM     23  F   UNL     1      -1.161   8.308  23.132  0.00  0.00    +0.000 F 
ATOM     24  F   UNL     1       0.382   9.678  23.780  0.00  0.00    +0.000 F 
ATOM     25  F   UNL     1      -1.203  10.356  22.429  0.00  0.00    +0.000 F 
ENDBRANCH  12  22
BRANCH   9  26
ATOM     26  C   UNL     1       2.974   7.649  18.091  0.00  0.00    +0.000 C 
ATOM     27  N   UNL     1       3.684   7.400  17.206  0.00  0.00    +0.000 NA
ENDBRANCH   9  26
TORSDOF 3
ENDMDL
