MODEL 1
REMARK VINA RESULT:      -8.4      0.000      0.000
REMARK  Name = 
REMARK  9 active torsions:
REMARK  status: ('A' for Active; 'I' for Inactive)
REMARK    1  A    between atoms: C_1  and  C_2
REMARK    2  A    between atoms: N_4  and  C_5
REMARK    3  A    between atoms: C_5  and  C_6
REMARK    4  A    between atoms: N_10  and  C_11
REMARK    5  A    between atoms: C_11  and  C_12
REMARK    6  A    between atoms: N_14  and  C_15
REMARK    7  A    between atoms: N_14  and  C_16
REMARK    8  A    between atoms: C_16  and  C_17
REMARK    9  A    between atoms: C_28  and  C_29
REMARK                            x       y       z     vdW  Elec       q    Type
REMARK                         _______ _______ _______ _____ _____    ______ ____
ROOT
ATOM      1  C   UNL     1       2.311   7.971  18.286  0.00  0.00    +0.000 C 
ATOM      2  O   UNL     1       2.558   8.349  17.123  0.00  0.00    +0.000 OA
ATOM      3  N   UNL     1       1.638   8.804  19.172  0.00  0.00    +0.000 N 
ATOM      4  C   UNL     1       1.222   8.417  20.546  0.00  0.00    +0.000 C 
ENDROOT
BRANCH   1   5
ATOM      5  C   UNL     1       2.766   6.609  18.823  0.00  0.00    +0.000 C 
BRANCH   5  10
ATOM      6  C   UNL     1       2.831   4.165  18.016  0.00  0.00    +0.000 A 
ATOM      7  N   UNL     1       1.867   3.386  17.561  0.00  0.00    +0.000 NA
ATOM      8  N   UNL     1       0.786   4.185  17.319  0.00  0.00    +0.000 NA
ATOM      9  N   UNL     1       1.049   5.441  17.641  0.00  0.00    +0.000 NA
ATOM     10  N   UNL     1       2.324   5.445  18.077  0.00  0.00    +0.000 N 
BRANCH   6  11
ATOM     11  C   UNL     1       4.212   3.745  18.411  0.00  0.00    +0.000 C 
BRANCH  11  15
ATOM     12  C   UNL     1       7.456   6.763  17.540  0.00  0.00    +0.000 C 
ATOM     13  C   UNL     1       7.669   5.274  17.795  0.00  0.00    +0.000 C 
ATOM     14  C   UNL     1       6.501   4.611  18.546  0.00  0.00    +0.000 C 
ATOM     15  N   UNL     1       5.305   4.452  17.692  0.00  0.00    +0.000 NA
ATOM     16  C   UNL     1       5.717   3.649  16.521  0.00  0.00    +0.000 C 
ATOM     17  C   UNL     1       6.943   4.174  15.751  0.00  0.00    +0.000 C 
ATOM     18  C   UNL     1       6.611   5.260  14.720  0.00  0.00    +0.000 C 
ATOM     19  O   UNL     1       8.032   4.557  16.602  0.00  0.00    +0.000 OA
ENDBRANCH  11  15
ENDBRANCH   6  11
ENDBRANCH   5  10
ENDBRANCH   1   5
BRANCH   3  20
ATOM     20  C   UNL     1       1.291  10.147  18.766  0.00  0.00    +0.000 C 
BRANCH  20  21
ATOM     21  C   UNL     1      -0.151  10.224  18.415  0.00  0.00    +0.000 A 
ATOM     22  C   UNL     1      -1.206  10.906  18.987  0.00  0.00    +0.000 A 
ATOM     23  C   UNL     1      -2.329  10.780  18.121  0.00  0.00    +0.000 A 
ATOM     24  C   UNL     1      -3.638  11.269  18.117  0.00  0.00    +0.000 A 
ATOM     25  C   UNL     1      -4.195  11.492  16.868  0.00  0.00    +0.000 A 
ATOM     26  F   UNL     1      -5.135  12.444  16.718  0.00  0.00    +0.000 F 
ATOM     27  C   UNL     1      -3.790  10.746  15.778  0.00  0.00    +0.000 A 
ATOM     28  C   UNL     1      -2.739   9.833  15.909  0.00  0.00    +0.000 A 
ATOM     29  C   UNL     1      -1.925  10.014  17.035  0.00  0.00    +0.000 A 
ATOM     30  N   UNL     1      -0.671   9.539  17.324  0.00  0.00    +0.000 N 
ATOM     31  H   UNL     1      -0.146   8.912  16.739  0.00  0.00    +0.000 HD
ENDBRANCH  20  21
ENDBRANCH   3  20
TORSDOF 6
ENDMDL
MODEL 2
REMARK VINA RESULT:      -8.3      1.061      1.641
REMARK  Name = 
REMARK  9 active torsions:
REMARK  status: ('A' for Active; 'I' for Inactive)
REMARK    1  A    between atoms: C_1  and  C_2
REMARK    2  A    between atoms: N_4  and  C_5
REMARK    3  A    between atoms: C_5  and  C_6
REMARK    4  A    between atoms: N_10  and  C_11
REMARK    5  A    between atoms: C_11  and  C_12
REMARK    6  A    between atoms: N_14  and  C_15
REMARK    7  A    between atoms: N_14  and  C_16
REMARK    8  A    between atoms: C_16  and  C_17
REMARK    9  A    between atoms: C_28  and  C_29
REMARK                            x       y       z     vdW  Elec       q    Type
REMARK                         _______ _______ _______ _____ _____    ______ ____
ROOT
ATOM      1  C   UNL     1       2.150   7.530  18.935  0.00  0.00    +0.000 C 
ATOM      2  O   UNL     1       2.461   7.647  17.732  0.00  0.00    +0.000 OA
ATOM      3  N   UNL     1       1.533   8.577  19.610  0.00  0.00    +0.000 N 
ATOM      4  C   UNL     1       1.049   8.507  21.014  0.00  0.00    +0.000 C 
ENDROOT
BRANCH   1   5
ATOM      5  C   UNL     1       2.464   6.269  19.748  0.00  0.00    +0.000 C 
BRANCH   5  10
ATOM      6  C   UNL     1       3.320   3.995  18.893  0.00  0.00    +0.000 A 
ATOM      7  N   UNL     1       2.658   2.913  18.525  0.00  0.00    +0.000 NA
ATOM      8  N   UNL     1       1.344   3.266  18.411  0.00  0.00    +0.000 NA
ATOM      9  N   UNL     1       1.170   4.539  18.727  0.00  0.00    +0.000 NA
ATOM     10  N   UNL     1       2.396   5.009  19.030  0.00  0.00    +0.000 N 
BRANCH   6  11
ATOM     11  C   UNL     1       4.792   4.107  19.135  0.00  0.00    +0.000 C 
BRANCH  11  15
ATOM     12  C   UNL     1       6.992   4.697  15.236  0.00  0.00    +0.000 C 
ATOM     13  C   UNL     1       5.644   5.312  15.601  0.00  0.00    +0.000 C 
ATOM     14  C   UNL     1       4.917   4.560  16.730  0.00  0.00    +0.000 C 
ATOM     15  N   UNL     1       5.550   4.780  18.047  0.00  0.00    +0.000 NA
ATOM     16  C   UNL     1       5.550   6.240  18.286  0.00  0.00    +0.000 C 
ATOM     17  C   UNL     1       6.170   7.098  17.167  0.00  0.00    +0.000 C 
ATOM     18  C   UNL     1       7.696   7.220  17.251  0.00  0.00    +0.000 C 
ATOM     19  O   UNL     1       5.734   6.726  15.853  0.00  0.00    +0.000 OA
ENDBRANCH  11  15
ENDBRANCH   6  11
ENDBRANCH   5  10
ENDBRANCH   1   5
BRANCH   3  20
ATOM     20  C   UNL     1       1.322   9.836  18.933  0.00  0.00    +0.000 C 
BRANCH  20  21
ATOM     21  C   UNL     1      -0.096   9.961  18.508  0.00  0.00    +0.000 A 
ATOM     22  C   UNL     1      -1.189  10.564  19.100  0.00  0.00    +0.000 A 
ATOM     23  C   UNL     1      -2.256  10.555  18.157  0.00  0.00    +0.000 A 
ATOM     24  C   UNL     1      -3.566  11.043  18.137  0.00  0.00    +0.000 A 
ATOM     25  C   UNL     1      -4.047  11.431  16.897  0.00  0.00    +0.000 A 
ATOM     26  F   UNL     1      -4.981  12.396  16.817  0.00  0.00    +0.000 F 
ATOM     27  C   UNL     1      -3.571  10.835  15.745  0.00  0.00    +0.000 A 
ATOM     28  C   UNL     1      -2.524   9.911  15.818  0.00  0.00    +0.000 A 
ATOM     29  C   UNL     1      -1.782   9.940  17.006  0.00  0.00    +0.000 A 
ATOM     30  N   UNL     1      -0.545   9.429  17.306  0.00  0.00    +0.000 N 
ATOM     31  H   UNL     1       0.019   8.884  16.676  0.00  0.00    +0.000 HD
ENDBRANCH  20  21
ENDBRANCH   3  20
TORSDOF 6
ENDMDL
MODEL 3
REMARK VINA RESULT:      -8.3      1.197      1.352
REMARK  Name = 
REMARK  9 active torsions:
REMARK  status: ('A' for Active; 'I' for Inactive)
REMARK    1  A    between atoms: C_1  and  C_2
REMARK    2  A    between atoms: N_4  and  C_5
REMARK    3  A    between atoms: C_5  and  C_6
REMARK    4  A    between atoms: N_10  and  C_11
REMARK    5  A    between atoms: C_11  and  C_12
REMARK    6  A    between atoms: N_14  and  C_15
REMARK    7  A    between atoms: N_14  and  C_16
REMARK    8  A    between atoms: C_16  and  C_17
REMARK    9  A    between atoms: C_28  and  C_29
REMARK                            x       y       z     vdW  Elec       q    Type
REMARK                         _______ _______ _______ _____ _____    ______ ____
ROOT
ATOM      1  C   UNL     1       2.036   7.633  19.190  0.00  0.00    +0.000 C 
ATOM      2  O   UNL     1       2.331   7.566  17.979  0.00  0.00    +0.000 OA
ATOM      3  N   UNL     1       1.457   8.783  19.714  0.00  0.00    +0.000 N 
ATOM      4  C   UNL     1       0.994   8.930  21.118  0.00  0.00    +0.000 C 
ENDROOT
BRANCH   1   5
ATOM      5  C   UNL     1       2.333   6.495  20.173  0.00  0.00    +0.000 C 
BRANCH   5  10
ATOM      6  C   UNL     1       3.273   4.225  19.403  0.00  0.00    +0.000 A 
ATOM      7  N   UNL     1       2.693   3.042  19.316  0.00  0.00    +0.000 NA
ATOM      8  N   UNL     1       1.351   3.241  19.464  0.00  0.00    +0.000 NA
ATOM      9  N   UNL     1       1.085   4.520  19.669  0.00  0.00    +0.000 NA
ATOM     10  N   UNL     1       2.277   5.149  19.633  0.00  0.00    +0.000 N 
BRANCH   6  11
ATOM     11  C   UNL     1       4.737   4.517  19.293  0.00  0.00    +0.000 C 
BRANCH  11  15
ATOM     12  C   UNL     1       5.019   6.921  15.481  0.00  0.00    +0.000 C 
ATOM     13  C   UNL     1       6.105   6.810  16.547  0.00  0.00    +0.000 C 
ATOM     14  C   UNL     1       5.567   6.370  17.920  0.00  0.00    +0.000 C 
ATOM     15  N   UNL     1       5.184   4.943  17.940  0.00  0.00    +0.000 NA
ATOM     16  C   UNL     1       6.386   4.169  17.560  0.00  0.00    +0.000 C 
ATOM     17  C   UNL     1       7.062   4.595  16.243  0.00  0.00    +0.000 C 
ATOM     18  C   UNL     1       6.431   3.974  14.991  0.00  0.00    +0.000 C 
ATOM     19  O   UNL     1       7.222   6.014  16.114  0.00  0.00    +0.000 OA
ENDBRANCH  11  15
ENDBRANCH   6  11
ENDBRANCH   5  10
ENDBRANCH   1   5
BRANCH   3  20
ATOM     20  C   UNL     1       1.266   9.937  18.864  0.00  0.00    +0.000 C 
BRANCH  20  21
ATOM     21  C   UNL     1      -0.159  10.048  18.459  0.00  0.00    +0.000 A 
ATOM     22  C   UNL     1      -1.236  10.692  19.036  0.00  0.00    +0.000 A 
ATOM     23  C   UNL     1      -2.321  10.638  18.115  0.00  0.00    +0.000 A 
ATOM     24  C   UNL     1      -3.628  11.134  18.092  0.00  0.00    +0.000 A 
ATOM     25  C   UNL     1      -4.130  11.455  16.842  0.00  0.00    +0.000 A 
ATOM     26  F   UNL     1      -5.059  12.421  16.725  0.00  0.00    +0.000 F 
ATOM     27  C   UNL     1      -3.681  10.791  15.716  0.00  0.00    +0.000 A 
ATOM     28  C   UNL     1      -2.638   9.865  15.822  0.00  0.00    +0.000 A 
ATOM     29  C   UNL     1      -1.873   9.955  16.992  0.00  0.00    +0.000 A 
ATOM     30  N   UNL     1      -0.634   9.452  17.298  0.00  0.00    +0.000 N 
ATOM     31  H   UNL     1      -0.086   8.868  16.689  0.00  0.00    +0.000 HD
ENDBRANCH  20  21
ENDBRANCH   3  20
TORSDOF 6
ENDMDL
MODEL 4
REMARK VINA RESULT:      -8.1      1.305      1.771
REMARK  Name = 
REMARK  9 active torsions:
REMARK  status: ('A' for Active; 'I' for Inactive)
REMARK    1  A    between atoms: C_1  and  C_2
REMARK    2  A    between atoms: N_4  and  C_5
REMARK    3  A    between atoms: C_5  and  C_6
REMARK    4  A    between atoms: N_10  and  C_11
REMARK    5  A    between atoms: C_11  and  C_12
REMARK    6  A    between atoms: N_14  and  C_15
REMARK    7  A    between atoms: N_14  and  C_16
REMARK    8  A    between atoms: C_16  and  C_17
REMARK    9  A    between atoms: C_28  and  C_29
REMARK                            x       y       z     vdW  Elec       q    Type
REMARK                         _______ _______ _______ _____ _____    ______ ____
ROOT
ATOM      1  C   UNL     1       2.320   6.833  18.846  0.00  0.00    +0.000 C 
ATOM      2  O   UNL     1       2.723   6.732  17.669  0.00  0.00    +0.000 OA
ATOM      3  N   UNL     1       1.957   8.070  19.365  0.00  0.00    +0.000 N 
ATOM      4  C   UNL     1       1.388   8.282  20.722  0.00  0.00    +0.000 C 
ENDROOT
BRANCH   1   5
ATOM      5  C   UNL     1       2.246   5.632  19.796  0.00  0.00    +0.000 C 
BRANCH   5  10
ATOM      6  C   UNL     1       3.513   3.487  19.143  0.00  0.00    +0.000 A 
ATOM      7  N   UNL     1       3.064   2.275  18.872  0.00  0.00    +0.000 NA
ATOM      8  N   UNL     1       1.709   2.371  18.730  0.00  0.00    +0.000 NA
ATOM      9  N   UNL     1       1.303   3.613  18.934  0.00  0.00    +0.000 NA
ATOM     10  N   UNL     1       2.418   4.324  19.192  0.00  0.00    +0.000 N 
BRANCH   6  11
ATOM     11  C   UNL     1       4.937   3.886  19.372  0.00  0.00    +0.000 C 
BRANCH  11  15
ATOM     12  C   UNL     1       6.947   7.493  17.545  0.00  0.00    +0.000 C 
ATOM     13  C   UNL     1       7.511   6.075  17.571  0.00  0.00    +0.000 C 
ATOM     14  C   UNL     1       6.887   5.191  18.664  0.00  0.00    +0.000 C 
ATOM     15  N   UNL     1       5.498   4.799  18.342  0.00  0.00    +0.000 NA
ATOM     16  C   UNL     1       5.541   4.097  17.041  0.00  0.00    +0.000 C 
ATOM     17  C   UNL     1       6.235   4.859  15.896  0.00  0.00    +0.000 C 
ATOM     18  C   UNL     1       5.325   5.859  15.173  0.00  0.00    +0.000 C 
ATOM     19  O   UNL     1       7.485   5.449  16.276  0.00  0.00    +0.000 OA
ENDBRANCH  11  15
ENDBRANCH   6  11
ENDBRANCH   5  10
ENDBRANCH   1   5
BRANCH   3  20
ATOM     20  C   UNL     1       2.121   9.258  18.559  0.00  0.00    +0.000 C 
BRANCH  20  21
ATOM     21  C   UNL     1       0.796   9.831  18.210  0.00  0.00    +0.000 A 
ATOM     22  C   UNL     1      -0.247   9.348  17.445  0.00  0.00    +0.000 A 
ATOM     23  C   UNL     1      -1.356  10.225  17.615  0.00  0.00    +0.000 A 
ATOM     24  C   UNL     1      -2.677  10.253  17.158  0.00  0.00    +0.000 A 
ATOM     25  C   UNL     1      -3.599  10.837  18.012  0.00  0.00    +0.000 A 
ATOM     26  F   UNL     1      -4.882  10.433  17.984  0.00  0.00    +0.000 F 
ATOM     27  C   UNL     1      -3.207  11.827  18.892  0.00  0.00    +0.000 A 
ATOM     28  C   UNL     1      -1.856  12.171  18.999  0.00  0.00    +0.000 A 
ATOM     29  C   UNL     1      -0.956  11.229  18.485  0.00  0.00    +0.000 A 
ATOM     30  N   UNL     1       0.393  11.074  18.682  0.00  0.00    +0.000 N 
ATOM     31  H   UNL     1       0.968  11.691  19.230  0.00  0.00    +0.000 HD
ENDBRANCH  20  21
ENDBRANCH   3  20
TORSDOF 6
ENDMDL
MODEL 5
REMARK VINA RESULT:      -8.0      1.396      2.224
REMARK  Name = 
REMARK  9 active torsions:
REMARK  status: ('A' for Active; 'I' for Inactive)
REMARK    1  A    between atoms: C_1  and  C_2
REMARK    2  A    between atoms: N_4  and  C_5
REMARK    3  A    between atoms: C_5  and  C_6
REMARK    4  A    between atoms: N_10  and  C_11
REMARK    5  A    between atoms: C_11  and  C_12
REMARK    6  A    between atoms: N_14  and  C_15
REMARK    7  A    between atoms: N_14  and  C_16
REMARK    8  A    between atoms: C_16  and  C_17
REMARK    9  A    between atoms: C_28  and  C_29
REMARK                            x       y       z     vdW  Elec       q    Type
REMARK                         _______ _______ _______ _____ _____    ______ ____
ROOT
ATOM      1  C   UNL     1       2.230   6.736  18.641  0.00  0.00    +0.000 C 
ATOM      2  O   UNL     1       2.563   6.783  17.439  0.00  0.00    +0.000 OA
ATOM      3  N   UNL     1       1.965   7.903  19.348  0.00  0.00    +0.000 N 
ATOM      4  C   UNL     1       1.480   7.948  20.752  0.00  0.00    +0.000 C 
ENDROOT
BRANCH   1   5
ATOM      5  C   UNL     1       2.139   5.418  19.419  0.00  0.00    +0.000 C 
BRANCH   5  10
ATOM      6  C   UNL     1       3.459   3.379  18.563  0.00  0.00    +0.000 A 
ATOM      7  N   UNL     1       3.037   2.217  18.099  0.00  0.00    +0.000 NA
ATOM      8  N   UNL     1       1.694   2.337  17.880  0.00  0.00    +0.000 NA
ATOM      9  N   UNL     1       1.267   3.540  18.225  0.00  0.00    +0.000 NA
ATOM     10  N   UNL     1       2.359   4.205  18.653  0.00  0.00    +0.000 N 
BRANCH   6  11
ATOM     11  C   UNL     1       4.862   3.737  18.941  0.00  0.00    +0.000 C 
BRANCH  11  15
ATOM     12  C   UNL     1       7.016   4.745  15.103  0.00  0.00    +0.000 C 
ATOM     13  C   UNL     1       5.659   5.293  15.533  0.00  0.00    +0.000 C 
ATOM     14  C   UNL     1       4.957   4.421  16.589  0.00  0.00    +0.000 C 
ATOM     15  N   UNL     1       5.596   4.528  17.918  0.00  0.00    +0.000 NA
ATOM     16  C   UNL     1       5.567   5.958  18.295  0.00  0.00    +0.000 C 
ATOM     17  C   UNL     1       6.160   6.932  17.259  0.00  0.00    +0.000 C 
ATOM     18  C   UNL     1       7.684   7.079  17.345  0.00  0.00    +0.000 C 
ATOM     19  O   UNL     1       5.721   6.678  15.918  0.00  0.00    +0.000 OA
ENDBRANCH  11  15
ENDBRANCH   6  11
ENDBRANCH   5  10
ENDBRANCH   1   5
BRANCH   3  20
ATOM     20  C   UNL     1       2.153   9.184  18.706  0.00  0.00    +0.000 C 
BRANCH  20  21
ATOM     21  C   UNL     1       0.841   9.768  18.325  0.00  0.00    +0.000 A 
ATOM     22  C   UNL     1      -0.187   9.293  17.534  0.00  0.00    +0.000 A 
ATOM     23  C   UNL     1      -1.293  10.178  17.678  0.00  0.00    +0.000 A 
ATOM     24  C   UNL     1      -2.602  10.218  17.189  0.00  0.00    +0.000 A 
ATOM     25  C   UNL     1      -3.540  10.807  18.022  0.00  0.00    +0.000 A 
ATOM     26  F   UNL     1      -4.825  10.413  17.962  0.00  0.00    +0.000 F 
ATOM     27  C   UNL     1      -3.163  11.793  18.912  0.00  0.00    +0.000 A 
ATOM     28  C   UNL     1      -1.811  12.127  19.052  0.00  0.00    +0.000 A 
ATOM     29  C   UNL     1      -0.906  11.179  18.559  0.00  0.00    +0.000 A 
ATOM     30  N   UNL     1       0.436  11.013  18.789  0.00  0.00    +0.000 N 
ATOM     31  H   UNL     1       1.002  11.625  19.351  0.00  0.00    +0.000 HD
ENDBRANCH  20  21
ENDBRANCH   3  20
TORSDOF 6
ENDMDL
MODEL 6
REMARK VINA RESULT:      -7.9      2.070      3.624
REMARK  Name = 
REMARK  9 active torsions:
REMARK  status: ('A' for Active; 'I' for Inactive)
REMARK    1  A    between atoms: C_1  and  C_2
REMARK    2  A    between atoms: N_4  and  C_5
REMARK    3  A    between atoms: C_5  and  C_6
REMARK    4  A    between atoms: N_10  and  C_11
REMARK    5  A    between atoms: C_11  and  C_12
REMARK    6  A    between atoms: N_14  and  C_15
REMARK    7  A    between atoms: N_14  and  C_16
REMARK    8  A    between atoms: C_16  and  C_17
REMARK    9  A    between atoms: C_28  and  C_29
REMARK                            x       y       z     vdW  Elec       q    Type
REMARK                         _______ _______ _______ _____ _____    ______ ____
ROOT
ATOM      1  C   UNL     1       2.401   8.331  18.137  0.00  0.00    +0.000 C 
ATOM      2  O   UNL     1       2.562   8.896  17.036  0.00  0.00    +0.000 OA
ATOM      3  N   UNL     1       1.709   8.965  19.162  0.00  0.00    +0.000 N 
ATOM      4  C   UNL     1       1.392   8.346  20.476  0.00  0.00    +0.000 C 
ENDROOT
BRANCH   1   5
ATOM      5  C   UNL     1       2.984   6.947  18.445  0.00  0.00    +0.000 C 
BRANCH   5  10
ATOM      6  C   UNL     1       4.491   5.550  16.893  0.00  0.00    +0.000 A 
ATOM      7  N   UNL     1       5.561   5.893  16.200  0.00  0.00    +0.000 NA
ATOM      8  N   UNL     1       5.945   7.127  16.640  0.00  0.00    +0.000 NA
ATOM      9  N   UNL     1       5.120   7.570  17.574  0.00  0.00    +0.000 NA
ATOM     10  N   UNL     1       4.206   6.596  17.745  0.00  0.00    +0.000 N 
BRANCH   6  11
ATOM     11  C   UNL     1       3.715   4.276  16.773  0.00  0.00    +0.000 C 
BRANCH  11  15
ATOM     12  C   UNL     1       0.874   4.059  20.277  0.00  0.00    +0.000 C 
ATOM     13  C   UNL     1       0.993   3.026  19.160  0.00  0.00    +0.000 C 
ATOM     14  C   UNL     1       1.640   3.584  17.880  0.00  0.00    +0.000 C 
ATOM     15  N   UNL     1       3.093   3.807  18.040  0.00  0.00    +0.000 NA
ATOM     16  C   UNL     1       3.688   2.508  18.422  0.00  0.00    +0.000 C 
ATOM     17  C   UNL     1       3.046   1.814  19.638  0.00  0.00    +0.000 C 
ATOM     18  C   UNL     1       3.583   2.304  20.988  0.00  0.00    +0.000 C 
ATOM     19  O   UNL     1       1.613   1.806  19.602  0.00  0.00    +0.000 OA
ENDBRANCH  11  15
ENDBRANCH   6  11
ENDBRANCH   5  10
ENDBRANCH   1   5
BRANCH   3  20
ATOM     20  C   UNL     1       1.241  10.320  18.976  0.00  0.00    +0.000 C 
BRANCH  20  21
ATOM     21  C   UNL     1      -0.181  10.320  18.546  0.00  0.00    +0.000 A 
ATOM     22  C   UNL     1      -1.318  10.860  19.114  0.00  0.00    +0.000 A 
ATOM     23  C   UNL     1      -2.379  10.733  18.171  0.00  0.00    +0.000 A 
ATOM     24  C   UNL     1      -3.722  11.118  18.133  0.00  0.00    +0.000 A 
ATOM     25  C   UNL     1      -4.227  11.420  16.878  0.00  0.00    +0.000 A 
ATOM     26  F   UNL     1      -5.232  12.307  16.760  0.00  0.00    +0.000 F 
ATOM     27  C   UNL     1      -3.704  10.818  15.750  0.00  0.00    +0.000 A 
ATOM     28  C   UNL     1      -2.589   9.980  15.860  0.00  0.00    +0.000 A 
ATOM     29  C   UNL     1      -1.855  10.111  17.046  0.00  0.00    +0.000 A 
ATOM     30  N   UNL     1      -0.583   9.708  17.366  0.00  0.00    +0.000 N 
ATOM     31  H   UNL     1       0.022   9.184  16.758  0.00  0.00    +0.000 HD
ENDBRANCH  20  21
ENDBRANCH   3  20
TORSDOF 6
ENDMDL
MODEL 7
REMARK VINA RESULT:      -7.7      1.445      2.086
REMARK  Name = 
REMARK  9 active torsions:
REMARK  status: ('A' for Active; 'I' for Inactive)
REMARK    1  A    between atoms: C_1  and  C_2
REMARK    2  A    between atoms: N_4  and  C_5
REMARK    3  A    between atoms: C_5  and  C_6
REMARK    4  A    between atoms: N_10  and  C_11
REMARK    5  A    between atoms: C_11  and  C_12
REMARK    6  A    between atoms: N_14  and  C_15
REMARK    7  A    between atoms: N_14  and  C_16
REMARK    8  A    between atoms: C_16  and  C_17
REMARK    9  A    between atoms: C_28  and  C_29
REMARK                            x       y       z     vdW  Elec       q    Type
REMARK                         _______ _______ _______ _____ _____    ______ ____
ROOT
ATOM      1  C   UNL     1       1.463   8.668  19.640  0.00  0.00    +0.000 C 
ATOM      2  O   UNL     1       1.535   8.564  18.398  0.00  0.00    +0.000 OA
ATOM      3  N   UNL     1       1.017   9.846  20.226  0.00  0.00    +0.000 N 
ATOM      4  C   UNL     1       0.816  10.039  21.686  0.00  0.00    +0.000 C 
ENDROOT
BRANCH   1   5
ATOM      5  C   UNL     1       1.898   7.542  20.586  0.00  0.00    +0.000 C 
BRANCH   5  10
ATOM      6  C   UNL     1       3.016   5.789  19.068  0.00  0.00    +0.000 A 
ATOM      7  N   UNL     1       3.052   4.472  19.160  0.00  0.00    +0.000 NA
ATOM      8  N   UNL     1       2.135   4.112  20.105  0.00  0.00    +0.000 NA
ATOM      9  N   UNL     1       1.549   5.179  20.623  0.00  0.00    +0.000 NA
ATOM     10  N   UNL     1       2.089   6.236  19.984  0.00  0.00    +0.000 N 
BRANCH   6  11
ATOM     11  C   UNL     1       3.837   6.647  18.156  0.00  0.00    +0.000 C 
BRANCH  11  15
ATOM     12  C   UNL     1       5.887   4.116  15.029  0.00  0.00    +0.000 C 
ATOM     13  C   UNL     1       6.102   5.610  15.247  0.00  0.00    +0.000 C 
ATOM     14  C   UNL     1       4.944   6.289  15.999  0.00  0.00    +0.000 C 
ATOM     15  N   UNL     1       4.916   5.925  17.431  0.00  0.00    +0.000 NA
ATOM     16  C   UNL     1       6.227   6.313  17.998  0.00  0.00    +0.000 C 
ATOM     17  C   UNL     1       7.461   5.763  17.259  0.00  0.00    +0.000 C 
ATOM     18  C   UNL     1       7.853   4.341  17.676  0.00  0.00    +0.000 C 
ATOM     19  O   UNL     1       7.383   5.902  15.834  0.00  0.00    +0.000 OA
ENDBRANCH  11  15
ENDBRANCH   6  11
ENDBRANCH   5  10
ENDBRANCH   1   5
BRANCH   3  20
ATOM     20  C   UNL     1       0.710  10.986  19.392  0.00  0.00    +0.000 C 
BRANCH  20  21
ATOM     21  C   UNL     1      -0.656  10.855  18.823  0.00  0.00    +0.000 A 
ATOM     22  C   UNL     1      -1.888  11.294  19.266  0.00  0.00    +0.000 A 
ATOM     23  C   UNL     1      -2.833  11.066  18.226  0.00  0.00    +0.000 A 
ATOM     24  C   UNL     1      -4.194  11.328  18.047  0.00  0.00    +0.000 A 
ATOM     25  C   UNL     1      -4.596  11.576  16.745  0.00  0.00    +0.000 A 
ATOM     26  F   UNL     1      -5.659  12.367  16.514  0.00  0.00    +0.000 F 
ATOM     27  C   UNL     1      -3.911  11.016  15.684  0.00  0.00    +0.000 A 
ATOM     28  C   UNL     1      -2.742  10.283  15.916  0.00  0.00    +0.000 A 
ATOM     29  C   UNL     1      -2.146  10.487  17.167  0.00  0.00    +0.000 A 
ATOM     30  N   UNL     1      -0.882  10.202  17.618  0.00  0.00    +0.000 N 
ATOM     31  H   UNL     1      -0.174   9.731  17.081  0.00  0.00    +0.000 HD
ENDBRANCH  20  21
ENDBRANCH   3  20
TORSDOF 6
ENDMDL
MODEL 8
REMARK VINA RESULT:      -7.7      1.260      1.409
REMARK  Name = 
REMARK  9 active torsions:
REMARK  status: ('A' for Active; 'I' for Inactive)
REMARK    1  A    between atoms: C_1  and  C_2
REMARK    2  A    between atoms: N_4  and  C_5
REMARK    3  A    between atoms: C_5  and  C_6
REMARK    4  A    between atoms: N_10  and  C_11
REMARK    5  A    between atoms: C_11  and  C_12
REMARK    6  A    between atoms: N_14  and  C_15
REMARK    7  A    between atoms: N_14  and  C_16
REMARK    8  A    between atoms: C_16  and  C_17
REMARK    9  A    between atoms: C_28  and  C_29
REMARK                            x       y       z     vdW  Elec       q    Type
REMARK                         _______ _______ _______ _____ _____    ______ ____
ROOT
ATOM      1  C   UNL     1       1.780   8.494  19.413  0.00  0.00    +0.000 C 
ATOM      2  O   UNL     1       1.989   8.522  18.182  0.00  0.00    +0.000 OA
ATOM      3  N   UNL     1       1.169   9.567  20.051  0.00  0.00    +0.000 N 
ATOM      4  C   UNL     1       0.802   9.595  21.491  0.00  0.00    +0.000 C 
ENDROOT
BRANCH   1   5
ATOM      5  C   UNL     1       2.219   7.320  20.295  0.00  0.00    +0.000 C 
BRANCH   5  10
ATOM      6  C   UNL     1       2.521   5.353  18.661  0.00  0.00    +0.000 A 
ATOM      7  N   UNL     1       2.331   4.058  18.833  0.00  0.00    +0.000 NA
ATOM      8  N   UNL     1       1.662   3.904  20.013  0.00  0.00    +0.000 NA
ATOM      9  N   UNL     1       1.456   5.075  20.592  0.00  0.00    +0.000 NA
ATOM     10  N   UNL     1       1.986   5.992  19.758  0.00  0.00    +0.000 N 
BRANCH   6  11
ATOM     11  C   UNL     1       3.203   6.013  17.503  0.00  0.00    +0.000 C 
BRANCH  11  15
ATOM     12  C   UNL     1       7.594   6.604  18.379  0.00  0.00    +0.000 C 
ATOM     13  C   UNL     1       6.760   5.391  18.781  0.00  0.00    +0.000 C 
ATOM     14  C   UNL     1       5.248   5.674  18.812  0.00  0.00    +0.000 C 
ATOM     15  N   UNL     1       4.676   5.814  17.456  0.00  0.00    +0.000 NA
ATOM     16  C   UNL     1       4.974   4.558  16.734  0.00  0.00    +0.000 C 
ATOM     17  C   UNL     1       6.453   4.129  16.724  0.00  0.00    +0.000 C 
ATOM     18  C   UNL     1       7.288   4.800  15.627  0.00  0.00    +0.000 C 
ATOM     19  O   UNL     1       7.083   4.221  18.009  0.00  0.00    +0.000 OA
ENDBRANCH  11  15
ENDBRANCH   6  11
ENDBRANCH   5  10
ENDBRANCH   1   5
BRANCH   3  20
ATOM     20  C   UNL     1       0.843  10.755  19.295  0.00  0.00    +0.000 C 
BRANCH  20  21
ATOM     21  C   UNL     1      -0.538  10.660  18.755  0.00  0.00    +0.000 A 
ATOM     22  C   UNL     1      -1.747  11.136  19.221  0.00  0.00    +0.000 A 
ATOM     23  C   UNL     1      -2.720  10.930  18.202  0.00  0.00    +0.000 A 
ATOM     24  C   UNL     1      -4.077  11.230  18.050  0.00  0.00    +0.000 A 
ATOM     25  C   UNL     1      -4.498  11.483  16.755  0.00  0.00    +0.000 A 
ATOM     26  F   UNL     1      -5.543  12.303  16.542  0.00  0.00    +0.000 F 
ATOM     27  C   UNL     1      -3.851  10.899  15.683  0.00  0.00    +0.000 A 
ATOM     28  C   UNL     1      -2.700  10.133  15.895  0.00  0.00    +0.000 A 
ATOM     29  C   UNL     1      -2.072  10.327  17.133  0.00  0.00    +0.000 A 
ATOM     30  N   UNL     1      -0.807  10.008  17.559  0.00  0.00    +0.000 N 
ATOM     31  H   UNL     1      -0.125   9.514  17.010  0.00  0.00    +0.000 HD
ENDBRANCH  20  21
ENDBRANCH   3  20
TORSDOF 6
ENDMDL
MODEL 9
REMARK VINA RESULT:      -7.7      2.252      3.568
REMARK  Name = 
REMARK  9 active torsions:
REMARK  status: ('A' for Active; 'I' for Inactive)
REMARK    1  A    between atoms: C_1  and  C_2
REMARK    2  A    between atoms: N_4  and  C_5
REMARK    3  A    between atoms: C_5  and  C_6
REMARK    4  A    between atoms: N_10  and  C_11
REMARK    5  A    between atoms: C_11  and  C_12
REMARK    6  A    between atoms: N_14  and  C_15
REMARK    7  A    between atoms: N_14  and  C_16
REMARK    8  A    between atoms: C_16  and  C_17
REMARK    9  A    between atoms: C_28  and  C_29
REMARK                            x       y       z     vdW  Elec       q    Type
REMARK                         _______ _______ _______ _____ _____    ______ ____
ROOT
ATOM      1  C   UNL     1       2.161   8.492  18.294  0.00  0.00    +0.000 C 
ATOM      2  O   UNL     1       2.318   8.994  17.162  0.00  0.00    +0.000 OA
ATOM      3  N   UNL     1       1.492   9.193  19.291  0.00  0.00    +0.000 N 
ATOM      4  C   UNL     1       1.182   8.651  20.640  0.00  0.00    +0.000 C 
ENDROOT
BRANCH   1   5
ATOM      5  C   UNL     1       2.728   7.118  18.671  0.00  0.00    +0.000 C 
BRANCH   5  10
ATOM      6  C   UNL     1       4.780   5.639  18.189  0.00  0.00    +0.000 A 
ATOM      7  N   UNL     1       5.477   5.475  17.081  0.00  0.00    +0.000 NA
ATOM      8  N   UNL     1       5.092   6.458  16.215  0.00  0.00    +0.000 NA
ATOM      9  N   UNL     1       4.149   7.214  16.752  0.00  0.00    +0.000 NA
ATOM     10  N   UNL     1       3.943   6.716  17.987  0.00  0.00    +0.000 N 
BRANCH   6  11
ATOM     11  C   UNL     1       4.861   4.808  19.432  0.00  0.00    +0.000 C 
BRANCH  11  15
ATOM     12  C   UNL     1       1.651   2.612  21.726  0.00  0.00    +0.000 C 
ATOM     13  C   UNL     1       1.438   3.847  20.854  0.00  0.00    +0.000 C 
ATOM     14  C   UNL     1       2.724   4.659  20.623  0.00  0.00    +0.000 C 
ATOM     15  N   UNL     1       3.658   3.977  19.701  0.00  0.00    +0.000 NA
ATOM     16  C   UNL     1       2.926   3.756  18.435  0.00  0.00    +0.000 C 
ATOM     17  C   UNL     1       1.572   3.034  18.566  0.00  0.00    +0.000 C 
ATOM     18  C   UNL     1       1.684   1.505  18.612  0.00  0.00    +0.000 C 
ATOM     19  O   UNL     1       0.752   3.543  19.627  0.00  0.00    +0.000 OA
ENDBRANCH  11  15
ENDBRANCH   6  11
ENDBRANCH   5  10
ENDBRANCH   1   5
BRANCH   3  20
ATOM     20  C   UNL     1       1.043  10.543  19.036  0.00  0.00    +0.000 C 
BRANCH  20  21
ATOM     21  C   UNL     1      -0.378  10.540  18.605  0.00  0.00    +0.000 A 
ATOM     22  C   UNL     1      -1.509  11.118  19.146  0.00  0.00    +0.000 A 
ATOM     23  C   UNL     1      -2.571  10.962  18.209  0.00  0.00    +0.000 A 
ATOM     24  C   UNL     1      -3.909  11.361  18.151  0.00  0.00    +0.000 A 
ATOM     25  C   UNL     1      -4.409  11.613  16.884  0.00  0.00    +0.000 A 
ATOM     26  F   UNL     1      -5.404  12.505  16.726  0.00  0.00    +0.000 F 
ATOM     27  C   UNL     1      -3.892  10.956  15.785  0.00  0.00    +0.000 A 
ATOM     28  C   UNL     1      -2.788  10.110  15.933  0.00  0.00    +0.000 A 
ATOM     29  C   UNL     1      -2.054  10.285  17.113  0.00  0.00    +0.000 A 
ATOM     30  N   UNL     1      -0.787   9.882  17.452  0.00  0.00    +0.000 N 
ATOM     31  H   UNL     1      -0.187   9.324  16.868  0.00  0.00    +0.000 HD
ENDBRANCH  20  21
ENDBRANCH   3  20
TORSDOF 6
ENDMDL
