MODEL 1
REMARK VINA RESULT:      -8.7      0.000      0.000
REMARK  Name = 
REMARK  11 active torsions:
REMARK  status: ('A' for Active; 'I' for Inactive)
REMARK    1  A    between atoms: C_2  and  C_3
REMARK    2  A    between atoms: C_4  and  C_5
REMARK    3  A    between atoms: C_9  and  N_10
REMARK    4  A    between atoms: C_11  and  C_13
REMARK    5  A    between atoms: C_13  and  O_14
REMARK    6  A    between atoms: C_13  and  C_15
REMARK    7  A    between atoms: C_15  and  C_16
REMARK    8  A    between atoms: C_16  and  C_17
REMARK    9  A    between atoms: C_22  and  C_23
REMARK   10  A    between atoms: C_29  and  O_30
REMARK   11  A    between atoms: C_32  and  N_33
REMARK                            x       y       z     vdW  Elec       q    Type
REMARK                         _______ _______ _______ _____ _____    ______ ____
ROOT
ATOM      1  C   UNL     1       3.127   3.980  19.532  0.00  0.00    +0.000 A 
ATOM      2  C   UNL     1       3.825   5.035  18.910  0.00  0.00    +0.000 A 
ATOM      3  C   UNL     1       3.298   6.335  19.047  0.00  0.00    +0.000 A 
ATOM      4  C   UNL     1       2.172   6.572  19.821  0.00  0.00    +0.000 A 
ATOM      5  N   UNL     1       1.585   5.560  20.504  0.00  0.00    +0.000 NA
ATOM      6  C   UNL     1       1.985   4.284  20.277  0.00  0.00    +0.000 A 
ENDROOT
BRANCH   4   7
ATOM      7  C   UNL     1       1.616   7.919  20.069  0.00  0.00    +0.000 A 
ATOM      8  C   UNL     1       1.087   8.239  21.335  0.00  0.00    +0.000 A 
ATOM      9  C   UNL     1       0.513   9.488  21.584  0.00  0.00    +0.000 A 
ATOM     10 CL   UNL     1      -0.116   9.842  23.144  0.00  0.00    +0.000 Cl
ATOM     11  C   UNL     1       0.449  10.450  20.582  0.00  0.00    +0.000 A 
ATOM     12  C   UNL     1       0.991  10.176  19.329  0.00  0.00    +0.000 A 
ATOM     13  C   UNL     1       1.588   8.935  19.091  0.00  0.00    +0.000 A 
BRANCH  13  14
ATOM     14  O   UNL     1       2.217   8.734  17.888  0.00  0.00    +0.000 OA
ATOM     15  H   UNL     1       1.537   8.751  17.185  0.00  0.00    +0.000 HD
ENDBRANCH  13  14
ENDBRANCH   4   7
BRANCH   2  16
ATOM     16  C   UNL     1       5.044   4.852  18.096  0.00  0.00    +0.000 A 
ATOM     17  C   UNL     1       6.331   5.105  18.610  0.00  0.00    +0.000 A 
ATOM     18  C   UNL     1       7.462   4.988  17.799  0.00  0.00    +0.000 A 
ATOM     19  C   UNL     1       7.325   4.619  16.464  0.00  0.00    +0.000 A 
ATOM     20  C   UNL     1       6.066   4.366  15.928  0.00  0.00    +0.000 A 
ATOM     21  C   UNL     1       4.944   4.481  16.748  0.00  0.00    +0.000 A 
BRANCH  20  22
ATOM     22  N   UNL     1       5.841   3.999  14.596  0.00  0.00    +0.000 N 
ATOM     23  C   UNL     1       6.595   4.380  13.501  0.00  0.00    +0.000 C 
ATOM     24  O   UNL     1       7.532   5.173  13.521  0.00  0.00    +0.000 OA
ATOM     25  H   UNL     1       5.064   3.333  14.406  0.00  0.00    +0.000 HD
BRANCH  23  26
ATOM     26  C   UNL     1       6.151   3.713  12.183  0.00  0.00    +0.000 C 
BRANCH  26  27
ATOM     27  O   UNL     1       6.675   2.380  12.119  0.00  0.00    +0.000 OA
ATOM     28  H   UNL     1       6.594   2.024  13.021  0.00  0.00    +0.000 HD
ENDBRANCH  26  27
BRANCH  26  29
ATOM     29  C   UNL     1       4.621   3.623  12.136  0.00  0.00    +0.000 C 
BRANCH  29  30
ATOM     30  C   UNL     1       4.041   2.693  11.075  0.00  0.00    +0.000 C 
BRANCH  30  31
ATOM     31  C   UNL     1       3.317   3.525  10.025  0.00  0.00    +0.000 C 
ATOM     32  O   UNL     1       3.220   4.749  10.270  0.00  0.00    +0.000 OA
ATOM     33  O   UNL     1       2.867   2.836   9.052  0.00  0.00    +0.000 OA
ENDBRANCH  30  31
ENDBRANCH  29  30
ENDBRANCH  26  29
ENDBRANCH  23  26
ENDBRANCH  20  22
ENDBRANCH   2  16
BRANCH   6  34
ATOM     34  N   UNL     1       1.301   3.318  21.005  0.00  0.00    +0.000 N 
ATOM     35  H   UNL     1       0.930   2.591  20.394  0.00  0.00    +0.000 HD
ATOM     36  H   UNL     1       1.851   2.902  21.756  0.00  0.00    +0.000 HD
ENDBRANCH   6  34
BRANCH   1  38
ATOM     37  N   UNL     1       3.946   1.526  19.357  0.00  0.00    +0.000 NA
ATOM     38  C   UNL     1       3.545   2.603  19.479  0.00  0.00    +0.000 C 
ENDBRANCH   1  38
TORSDOF 11
ENDMDL
MODEL 2
REMARK VINA RESULT:      -8.2      1.936      2.216
REMARK  Name = 
REMARK  11 active torsions:
REMARK  status: ('A' for Active; 'I' for Inactive)
REMARK    1  A    between atoms: C_2  and  C_3
REMARK    2  A    between atoms: C_4  and  C_5
REMARK    3  A    between atoms: C_9  and  N_10
REMARK    4  A    between atoms: C_11  and  C_13
REMARK    5  A    between atoms: C_13  and  O_14
REMARK    6  A    between atoms: C_13  and  C_15
REMARK    7  A    between atoms: C_15  and  C_16
REMARK    8  A    between atoms: C_16  and  C_17
REMARK    9  A    between atoms: C_22  and  C_23
REMARK   10  A    between atoms: C_29  and  O_30
REMARK   11  A    between atoms: C_32  and  N_33
REMARK                            x       y       z     vdW  Elec       q    Type
REMARK                         _______ _______ _______ _____ _____    ______ ____
ROOT
ATOM      1  C   UNL     1       3.163   4.474  19.924  0.00  0.00    +0.000 A 
ATOM      2  C   UNL     1       3.792   5.534  19.243  0.00  0.00    +0.000 A 
ATOM      3  C   UNL     1       3.165   6.796  19.278  0.00  0.00    +0.000 A 
ATOM      4  C   UNL     1       2.006   6.997  20.013  0.00  0.00    +0.000 A 
ATOM      5  N   UNL     1       1.482   5.992  20.755  0.00  0.00    +0.000 NA
ATOM      6  C   UNL     1       1.984   4.739  20.625  0.00  0.00    +0.000 A 
ENDROOT
BRANCH   4   7
ATOM      7  C   UNL     1       1.343   8.311  20.155  0.00  0.00    +0.000 A 
ATOM      8  C   UNL     1       0.630   8.859  19.070  0.00  0.00    +0.000 A 
ATOM      9  C   UNL     1       0.032  10.119  19.161  0.00  0.00    +0.000 A 
ATOM     10 CL   UNL     1      -0.835  10.751  17.817  0.00  0.00    +0.000 Cl
ATOM     11  C   UNL     1       0.129  10.866  20.329  0.00  0.00    +0.000 A 
ATOM     12  C   UNL     1       0.801  10.339  21.430  0.00  0.00    +0.000 A 
ATOM     13  C   UNL     1       1.375   9.067  21.344  0.00  0.00    +0.000 A 
BRANCH  13  14
ATOM     14  O   UNL     1       1.928   8.524  22.478  0.00  0.00    +0.000 OA
ATOM     15  H   UNL     1       2.816   8.183  22.247  0.00  0.00    +0.000 HD
ENDBRANCH  13  14
ENDBRANCH   4   7
BRANCH   2  16
ATOM     16  C   UNL     1       5.041   5.392  18.465  0.00  0.00    +0.000 A 
ATOM     17  C   UNL     1       6.307   5.626  19.037  0.00  0.00    +0.000 A 
ATOM     18  C   UNL     1       7.467   5.549  18.263  0.00  0.00    +0.000 A 
ATOM     19  C   UNL     1       7.380   5.238  16.908  0.00  0.00    +0.000 A 
ATOM     20  C   UNL     1       6.142   5.005  16.317  0.00  0.00    +0.000 A 
ATOM     21  C   UNL     1       4.991   5.080  17.100  0.00  0.00    +0.000 A 
BRANCH  20  22
ATOM     22  N   UNL     1       5.967   4.696  14.963  0.00  0.00    +0.000 N 
ATOM     23  C   UNL     1       6.869   4.935  13.942  0.00  0.00    +0.000 C 
ATOM     24  O   UNL     1       7.933   5.538  14.058  0.00  0.00    +0.000 OA
ATOM     25  H   UNL     1       5.099   4.189  14.695  0.00  0.00    +0.000 HD
BRANCH  23  26
ATOM     26  C   UNL     1       6.423   4.373  12.578  0.00  0.00    +0.000 C 
BRANCH  26  27
ATOM     27  O   UNL     1       7.534   4.370  11.672  0.00  0.00    +0.000 OA
ATOM     28  H   UNL     1       7.667   3.437  11.428  0.00  0.00    +0.000 HD
ENDBRANCH  26  27
BRANCH  26  29
ATOM     29  C   UNL     1       5.942   2.926  12.744  0.00  0.00    +0.000 C 
BRANCH  29  30
ATOM     30  C   UNL     1       5.506   2.219  11.465  0.00  0.00    +0.000 C 
BRANCH  30  31
ATOM     31  C   UNL     1       6.551   1.175  11.093  0.00  0.00    +0.000 C 
ATOM     32  O   UNL     1       7.712   1.606  10.908  0.00  0.00    +0.000 OA
ATOM     33  O   UNL     1       6.075  -0.002  10.979  0.00  0.00    +0.000 OA
ENDBRANCH  30  31
ENDBRANCH  29  30
ENDBRANCH  26  29
ENDBRANCH  23  26
ENDBRANCH  20  22
ENDBRANCH   2  16
BRANCH   6  34
ATOM     34  N   UNL     1       1.358   3.775  21.407  0.00  0.00    +0.000 N 
ATOM     35  H   UNL     1       1.981   2.987  21.587  0.00  0.00    +0.000 HD
ATOM     36  H   UNL     1       0.982   4.135  22.283  0.00  0.00    +0.000 HD
ENDBRANCH   6  34
BRANCH   1  38
ATOM     37  N   UNL     1       4.199   2.098  19.983  0.00  0.00    +0.000 NA
ATOM     38  C   UNL     1       3.686   3.133  19.976  0.00  0.00    +0.000 C 
ENDBRANCH   1  38
TORSDOF 11
ENDMDL
MODEL 3
REMARK VINA RESULT:      -7.9      5.596      9.305
REMARK  Name = 
REMARK  11 active torsions:
REMARK  status: ('A' for Active; 'I' for Inactive)
REMARK    1  A    between atoms: C_2  and  C_3
REMARK    2  A    between atoms: C_4  and  C_5
REMARK    3  A    between atoms: C_9  and  N_10
REMARK    4  A    between atoms: C_11  and  C_13
REMARK    5  A    between atoms: C_13  and  O_14
REMARK    6  A    between atoms: C_13  and  C_15
REMARK    7  A    between atoms: C_15  and  C_16
REMARK    8  A    between atoms: C_16  and  C_17
REMARK    9  A    between atoms: C_22  and  C_23
REMARK   10  A    between atoms: C_29  and  O_30
REMARK   11  A    between atoms: C_32  and  N_33
REMARK                            x       y       z     vdW  Elec       q    Type
REMARK                         _______ _______ _______ _____ _____    ______ ____
ROOT
ATOM      1  C   UNL     1      -3.442  11.609  17.861  0.00  0.00    +0.000 A 
ATOM      2  C   UNL     1      -2.599  11.993  18.922  0.00  0.00    +0.000 A 
ATOM      3  C   UNL     1      -3.205  12.549  20.068  0.00  0.00    +0.000 A 
ATOM      4  C   UNL     1      -4.584  12.651  20.168  0.00  0.00    +0.000 A 
ATOM      5  N   UNL     1      -5.380  12.168  19.184  0.00  0.00    +0.000 NA
ATOM      6  C   UNL     1      -4.822  11.761  18.017  0.00  0.00    +0.000 A 
ENDROOT
BRANCH   4   7
ATOM      7  C   UNL     1      -5.284  13.150  21.371  0.00  0.00    +0.000 A 
ATOM      8  C   UNL     1      -4.895  14.373  21.952  0.00  0.00    +0.000 A 
ATOM      9  C   UNL     1      -5.507  14.848  23.116  0.00  0.00    +0.000 A 
ATOM     10 CL   UNL     1      -5.010  16.348  23.792  0.00  0.00    +0.000 Cl
ATOM     11  C   UNL     1      -6.519  14.118  23.730  0.00  0.00    +0.000 A 
ATOM     12  C   UNL     1      -6.947  12.921  23.163  0.00  0.00    +0.000 A 
ATOM     13  C   UNL     1      -6.350  12.463  21.985  0.00  0.00    +0.000 A 
BRANCH  13  14
ATOM     14  O   UNL     1      -6.870  11.343  21.384  0.00  0.00    +0.000 OA
ATOM     15  H   UNL     1      -7.043  11.557  20.445  0.00  0.00    +0.000 HD
ENDBRANCH  13  14
ENDBRANCH   4   7
BRANCH   2  16
ATOM     16  C   UNL     1      -1.126  11.885  18.889  0.00  0.00    +0.000 A 
ATOM     17  C   UNL     1      -0.306  12.966  18.509  0.00  0.00    +0.000 A 
ATOM     18  C   UNL     1       1.080  12.817  18.423  0.00  0.00    +0.000 A 
ATOM     19  C   UNL     1       1.667  11.588  18.711  0.00  0.00    +0.000 A 
ATOM     20  C   UNL     1       0.882  10.502  19.085  0.00  0.00    +0.000 A 
ATOM     21  C   UNL     1      -0.501  10.663  19.174  0.00  0.00    +0.000 A 
BRANCH  20  22
ATOM     22  N   UNL     1       1.391   9.233  19.383  0.00  0.00    +0.000 N 
ATOM     23  C   UNL     1       2.119   8.420  18.534  0.00  0.00    +0.000 C 
ATOM     24  O   UNL     1       2.356   8.655  17.352  0.00  0.00    +0.000 OA
ATOM     25  H   UNL     1       1.260   8.879  20.353  0.00  0.00    +0.000 HD
BRANCH  23  26
ATOM     26  C   UNL     1       2.631   7.129  19.203  0.00  0.00    +0.000 C 
BRANCH  26  27
ATOM     27  O   UNL     1       1.915   6.904  20.425  0.00  0.00    +0.000 OA
ATOM     28  H   UNL     1       2.134   7.660  20.997  0.00  0.00    +0.000 HD
ENDBRANCH  26  27
BRANCH  26  29
ATOM     29  C   UNL     1       2.381   5.930  18.279  0.00  0.00    +0.000 C 
BRANCH  29  30
ATOM     30  C   UNL     1       3.617   5.131  17.877  0.00  0.00    +0.000 C 
BRANCH  30  31
ATOM     31  C   UNL     1       4.019   4.221  19.030  0.00  0.00    +0.000 C 
ATOM     32  O   UNL     1       3.078   3.647  19.626  0.00  0.00    +0.000 OA
ATOM     33  O   UNL     1       5.273   4.207  19.253  0.00  0.00    +0.000 OA
ENDBRANCH  30  31
ENDBRANCH  29  30
ENDBRANCH  26  29
ENDBRANCH  23  26
ENDBRANCH  20  22
ENDBRANCH   2  16
BRANCH   6  34
ATOM     34  N   UNL     1      -5.726  11.312  17.062  0.00  0.00    +0.000 N 
ATOM     35  H   UNL     1      -6.473  10.765  17.491  0.00  0.00    +0.000 HD
ATOM     36  H   UNL     1      -6.119  12.054  16.485  0.00  0.00    +0.000 HD
ENDBRANCH   6  34
BRANCH   1  38
ATOM     37  N   UNL     1      -2.505  10.521  15.702  0.00  0.00    +0.000 NA
ATOM     38  C   UNL     1      -2.968  11.028  16.632  0.00  0.00    +0.000 C 
ENDBRANCH   1  38
TORSDOF 11
ENDMDL
MODEL 4
REMARK VINA RESULT:      -7.9      1.202      1.653
REMARK  Name = 
REMARK  11 active torsions:
REMARK  status: ('A' for Active; 'I' for Inactive)
REMARK    1  A    between atoms: C_2  and  C_3
REMARK    2  A    between atoms: C_4  and  C_5
REMARK    3  A    between atoms: C_9  and  N_10
REMARK    4  A    between atoms: C_11  and  C_13
REMARK    5  A    between atoms: C_13  and  O_14
REMARK    6  A    between atoms: C_13  and  C_15
REMARK    7  A    between atoms: C_15  and  C_16
REMARK    8  A    between atoms: C_16  and  C_17
REMARK    9  A    between atoms: C_22  and  C_23
REMARK   10  A    between atoms: C_29  and  O_30
REMARK   11  A    between atoms: C_32  and  N_33
REMARK                            x       y       z     vdW  Elec       q    Type
REMARK                         _______ _______ _______ _____ _____    ______ ____
ROOT
ATOM      1  C   UNL     1       3.261   4.119  19.969  0.00  0.00    +0.000 A 
ATOM      2  C   UNL     1       3.867   5.154  19.230  0.00  0.00    +0.000 A 
ATOM      3  C   UNL     1       3.270   6.430  19.281  0.00  0.00    +0.000 A 
ATOM      4  C   UNL     1       2.164   6.668  20.083  0.00  0.00    +0.000 A 
ATOM      5  N   UNL     1       1.668   5.688  20.875  0.00  0.00    +0.000 NA
ATOM      6  C   UNL     1       2.134   4.422  20.738  0.00  0.00    +0.000 A 
ENDROOT
BRANCH   4   7
ATOM      7  C   UNL     1       1.538   7.998  20.243  0.00  0.00    +0.000 A 
ATOM      8  C   UNL     1       0.996   8.375  21.487  0.00  0.00    +0.000 A 
ATOM      9  C   UNL     1       0.357   9.607  21.655  0.00  0.00    +0.000 A 
ATOM     10 CL   UNL     1      -0.286  10.033  23.191  0.00  0.00    +0.000 Cl
ATOM     11  C   UNL     1       0.241  10.494  20.590  0.00  0.00    +0.000 A 
ATOM     12  C   UNL     1       0.793  10.164  19.355  0.00  0.00    +0.000 A 
ATOM     13  C   UNL     1       1.454   8.942  19.199  0.00  0.00    +0.000 A 
BRANCH  13  14
ATOM     14  O   UNL     1       2.091   8.694  18.008  0.00  0.00    +0.000 OA
ATOM     15  H   UNL     1       1.739   7.855  17.647  0.00  0.00    +0.000 HD
ENDBRANCH  13  14
ENDBRANCH   4   7
BRANCH   2  16
ATOM     16  C   UNL     1       5.062   4.972  18.379  0.00  0.00    +0.000 A 
ATOM     17  C   UNL     1       6.341   5.401  18.784  0.00  0.00    +0.000 A 
ATOM     18  C   UNL     1       7.441   5.276  17.933  0.00  0.00    +0.000 A 
ATOM     19  C   UNL     1       7.280   4.722  16.665  0.00  0.00    +0.000 A 
ATOM     20  C   UNL     1       6.028   4.293  16.237  0.00  0.00    +0.000 A 
ATOM     21  C   UNL     1       4.937   4.418  17.097  0.00  0.00    +0.000 A 
BRANCH  20  22
ATOM     22  N   UNL     1       5.779   3.735  14.978  0.00  0.00    +0.000 N 
ATOM     23  C   UNL     1       6.363   4.113  13.782  0.00  0.00    +0.000 C 
ATOM     24  O   UNL     1       7.129   5.061  13.632  0.00  0.00    +0.000 OA
ATOM     25  H   UNL     1       5.133   2.920  14.933  0.00  0.00    +0.000 HD
BRANCH  23  26
ATOM     26  C   UNL     1       5.959   3.223  12.590  0.00  0.00    +0.000 C 
BRANCH  26  27
ATOM     27  O   UNL     1       4.788   3.763  11.962  0.00  0.00    +0.000 OA
ATOM     28  H   UNL     1       4.060   3.599  12.586  0.00  0.00    +0.000 HD
ENDBRANCH  26  27
BRANCH  26  29
ATOM     29  C   UNL     1       7.087   3.203  11.551  0.00  0.00    +0.000 C 
BRANCH  29  30
ATOM     30  C   UNL     1       7.525   1.823  11.071  0.00  0.00    +0.000 C 
BRANCH  30  31
ATOM     31  C   UNL     1       6.313   0.901  11.033  0.00  0.00    +0.000 C 
ATOM     32  O   UNL     1       5.234   1.431  10.680  0.00  0.00    +0.000 OA
ATOM     33  O   UNL     1       6.567  -0.289  11.411  0.00  0.00    +0.000 OA
ENDBRANCH  30  31
ENDBRANCH  29  30
ENDBRANCH  26  29
ENDBRANCH  23  26
ENDBRANCH  20  22
ENDBRANCH   2  16
BRANCH   6  34
ATOM     34  N   UNL     1       1.539   3.485  21.575  0.00  0.00    +0.000 N 
ATOM     35  H   UNL     1       0.549   3.688  21.709  0.00  0.00    +0.000 HD
ATOM     36  H   UNL     1       1.664   2.521  21.268  0.00  0.00    +0.000 HD
ENDBRANCH   6  34
BRANCH   1  38
ATOM     37  N   UNL     1       4.135   1.679  19.942  0.00  0.00    +0.000 NA
ATOM     38  C   UNL     1       3.758   2.769  20.012  0.00  0.00    +0.000 C 
ENDBRANCH   1  38
TORSDOF 11
ENDMDL
MODEL 5
REMARK VINA RESULT:      -7.9      3.876      9.936
REMARK  Name = 
REMARK  11 active torsions:
REMARK  status: ('A' for Active; 'I' for Inactive)
REMARK    1  A    between atoms: C_2  and  C_3
REMARK    2  A    between atoms: C_4  and  C_5
REMARK    3  A    between atoms: C_9  and  N_10
REMARK    4  A    between atoms: C_11  and  C_13
REMARK    5  A    between atoms: C_13  and  O_14
REMARK    6  A    between atoms: C_13  and  C_15
REMARK    7  A    between atoms: C_15  and  C_16
REMARK    8  A    between atoms: C_16  and  C_17
REMARK    9  A    between atoms: C_22  and  C_23
REMARK   10  A    between atoms: C_29  and  O_30
REMARK   11  A    between atoms: C_32  and  N_33
REMARK                            x       y       z     vdW  Elec       q    Type
REMARK                         _______ _______ _______ _____ _____    ______ ____
ROOT
ATOM      1  C   UNL     1       3.518   5.056  18.988  0.00  0.00    +0.000 A 
ATOM      2  C   UNL     1       3.460   6.147  18.099  0.00  0.00    +0.000 A 
ATOM      3  C   UNL     1       4.226   6.069  16.919  0.00  0.00    +0.000 A 
ATOM      4  C   UNL     1       4.957   4.930  16.616  0.00  0.00    +0.000 A 
ATOM      5  N   UNL     1       4.907   3.848  17.428  0.00  0.00    +0.000 NA
ATOM      6  C   UNL     1       4.294   3.949  18.634  0.00  0.00    +0.000 A 
ENDROOT
BRANCH   4   7
ATOM      7  C   UNL     1       5.718   4.753  15.361  0.00  0.00    +0.000 A 
ATOM      8  C   UNL     1       5.152   4.028  14.293  0.00  0.00    +0.000 A 
ATOM      9  C   UNL     1       5.866   3.805  13.112  0.00  0.00    +0.000 A 
ATOM     10 CL   UNL     1       5.139   2.921  11.830  0.00  0.00    +0.000 Cl
ATOM     11  C   UNL     1       7.158   4.296  12.963  0.00  0.00    +0.000 A 
ATOM     12  C   UNL     1       7.734   5.043  13.988  0.00  0.00    +0.000 A 
ATOM     13  C   UNL     1       7.007   5.286  15.157  0.00  0.00    +0.000 A 
BRANCH  13  14
ATOM     14  O   UNL     1       7.551   6.122  16.100  0.00  0.00    +0.000 OA
ATOM     15  H   UNL     1       8.339   5.681  16.477  0.00  0.00    +0.000 HD
ENDBRANCH  13  14
ENDBRANCH   4   7
BRANCH   2  16
ATOM     16  C   UNL     1       2.680   7.377  18.350  0.00  0.00    +0.000 A 
ATOM     17  C   UNL     1       2.721   8.479  17.474  0.00  0.00    +0.000 A 
ATOM     18  C   UNL     1       2.025   9.654  17.768  0.00  0.00    +0.000 A 
ATOM     19  C   UNL     1       1.280   9.746  18.941  0.00  0.00    +0.000 A 
ATOM     20  C   UNL     1       1.224   8.673  19.826  0.00  0.00    +0.000 A 
ATOM     21  C   UNL     1       1.918   7.503  19.520  0.00  0.00    +0.000 A 
BRANCH  20  22
ATOM     22  N   UNL     1       0.507   8.686  21.028  0.00  0.00    +0.000 N 
ATOM     23  C   UNL     1       0.902   9.279  22.214  0.00  0.00    +0.000 C 
ATOM     24  O   UNL     1       1.989   9.814  22.416  0.00  0.00    +0.000 OA
ATOM     25  H   UNL     1      -0.441   8.256  21.027  0.00  0.00    +0.000 HD
BRANCH  23  26
ATOM     26  C   UNL     1      -0.167   9.213  23.323  0.00  0.00    +0.000 C 
BRANCH  26  27
ATOM     27  O   UNL     1       0.456   9.397  24.602  0.00  0.00    +0.000 OA
ATOM     28  H   UNL     1       1.294   9.857  24.419  0.00  0.00    +0.000 HD
ENDBRANCH  26  27
BRANCH  26  29
ATOM     29  C   UNL     1      -1.190  10.338  23.128  0.00  0.00    +0.000 C 
BRANCH  29  30
ATOM     30  C   UNL     1      -0.650  11.632  22.528  0.00  0.00    +0.000 C 
BRANCH  30  31
ATOM     31  C   UNL     1      -1.379  12.814  23.154  0.00  0.00    +0.000 C 
ATOM     32  O   UNL     1      -2.592  12.635  23.409  0.00  0.00    +0.000 OA
ATOM     33  O   UNL     1      -0.647  13.848  23.291  0.00  0.00    +0.000 OA
ENDBRANCH  30  31
ENDBRANCH  29  30
ENDBRANCH  26  29
ENDBRANCH  23  26
ENDBRANCH  20  22
ENDBRANCH   2  16
BRANCH   6  34
ATOM     34  N   UNL     1       4.322   2.792  19.404  0.00  0.00    +0.000 N 
ATOM     35  H   UNL     1       4.216   1.960  18.823  0.00  0.00    +0.000 HD
ATOM     36  H   UNL     1       5.151   2.709  19.992  0.00  0.00    +0.000 HD
ENDBRANCH   6  34
BRANCH   1  38
ATOM     37  N   UNL     1       2.287   4.884  21.263  0.00  0.00    +0.000 NA
ATOM     38  C   UNL     1       2.792   4.995  20.229  0.00  0.00    +0.000 C 
ENDBRANCH   1  38
TORSDOF 11
ENDMDL
MODEL 6
REMARK VINA RESULT:      -7.9      4.684      7.630
REMARK  Name = 
REMARK  11 active torsions:
REMARK  status: ('A' for Active; 'I' for Inactive)
REMARK    1  A    between atoms: C_2  and  C_3
REMARK    2  A    between atoms: C_4  and  C_5
REMARK    3  A    between atoms: C_9  and  N_10
REMARK    4  A    between atoms: C_11  and  C_13
REMARK    5  A    between atoms: C_13  and  O_14
REMARK    6  A    between atoms: C_13  and  C_15
REMARK    7  A    between atoms: C_15  and  C_16
REMARK    8  A    between atoms: C_16  and  C_17
REMARK    9  A    between atoms: C_22  and  C_23
REMARK   10  A    between atoms: C_29  and  O_30
REMARK   11  A    between atoms: C_32  and  N_33
REMARK                            x       y       z     vdW  Elec       q    Type
REMARK                         _______ _______ _______ _____ _____    ______ ____
ROOT
ATOM      1  C   UNL     1       0.043  10.264  20.986  0.00  0.00    +0.000 A 
ATOM      2  C   UNL     1       0.949  10.287  19.907  0.00  0.00    +0.000 A 
ATOM      3  C   UNL     1       1.220  11.534  19.310  0.00  0.00    +0.000 A 
ATOM      4  C   UNL     1       0.666  12.702  19.810  0.00  0.00    +0.000 A 
ATOM      5  N   UNL     1      -0.111  12.671  20.920  0.00  0.00    +0.000 NA
ATOM      6  C   UNL     1      -0.500  11.474  21.426  0.00  0.00    +0.000 A 
ENDROOT
BRANCH   4   7
ATOM      7  C   UNL     1       0.971  14.048  19.280  0.00  0.00    +0.000 A 
ATOM      8  C   UNL     1       2.284  14.364  18.879  0.00  0.00    +0.000 A 
ATOM      9  C   UNL     1       2.612  15.642  18.418  0.00  0.00    +0.000 A 
ATOM     10 CL   UNL     1       4.224  15.987  17.932  0.00  0.00    +0.000 Cl
ATOM     11  C   UNL     1       1.643  16.637  18.345  0.00  0.00    +0.000 A 
ATOM     12  C   UNL     1       0.329  16.347  18.705  0.00  0.00    +0.000 A 
ATOM     13  C   UNL     1       0.000  15.061  19.140  0.00  0.00    +0.000 A 
BRANCH  13  14
ATOM     14  O   UNL     1      -1.321  14.771  19.375  0.00  0.00    +0.000 OA
ATOM     15  H   UNL     1      -1.555  15.124  20.257  0.00  0.00    +0.000 HD
ENDBRANCH  13  14
ENDBRANCH   4   7
BRANCH   2  16
ATOM     16  C   UNL     1       1.594   9.082  19.345  0.00  0.00    +0.000 A 
ATOM     17  C   UNL     1       1.933   8.984  17.981  0.00  0.00    +0.000 A 
ATOM     18  C   UNL     1       2.482   7.810  17.462  0.00  0.00    +0.000 A 
ATOM     19  C   UNL     1       2.699   6.716  18.296  0.00  0.00    +0.000 A 
ATOM     20  C   UNL     1       2.371   6.783  19.647  0.00  0.00    +0.000 A 
ATOM     21  C   UNL     1       1.828   7.963  20.155  0.00  0.00    +0.000 A 
BRANCH  20  22
ATOM     22  N   UNL     1       2.548   5.728  20.549  0.00  0.00    +0.000 N 
ATOM     23  C   UNL     1       1.735   4.617  20.685  0.00  0.00    +0.000 C 
ATOM     24  O   UNL     1       0.679   4.430  20.087  0.00  0.00    +0.000 OA
ATOM     25  H   UNL     1       3.401   5.745  21.146  0.00  0.00    +0.000 HD
BRANCH  23  26
ATOM     26  C   UNL     1       2.269   3.581  21.694  0.00  0.00    +0.000 C 
BRANCH  26  27
ATOM     27  O   UNL     1       1.214   2.681  22.062  0.00  0.00    +0.000 OA
ATOM     28  H   UNL     1       1.238   2.637  23.034  0.00  0.00    +0.000 HD
ENDBRANCH  26  27
BRANCH  26  29
ATOM     29  C   UNL     1       3.391   2.758  21.051  0.00  0.00    +0.000 C 
BRANCH  29  30
ATOM     30  C   UNL     1       3.172   2.355  19.596  0.00  0.00    +0.000 C 
BRANCH  30  31
ATOM     31  C   UNL     1       4.130   3.142  18.711  0.00  0.00    +0.000 C 
ATOM     32  O   UNL     1       3.744   3.348  17.537  0.00  0.00    +0.000 OA
ATOM     33  O   UNL     1       5.224   3.446  19.290  0.00  0.00    +0.000 OA
ENDBRANCH  30  31
ENDBRANCH  29  30
ENDBRANCH  26  29
ENDBRANCH  23  26
ENDBRANCH  20  22
ENDBRANCH   2  16
BRANCH   6  34
ATOM     34  N   UNL     1      -1.318  11.551  22.547  0.00  0.00    +0.000 N 
ATOM     35  H   UNL     1      -2.179  12.057  22.340  0.00  0.00    +0.000 HD
ATOM     36  H   UNL     1      -1.531  10.646  22.964  0.00  0.00    +0.000 HD
ENDBRANCH   6  34
BRANCH   1  38
ATOM     37  N   UNL     1      -0.689   8.168  22.325  0.00  0.00    +0.000 NA
ATOM     38  C   UNL     1      -0.330   9.067  21.693  0.00  0.00    +0.000 C 
ENDBRANCH   1  38
TORSDOF 11
ENDMDL
MODEL 7
REMARK VINA RESULT:      -7.8      5.498      9.162
REMARK  Name = 
REMARK  11 active torsions:
REMARK  status: ('A' for Active; 'I' for Inactive)
REMARK    1  A    between atoms: C_2  and  C_3
REMARK    2  A    between atoms: C_4  and  C_5
REMARK    3  A    between atoms: C_9  and  N_10
REMARK    4  A    between atoms: C_11  and  C_13
REMARK    5  A    between atoms: C_13  and  O_14
REMARK    6  A    between atoms: C_13  and  C_15
REMARK    7  A    between atoms: C_15  and  C_16
REMARK    8  A    between atoms: C_16  and  C_17
REMARK    9  A    between atoms: C_22  and  C_23
REMARK   10  A    between atoms: C_29  and  O_30
REMARK   11  A    between atoms: C_32  and  N_33
REMARK                            x       y       z     vdW  Elec       q    Type
REMARK                         _______ _______ _______ _____ _____    ______ ____
ROOT
ATOM      1  C   UNL     1      -3.372  11.596  17.781  0.00  0.00    +0.000 A 
ATOM      2  C   UNL     1      -2.512  11.935  18.845  0.00  0.00    +0.000 A 
ATOM      3  C   UNL     1      -3.098  12.461  20.014  0.00  0.00    +0.000 A 
ATOM      4  C   UNL     1      -4.474  12.578  20.134  0.00  0.00    +0.000 A 
ATOM      5  N   UNL     1      -5.287  12.138  19.144  0.00  0.00    +0.000 NA
ATOM      6  C   UNL     1      -4.748  11.761  17.958  0.00  0.00    +0.000 A 
ENDROOT
BRANCH   4   7
ATOM      7  C   UNL     1      -5.154  13.047  21.360  0.00  0.00    +0.000 A 
ATOM      8  C   UNL     1      -4.680  12.645  22.624  0.00  0.00    +0.000 A 
ATOM      9  C   UNL     1      -5.330  13.035  23.798  0.00  0.00    +0.000 A 
ATOM     10 CL   UNL     1      -4.716  12.529  25.322  0.00  0.00    +0.000 Cl
ATOM     11  C   UNL     1      -6.467  13.833  23.745  0.00  0.00    +0.000 A 
ATOM     12  C   UNL     1      -6.944  14.272  22.512  0.00  0.00    +0.000 A 
ATOM     13  C   UNL     1      -6.276  13.901  21.342  0.00  0.00    +0.000 A 
BRANCH  13  14
ATOM     14  O   UNL     1      -6.695  14.443  20.153  0.00  0.00    +0.000 OA
ATOM     15  H   UNL     1      -7.664  14.320  20.089  0.00  0.00    +0.000 HD
ENDBRANCH  13  14
ENDBRANCH   4   7
BRANCH   2  16
ATOM     16  C   UNL     1      -1.041  11.809  18.791  0.00  0.00    +0.000 A 
ATOM     17  C   UNL     1      -0.214  12.880  18.397  0.00  0.00    +0.000 A 
ATOM     18  C   UNL     1       1.169  12.714  18.291  0.00  0.00    +0.000 A 
ATOM     19  C   UNL     1       1.746  11.479  18.575  0.00  0.00    +0.000 A 
ATOM     20  C   UNL     1       0.952  10.403  18.963  0.00  0.00    +0.000 A 
ATOM     21  C   UNL     1      -0.427  10.581  19.071  0.00  0.00    +0.000 A 
BRANCH  20  22
ATOM     22  N   UNL     1       1.451   9.129  19.257  0.00  0.00    +0.000 N 
ATOM     23  C   UNL     1       2.183   8.318  18.410  0.00  0.00    +0.000 C 
ATOM     24  O   UNL     1       2.435   8.560  17.233  0.00  0.00    +0.000 OA
ATOM     25  H   UNL     1       1.306   8.768  20.223  0.00  0.00    +0.000 HD
BRANCH  23  26
ATOM     26  C   UNL     1       2.680   7.019  19.075  0.00  0.00    +0.000 C 
BRANCH  26  27
ATOM     27  O   UNL     1       2.076   6.879  20.368  0.00  0.00    +0.000 OA
ATOM     28  H   UNL     1       2.804   6.644  20.971  0.00  0.00    +0.000 HD
ENDBRANCH  26  27
BRANCH  26  29
ATOM     29  C   UNL     1       2.268   5.809  18.227  0.00  0.00    +0.000 C 
BRANCH  29  30
ATOM     30  C   UNL     1       3.404   4.904  17.763  0.00  0.00    +0.000 C 
BRANCH  30  31
ATOM     31  C   UNL     1       4.062   4.266  18.981  0.00  0.00    +0.000 C 
ATOM     32  O   UNL     1       5.287   4.488  19.119  0.00  0.00    +0.000 OA
ATOM     33  O   UNL     1       3.266   3.551  19.672  0.00  0.00    +0.000 OA
ENDBRANCH  30  31
ENDBRANCH  29  30
ENDBRANCH  26  29
ENDBRANCH  23  26
ENDBRANCH  20  22
ENDBRANCH   2  16
BRANCH   6  34
ATOM     34  N   UNL     1      -5.669  11.355  16.999  0.00  0.00    +0.000 N 
ATOM     35  H   UNL     1      -5.419  11.710  16.076  0.00  0.00    +0.000 HD
ATOM     36  H   UNL     1      -5.808  10.346  16.964  0.00  0.00    +0.000 HD
ENDBRANCH   6  34
BRANCH   1  38
ATOM     37  N   UNL     1      -2.544  10.712  15.489  0.00  0.00    +0.000 NA
ATOM     38  C   UNL     1      -2.919  11.050  16.529  0.00  0.00    +0.000 C 
ENDBRANCH   1  38
TORSDOF 11
ENDMDL
MODEL 8
REMARK VINA RESULT:      -7.8      5.513      9.210
REMARK  Name = 
REMARK  11 active torsions:
REMARK  status: ('A' for Active; 'I' for Inactive)
REMARK    1  A    between atoms: C_2  and  C_3
REMARK    2  A    between atoms: C_4  and  C_5
REMARK    3  A    between atoms: C_9  and  N_10
REMARK    4  A    between atoms: C_11  and  C_13
REMARK    5  A    between atoms: C_13  and  O_14
REMARK    6  A    between atoms: C_13  and  C_15
REMARK    7  A    between atoms: C_15  and  C_16
REMARK    8  A    between atoms: C_16  and  C_17
REMARK    9  A    between atoms: C_22  and  C_23
REMARK   10  A    between atoms: C_29  and  O_30
REMARK   11  A    between atoms: C_32  and  N_33
REMARK                            x       y       z     vdW  Elec       q    Type
REMARK                         _______ _______ _______ _____ _____    ______ ____
ROOT
ATOM      1  C   UNL     1      -3.279  11.566  17.791  0.00  0.00    +0.000 A 
ATOM      2  C   UNL     1      -2.435  11.925  18.860  0.00  0.00    +0.000 A 
ATOM      3  C   UNL     1      -3.038  12.449  20.021  0.00  0.00    +0.000 A 
ATOM      4  C   UNL     1      -4.417  12.545  20.128  0.00  0.00    +0.000 A 
ATOM      5  N   UNL     1      -5.215  12.087  19.133  0.00  0.00    +0.000 NA
ATOM      6  C   UNL     1      -4.659  11.711  17.955  0.00  0.00    +0.000 A 
ENDROOT
BRANCH   4   7
ATOM      7  C   UNL     1      -5.115  13.011  21.345  0.00  0.00    +0.000 A 
ATOM      8  C   UNL     1      -4.688  14.187  21.993  0.00  0.00    +0.000 A 
ATOM      9  C   UNL     1      -5.298  14.626  23.171  0.00  0.00    +0.000 A 
ATOM     10 CL   UNL     1      -4.752  16.069  23.929  0.00  0.00    +0.000 Cl
ATOM     11  C   UNL     1      -6.348  13.908  23.734  0.00  0.00    +0.000 A 
ATOM     12  C   UNL     1      -6.814  12.759  23.100  0.00  0.00    +0.000 A 
ATOM     13  C   UNL     1      -6.218  12.337  21.909  0.00  0.00    +0.000 A 
BRANCH  13  14
ATOM     14  O   UNL     1      -6.773  11.272  21.244  0.00  0.00    +0.000 OA
ATOM     15  H   UNL     1      -7.729  11.251  21.452  0.00  0.00    +0.000 HD
ENDBRANCH  13  14
ENDBRANCH   4   7
BRANCH   2  16
ATOM     16  C   UNL     1      -0.961  11.821  18.820  0.00  0.00    +0.000 A 
ATOM     17  C   UNL     1      -0.139  12.944  18.602  0.00  0.00    +0.000 A 
ATOM     18  C   UNL     1       1.248  12.808  18.503  0.00  0.00    +0.000 A 
ATOM     19  C   UNL     1       1.833  11.549  18.619  0.00  0.00    +0.000 A 
ATOM     20  C   UNL     1       1.045  10.422  18.831  0.00  0.00    +0.000 A 
ATOM     21  C   UNL     1      -0.338  10.571  18.934  0.00  0.00    +0.000 A 
BRANCH  20  22
ATOM     22  N   UNL     1       1.552   9.123  18.950  0.00  0.00    +0.000 N 
ATOM     23  C   UNL     1       1.679   8.394  20.119  0.00  0.00    +0.000 C 
ATOM     24  O   UNL     1       1.444   8.813  21.249  0.00  0.00    +0.000 OA
ATOM     25  H   UNL     1       1.814   8.628  18.073  0.00  0.00    +0.000 HD
BRANCH  23  26
ATOM     26  C   UNL     1       2.169   6.950  19.896  0.00  0.00    +0.000 C 
BRANCH  26  27
ATOM     27  O   UNL     1       1.331   6.040  20.623  0.00  0.00    +0.000 OA
ATOM     28  H   UNL     1       1.779   5.900  21.475  0.00  0.00    +0.000 HD
ENDBRANCH  26  27
BRANCH  26  29
ATOM     29  C   UNL     1       2.076   6.593  18.407  0.00  0.00    +0.000 C 
BRANCH  29  30
ATOM     30  C   UNL     1       3.062   5.540  17.912  0.00  0.00    +0.000 C 
BRANCH  30  31
ATOM     31  C   UNL     1       2.342   4.204  17.784  0.00  0.00    +0.000 C 
ATOM     32  O   UNL     1       1.169   4.256  17.348  0.00  0.00    +0.000 OA
ATOM     33  O   UNL     1       3.035   3.212  18.184  0.00  0.00    +0.000 OA
ENDBRANCH  30  31
ENDBRANCH  29  30
ENDBRANCH  26  29
ENDBRANCH  23  26
ENDBRANCH  20  22
ENDBRANCH   2  16
BRANCH   6  34
ATOM     34  N   UNL     1      -5.565  11.285  16.990  0.00  0.00    +0.000 N 
ATOM     35  H   UNL     1      -6.244  12.015  16.775  0.00  0.00    +0.000 HD
ATOM     36  H   UNL     1      -5.126  10.947  16.135  0.00  0.00    +0.000 HD
ENDBRANCH   6  34
BRANCH   1  38
ATOM     37  N   UNL     1      -2.517  10.522  15.544  0.00  0.00    +0.000 NA
ATOM     38  C   UNL     1      -2.806  11.019  16.546  0.00  0.00    +0.000 C 
ENDBRANCH   1  38
TORSDOF 11
ENDMDL
MODEL 9
REMARK VINA RESULT:      -7.7      1.484      1.759
REMARK  Name = 
REMARK  11 active torsions:
REMARK  status: ('A' for Active; 'I' for Inactive)
REMARK    1  A    between atoms: C_2  and  C_3
REMARK    2  A    between atoms: C_4  and  C_5
REMARK    3  A    between atoms: C_9  and  N_10
REMARK    4  A    between atoms: C_11  and  C_13
REMARK    5  A    between atoms: C_13  and  O_14
REMARK    6  A    between atoms: C_13  and  C_15
REMARK    7  A    between atoms: C_15  and  C_16
REMARK    8  A    between atoms: C_16  and  C_17
REMARK    9  A    between atoms: C_22  and  C_23
REMARK   10  A    between atoms: C_29  and  O_30
REMARK   11  A    between atoms: C_32  and  N_33
REMARK                            x       y       z     vdW  Elec       q    Type
REMARK                         _______ _______ _______ _____ _____    ______ ____
ROOT
ATOM      1  C   UNL     1       3.154   4.466  19.876  0.00  0.00    +0.000 A 
ATOM      2  C   UNL     1       3.820   5.585  19.337  0.00  0.00    +0.000 A 
ATOM      3  C   UNL     1       3.182   6.838  19.445  0.00  0.00    +0.000 A 
ATOM      4  C   UNL     1       1.976   6.970  20.115  0.00  0.00    +0.000 A 
ATOM      5  N   UNL     1       1.411   5.901  20.726  0.00  0.00    +0.000 NA
ATOM      6  C   UNL     1       1.929   4.665  20.517  0.00  0.00    +0.000 A 
ENDROOT
BRANCH   4   7
ATOM      7  C   UNL     1       1.295   8.264  20.331  0.00  0.00    +0.000 A 
ATOM      8  C   UNL     1       0.715   8.553  21.582  0.00  0.00    +0.000 A 
ATOM      9  C   UNL     1       0.025   9.748  21.801  0.00  0.00    +0.000 A 
ATOM     10 CL   UNL     1      -0.664  10.066  23.344  0.00  0.00    +0.000 Cl
ATOM     11  C   UNL     1      -0.106  10.686  20.783  0.00  0.00    +0.000 A 
ATOM     12  C   UNL     1       0.483  10.444  19.544  0.00  0.00    +0.000 A 
ATOM     13  C   UNL     1       1.194   9.259  19.337  0.00  0.00    +0.000 A 
BRANCH  13  14
ATOM     14  O   UNL     1       1.863   9.100  18.149  0.00  0.00    +0.000 OA
ATOM     15  H   UNL     1       1.594   8.241  17.764  0.00  0.00    +0.000 HD
ENDBRANCH  13  14
ENDBRANCH   4   7
BRANCH   2  16
ATOM     16  C   UNL     1       5.119   5.516  18.636  0.00  0.00    +0.000 A 
ATOM     17  C   UNL     1       6.342   5.704  19.309  0.00  0.00    +0.000 A 
ATOM     18  C   UNL     1       7.551   5.698  18.611  0.00  0.00    +0.000 A 
ATOM     19  C   UNL     1       7.558   5.507  17.231  0.00  0.00    +0.000 A 
ATOM     20  C   UNL     1       6.364   5.322  16.540  0.00  0.00    +0.000 A 
ATOM     21  C   UNL     1       5.162   5.324  17.248  0.00  0.00    +0.000 A 
BRANCH  20  22
ATOM     22  N   UNL     1       6.282   5.132  15.156  0.00  0.00    +0.000 N 
ATOM     23  C   UNL     1       6.006   3.943  14.505  0.00  0.00    +0.000 C 
ATOM     24  O   UNL     1       5.876   2.848  15.045  0.00  0.00    +0.000 OA
ATOM     25  H   UNL     1       6.384   5.972  14.550  0.00  0.00    +0.000 HD
BRANCH  23  26
ATOM     26  C   UNL     1       5.875   4.093  12.976  0.00  0.00    +0.000 C 
BRANCH  26  27
ATOM     27  O   UNL     1       7.180   4.178  12.388  0.00  0.00    +0.000 OA
ATOM     28  H   UNL     1       7.267   5.098  12.080  0.00  0.00    +0.000 HD
ENDBRANCH  26  27
BRANCH  26  29
ATOM     29  C   UNL     1       5.171   2.862  12.391  0.00  0.00    +0.000 C 
BRANCH  29  30
ATOM     30  C   UNL     1       5.563   2.485  10.967  0.00  0.00    +0.000 C 
BRANCH  30  31
ATOM     31  C   UNL     1       6.593   1.363  11.013  0.00  0.00    +0.000 C 
ATOM     32  O   UNL     1       7.793   1.722  10.984  0.00  0.00    +0.000 OA
ATOM     33  O   UNL     1       6.076   0.199  11.033  0.00  0.00    +0.000 OA
ENDBRANCH  30  31
ENDBRANCH  29  30
ENDBRANCH  26  29
ENDBRANCH  23  26
ENDBRANCH  20  22
ENDBRANCH   2  16
BRANCH   6  34
ATOM     34  N   UNL     1       1.259   3.633  21.164  0.00  0.00    +0.000 N 
ATOM     35  H   UNL     1       1.144   2.827  20.550  0.00  0.00    +0.000 HD
ATOM     36  H   UNL     1       1.691   3.349  22.042  0.00  0.00    +0.000 HD
ENDBRANCH   6  34
BRANCH   1  38
ATOM     37  N   UNL     1       4.059   2.037  19.907  0.00  0.00    +0.000 NA
ATOM     38  C   UNL     1       3.681   3.128  19.840  0.00  0.00    +0.000 C 
ENDBRANCH   1  38
TORSDOF 11
ENDMDL
