MODEL 1
REMARK VINA RESULT:      -8.0      0.000      0.000
REMARK  Name = 
REMARK  7 active torsions:
REMARK  status: ('A' for Active; 'I' for Inactive)
REMARK    1  A    between atoms: C_1  and  C_2
REMARK    2  A    between atoms: C_2  and  C_3
REMARK    3  A    between atoms: C_2  and  C_4
REMARK    4  A    between atoms: C_4  and  C_5
REMARK    5  A    between atoms: N_7  and  C_8
REMARK    6  A    between atoms: C_11  and  S_12
REMARK    7  A    between atoms: S_12  and  N_15
REMARK                            x       y       z     vdW  Elec       q    Type
REMARK                         _______ _______ _______ _____ _____    ______ ____
ROOT
ATOM      1  S   UNL     1       0.772   9.074  21.451  0.00  0.00    +0.000 S 
ATOM      2  O   UNL     1      -0.483   8.508  21.875  0.00  0.00    +0.000 OA
ATOM      3  O   UNL     1       1.817   9.427  22.400  0.00  0.00    +0.000 OA
ENDROOT
BRANCH   1   4
ATOM      4  N   UNL     1       0.459  10.478  20.537  0.00  0.00    +0.000 NA
ATOM      5  C   UNL     1       1.321  11.667  20.753  0.00  0.00    +0.000 C 
ATOM      6  C   UNL     1       0.988  12.896  19.862  0.00  0.00    +0.000 C 
ATOM      7  C   UNL     1      -0.213  12.710  18.946  0.00  0.00    +0.000 C 
ATOM      8  C   UNL     1      -1.315  12.106  19.806  0.00  0.00    +0.000 C 
ATOM      9  C   UNL     1      -0.908  10.632  19.993  0.00  0.00    +0.000 C 
ATOM     10  C   UNL     1      -1.519  12.850  21.140  0.00  0.00    +0.000 A 
ATOM     11  C   UNL     1      -2.587  12.599  21.921  0.00  0.00    +0.000 A 
ATOM     12  C   UNL     1      -2.700  13.187  23.231  0.00  0.00    +0.000 A 
ATOM     13  C   UNL     1      -1.769  14.030  23.690  0.00  0.00    +0.000 A 
ATOM     14  C   UNL     1      -0.629  14.412  22.825  0.00  0.00    +0.000 A 
ATOM     15  O   UNL     1       0.189  15.226  23.245  0.00  0.00    +0.000 OA
ATOM     16  N   UNL     1      -0.548  13.763  21.590  0.00  0.00    +0.000 N 
ATOM     17  C   UNL     1       0.616  14.076  20.762  0.00  0.00    +0.000 C 
ENDBRANCH   1   4
BRANCH   1  21
ATOM     18  C   UNL     1       2.778   6.160  18.507  0.00  0.00    +0.000 A 
ATOM     19  C   UNL     1       2.302   5.701  19.737  0.00  0.00    +0.000 A 
ATOM     20  C   UNL     1       1.671   6.583  20.631  0.00  0.00    +0.000 A 
ATOM     21  C   UNL     1       1.505   7.930  20.287  0.00  0.00    +0.000 A 
ATOM     22  C   UNL     1       1.928   8.383  19.042  0.00  0.00    +0.000 A 
ATOM     23  C   UNL     1       2.574   7.504  18.169  0.00  0.00    +0.000 A 
BRANCH  18  26
ATOM     24  C   UNL     1       4.609   4.621  17.749  0.00  0.00    +0.000 C 
ATOM     25  O   UNL     1       5.228   4.499  18.800  0.00  0.00    +0.000 OA
ATOM     26  N   UNL     1       3.462   5.369  17.559  0.00  0.00    +0.000 N 
ATOM     27  H   UNL     1       3.033   5.306  16.646  0.00  0.00    +0.000 HD
BRANCH  24  28
ATOM     28  C   UNL     1       5.065   3.890  16.490  0.00  0.00    +0.000 C 
BRANCH  28  30
ATOM     29  C   UNL     1       7.071   5.309  15.863  0.00  0.00    +0.000 C 
ATOM     30  C   UNL     1       5.697   4.801  15.425  0.00  0.00    +0.000 C 
ATOM     31  C   UNL     1       5.830   4.053  14.094  0.00  0.00    +0.000 C 
ENDBRANCH  28  30
ENDBRANCH  24  28
ENDBRANCH  18  26
ENDBRANCH   1  21
TORSDOF 5
ENDMDL
MODEL 2
REMARK VINA RESULT:      -7.6      0.429      1.106
REMARK  Name = 
REMARK  7 active torsions:
REMARK  status: ('A' for Active; 'I' for Inactive)
REMARK    1  A    between atoms: C_1  and  C_2
REMARK    2  A    between atoms: C_2  and  C_3
REMARK    3  A    between atoms: C_2  and  C_4
REMARK    4  A    between atoms: C_4  and  C_5
REMARK    5  A    between atoms: N_7  and  C_8
REMARK    6  A    between atoms: C_11  and  S_12
REMARK    7  A    between atoms: S_12  and  N_15
REMARK                            x       y       z     vdW  Elec       q    Type
REMARK                         _______ _______ _______ _____ _____    ______ ____
ROOT
ATOM      1  S   UNL     1       0.653   9.172  21.427  0.00  0.00    +0.000 S 
ATOM      2  O   UNL     1      -0.607   8.539  21.725  0.00  0.00    +0.000 OA
ATOM      3  O   UNL     1       1.595   9.543  22.471  0.00  0.00    +0.000 OA
ENDROOT
BRANCH   1   4
ATOM      4  N   UNL     1       0.356  10.587  20.524  0.00  0.00    +0.000 NA
ATOM      5  C   UNL     1       1.248  11.755  20.730  0.00  0.00    +0.000 C 
ATOM      6  C   UNL     1       0.928  12.996  19.852  0.00  0.00    +0.000 C 
ATOM      7  C   UNL     1      -0.294  12.842  18.956  0.00  0.00    +0.000 C 
ATOM      8  C   UNL     1      -1.394  12.259  19.833  0.00  0.00    +0.000 C 
ATOM      9  C   UNL     1      -1.016  10.775  20.006  0.00  0.00    +0.000 C 
ATOM     10  C   UNL     1      -1.557  13.001  21.174  0.00  0.00    +0.000 A 
ATOM     11  C   UNL     1      -2.616  12.770  21.972  0.00  0.00    +0.000 A 
ATOM     12  C   UNL     1      -2.692  13.353  23.287  0.00  0.00    +0.000 A 
ATOM     13  C   UNL     1      -1.735  14.173  23.733  0.00  0.00    +0.000 A 
ATOM     14  C   UNL     1      -0.602  14.534  22.849  0.00  0.00    +0.000 A 
ATOM     15  O   UNL     1       0.242  15.327  23.259  0.00  0.00    +0.000 OA
ATOM     16  N   UNL     1      -0.557  13.889  21.611  0.00  0.00    +0.000 N 
ATOM     17  C   UNL     1       0.599  14.179  20.763  0.00  0.00    +0.000 C 
ENDBRANCH   1   4
BRANCH   1  21
ATOM     18  C   UNL     1       2.803   6.360  18.485  0.00  0.00    +0.000 A 
ATOM     19  C   UNL     1       2.560   7.691  18.137  0.00  0.00    +0.000 A 
ATOM     20  C   UNL     1       1.923   8.559  19.040  0.00  0.00    +0.000 A 
ATOM     21  C   UNL     1       1.535   8.095  20.302  0.00  0.00    +0.000 A 
ATOM     22  C   UNL     1       1.820   6.786  20.676  0.00  0.00    +0.000 A 
ATOM     23  C   UNL     1       2.435   5.924  19.764  0.00  0.00    +0.000 A 
BRANCH  18  26
ATOM     24  C   UNL     1       4.507   4.618  17.891  0.00  0.00    +0.000 C 
ATOM     25  O   UNL     1       5.169   4.612  18.923  0.00  0.00    +0.000 OA
ATOM     26  N   UNL     1       3.396   5.399  17.638  0.00  0.00    +0.000 N 
ATOM     27  H   UNL     1       2.920   5.230  16.761  0.00  0.00    +0.000 HD
BRANCH  24  28
ATOM     28  C   UNL     1       4.861   3.684  16.736  0.00  0.00    +0.000 C 
BRANCH  28  30
ATOM     29  C   UNL     1       5.590   5.403  15.020  0.00  0.00    +0.000 C 
ATOM     30  C   UNL     1       6.010   4.187  15.848  0.00  0.00    +0.000 C 
ATOM     31  C   UNL     1       7.228   4.550  16.705  0.00  0.00    +0.000 C 
ENDBRANCH  28  30
ENDBRANCH  24  28
ENDBRANCH  18  26
ENDBRANCH   1  21
TORSDOF 5
ENDMDL
MODEL 3
REMARK VINA RESULT:      -7.4      0.907      1.187
REMARK  Name = 
REMARK  7 active torsions:
REMARK  status: ('A' for Active; 'I' for Inactive)
REMARK    1  A    between atoms: C_1  and  C_2
REMARK    2  A    between atoms: C_2  and  C_3
REMARK    3  A    between atoms: C_2  and  C_4
REMARK    4  A    between atoms: C_4  and  C_5
REMARK    5  A    between atoms: N_7  and  C_8
REMARK    6  A    between atoms: C_11  and  S_12
REMARK    7  A    between atoms: S_12  and  N_15
REMARK                            x       y       z     vdW  Elec       q    Type
REMARK                         _______ _______ _______ _____ _____    ______ ____
ROOT
ATOM      1  S   UNL     1       0.573   9.308  21.149  0.00  0.00    +0.000 S 
ATOM      2  O   UNL     1      -0.639   8.548  21.324  0.00  0.00    +0.000 OA
ATOM      3  O   UNL     1       1.467   9.598  22.259  0.00  0.00    +0.000 OA
ENDROOT
BRANCH   1   4
ATOM      4  N   UNL     1       0.181  10.809  20.443  0.00  0.00    +0.000 NA
ATOM      5  C   UNL     1       0.964  12.004  20.847  0.00  0.00    +0.000 C 
ATOM      6  C   UNL     1       0.563  13.327  20.139  0.00  0.00    +0.000 C 
ATOM      7  C   UNL     1      -0.614  13.206  19.182  0.00  0.00    +0.000 C 
ATOM      8  C   UNL     1      -1.685  12.415  19.924  0.00  0.00    +0.000 C 
ATOM      9  C   UNL     1      -1.187  10.958  19.901  0.00  0.00    +0.000 C 
ATOM     10  C   UNL     1      -1.949  12.942  21.347  0.00  0.00    +0.000 A 
ATOM     11  C   UNL     1      -3.007  12.515  22.062  0.00  0.00    +0.000 A 
ATOM     12  C   UNL     1      -3.170  12.895  23.442  0.00  0.00    +0.000 A 
ATOM     13  C   UNL     1      -2.299  13.718  24.036  0.00  0.00    +0.000 A 
ATOM     14  C   UNL     1      -1.177  14.291  23.259  0.00  0.00    +0.000 A 
ATOM     15  O   UNL     1      -0.416  15.083  23.809  0.00  0.00    +0.000 OA
ATOM     16  N   UNL     1      -1.042  13.836  21.945  0.00  0.00    +0.000 N 
ATOM     17  C   UNL     1       0.108  14.338  21.194  0.00  0.00    +0.000 C 
ENDBRANCH   1   4
BRANCH   1  21
ATOM     18  C   UNL     1       3.201   7.205  18.011  0.00  0.00    +0.000 A 
ATOM     19  C   UNL     1       2.917   6.577  19.225  0.00  0.00    +0.000 A 
ATOM     20  C   UNL     1       2.098   7.207  20.178  0.00  0.00    +0.000 A 
ATOM     21  C   UNL     1       1.552   8.467  19.910  0.00  0.00    +0.000 A 
ATOM     22  C   UNL     1       1.787   9.076  18.681  0.00  0.00    +0.000 A 
ATOM     23  C   UNL     1       2.620   8.452  17.749  0.00  0.00    +0.000 A 
BRANCH  18  26
ATOM     24  C   UNL     1       5.407   6.461  17.074  0.00  0.00    +0.000 C 
ATOM     25  O   UNL     1       6.127   6.671  18.043  0.00  0.00    +0.000 OA
ATOM     26  N   UNL     1       4.044   6.679  17.007  0.00  0.00    +0.000 N 
ATOM     27  H   UNL     1       3.584   6.385  16.155  0.00  0.00    +0.000 HD
BRANCH  24  28
ATOM     28  C   UNL     1       5.986   5.877  15.788  0.00  0.00    +0.000 C 
BRANCH  28  30
ATOM     29  C   UNL     1       5.974   4.006  14.076  0.00  0.00    +0.000 C 
ATOM     30  C   UNL     1       5.268   4.613  15.289  0.00  0.00    +0.000 C 
ATOM     31  C   UNL     1       5.188   3.569  16.408  0.00  0.00    +0.000 C 
ENDBRANCH  28  30
ENDBRANCH  24  28
ENDBRANCH  18  26
ENDBRANCH   1  21
TORSDOF 5
ENDMDL
MODEL 4
REMARK VINA RESULT:      -7.3      1.840      2.885
REMARK  Name = 
REMARK  7 active torsions:
REMARK  status: ('A' for Active; 'I' for Inactive)
REMARK    1  A    between atoms: C_1  and  C_2
REMARK    2  A    between atoms: C_2  and  C_3
REMARK    3  A    between atoms: C_2  and  C_4
REMARK    4  A    between atoms: C_4  and  C_5
REMARK    5  A    between atoms: N_7  and  C_8
REMARK    6  A    between atoms: C_11  and  S_12
REMARK    7  A    between atoms: S_12  and  N_15
REMARK                            x       y       z     vdW  Elec       q    Type
REMARK                         _______ _______ _______ _____ _____    ______ ____
ROOT
ATOM      1  S   UNL     1       0.744   9.106  21.633  0.00  0.00    +0.000 S 
ATOM      2  O   UNL     1      -0.575   8.616  21.946  0.00  0.00    +0.000 OA
ATOM      3  O   UNL     1       1.748   9.325  22.662  0.00  0.00    +0.000 OA
ENDROOT
BRANCH   1   4
ATOM      4  N   UNL     1       0.595  10.578  20.786  0.00  0.00    +0.000 NA
ATOM      5  C   UNL     1      -0.411  11.562  21.255  0.00  0.00    +0.000 C 
ATOM      6  C   UNL     1      -0.467  12.888  20.446  0.00  0.00    +0.000 C 
ATOM      7  C   UNL     1       0.482  12.947  19.257  0.00  0.00    +0.000 C 
ATOM      8  C   UNL     1       0.317  11.627  18.516  0.00  0.00    +0.000 C 
ATOM      9  C   UNL     1       1.060  10.592  19.382  0.00  0.00    +0.000 C 
ATOM     10  C   UNL     1      -1.156  11.255  18.260  0.00  0.00    +0.000 A 
ATOM     11  C   UNL     1      -1.486  10.247  17.431  0.00  0.00    +0.000 A 
ATOM     12  C   UNL     1      -2.852   9.807  17.307  0.00  0.00    +0.000 A 
ATOM     13  C   UNL     1      -3.834  10.417  17.979  0.00  0.00    +0.000 A 
ATOM     14  C   UNL     1      -3.530  11.594  18.825  0.00  0.00    +0.000 A 
ATOM     15  O   UNL     1      -4.453  12.170  19.395  0.00  0.00    +0.000 OA
ATOM     16  N   UNL     1      -2.180  11.931  18.948  0.00  0.00    +0.000 N 
ATOM     17  C   UNL     1      -1.863  13.044  19.842  0.00  0.00    +0.000 C 
ENDBRANCH   1   4
BRANCH   1  21
ATOM     18  C   UNL     1       2.717   6.218  18.642  0.00  0.00    +0.000 A 
ATOM     19  C   UNL     1       2.210   5.740  19.852  0.00  0.00    +0.000 A 
ATOM     20  C   UNL     1       1.588   6.615  20.760  0.00  0.00    +0.000 A 
ATOM     21  C   UNL     1       1.464   7.974  20.450  0.00  0.00    +0.000 A 
ATOM     22  C   UNL     1       1.919   8.448  19.224  0.00  0.00    +0.000 A 
ATOM     23  C   UNL     1       2.555   7.576  18.338  0.00  0.00    +0.000 A 
BRANCH  18  26
ATOM     24  C   UNL     1       4.462   4.580  17.889  0.00  0.00    +0.000 C 
ATOM     25  O   UNL     1       4.998   4.337  18.964  0.00  0.00    +0.000 OA
ATOM     26  N   UNL     1       3.396   5.434  17.683  0.00  0.00    +0.000 N 
ATOM     27  H   UNL     1       3.023   5.468  16.744  0.00  0.00    +0.000 HD
BRANCH  24  28
ATOM     28  C   UNL     1       4.938   3.895  16.611  0.00  0.00    +0.000 C 
BRANCH  28  30
ATOM     29  C   UNL     1       6.802   5.563  16.186  0.00  0.00    +0.000 C 
ATOM     30  C   UNL     1       5.589   4.844  15.592  0.00  0.00    +0.000 C 
ATOM     31  C   UNL     1       6.018   4.071  14.340  0.00  0.00    +0.000 C 
ENDBRANCH  28  30
ENDBRANCH  24  28
ENDBRANCH  18  26
ENDBRANCH   1  21
TORSDOF 5
ENDMDL
MODEL 5
REMARK VINA RESULT:      -7.2      1.093      1.562
REMARK  Name = 
REMARK  7 active torsions:
REMARK  status: ('A' for Active; 'I' for Inactive)
REMARK    1  A    between atoms: C_1  and  C_2
REMARK    2  A    between atoms: C_2  and  C_3
REMARK    3  A    between atoms: C_2  and  C_4
REMARK    4  A    between atoms: C_4  and  C_5
REMARK    5  A    between atoms: N_7  and  C_8
REMARK    6  A    between atoms: C_11  and  S_12
REMARK    7  A    between atoms: S_12  and  N_15
REMARK                            x       y       z     vdW  Elec       q    Type
REMARK                         _______ _______ _______ _____ _____    ______ ____
ROOT
ATOM      1  S   UNL     1       0.511   9.382  21.260  0.00  0.00    +0.000 S 
ATOM      2  O   UNL     1      -0.704   8.619  21.395  0.00  0.00    +0.000 OA
ATOM      3  O   UNL     1       1.384   9.647  22.393  0.00  0.00    +0.000 OA
ENDROOT
BRANCH   1   4
ATOM      4  N   UNL     1       0.133  10.898  20.580  0.00  0.00    +0.000 NA
ATOM      5  C   UNL     1       0.887  12.088  21.046  0.00  0.00    +0.000 C 
ATOM      6  C   UNL     1       0.502  13.427  20.359  0.00  0.00    +0.000 C 
ATOM      7  C   UNL     1      -0.636  13.322  19.353  0.00  0.00    +0.000 C 
ATOM      8  C   UNL     1      -1.727  12.502  20.030  0.00  0.00    +0.000 C 
ATOM      9  C   UNL     1      -1.214  11.050  19.988  0.00  0.00    +0.000 C 
ATOM     10  C   UNL     1      -2.053  12.987  21.456  0.00  0.00    +0.000 A 
ATOM     11  C   UNL     1      -3.134  12.531  22.116  0.00  0.00    +0.000 A 
ATOM     12  C   UNL     1      -3.355  12.872  23.497  0.00  0.00    +0.000 A 
ATOM     13  C   UNL     1      -2.517  13.686  24.148  0.00  0.00    +0.000 A 
ATOM     14  C   UNL     1      -1.370  14.290  23.432  0.00  0.00    +0.000 A 
ATOM     15  O   UNL     1      -0.640  15.073  24.034  0.00  0.00    +0.000 OA
ATOM     16  N   UNL     1      -1.179  13.872  22.113  0.00  0.00    +0.000 N 
ATOM     17  C   UNL     1      -0.005  14.404  21.422  0.00  0.00    +0.000 C 
ENDBRANCH   1   4
BRANCH   1  21
ATOM     18  C   UNL     1       2.978   7.227  18.028  0.00  0.00    +0.000 A 
ATOM     19  C   UNL     1       2.462   8.501  17.786  0.00  0.00    +0.000 A 
ATOM     20  C   UNL     1       1.725   9.172  18.777  0.00  0.00    +0.000 A 
ATOM     21  C   UNL     1       1.513   8.568  20.022  0.00  0.00    +0.000 A 
ATOM     22  C   UNL     1       2.070   7.321  20.289  0.00  0.00    +0.000 A 
ATOM     23  C   UNL     1       2.782   6.653  19.290  0.00  0.00    +0.000 A 
BRANCH  18  26
ATOM     24  C   UNL     1       5.018   6.581  16.717  0.00  0.00    +0.000 C 
ATOM     25  O   UNL     1       5.820   7.393  17.165  0.00  0.00    +0.000 OA
ATOM     26  N   UNL     1       3.693   6.452  17.088  0.00  0.00    +0.000 N 
ATOM     27  H   UNL     1       3.184   5.682  16.674  0.00  0.00    +0.000 HD
BRANCH  24  28
ATOM     28  C   UNL     1       5.450   5.562  15.666  0.00  0.00    +0.000 C 
BRANCH  28  30
ATOM     29  C   UNL     1       7.242   4.464  17.086  0.00  0.00    +0.000 C 
ATOM     30  C   UNL     1       5.982   4.242  16.248  0.00  0.00    +0.000 C 
ATOM     31  C   UNL     1       4.909   3.567  17.109  0.00  0.00    +0.000 C 
ENDBRANCH  28  30
ENDBRANCH  24  28
ENDBRANCH  18  26
ENDBRANCH   1  21
TORSDOF 5
ENDMDL
MODEL 6
REMARK VINA RESULT:      -7.2      1.945      2.470
REMARK  Name = 
REMARK  7 active torsions:
REMARK  status: ('A' for Active; 'I' for Inactive)
REMARK    1  A    between atoms: C_1  and  C_2
REMARK    2  A    between atoms: C_2  and  C_3
REMARK    3  A    between atoms: C_2  and  C_4
REMARK    4  A    between atoms: C_4  and  C_5
REMARK    5  A    between atoms: N_7  and  C_8
REMARK    6  A    between atoms: C_11  and  S_12
REMARK    7  A    between atoms: S_12  and  N_15
REMARK                            x       y       z     vdW  Elec       q    Type
REMARK                         _______ _______ _______ _____ _____    ______ ____
ROOT
ATOM      1  S   UNL     1      -0.432  10.905  19.842  0.00  0.00    +0.000 S 
ATOM      2  O   UNL     1      -1.563  10.775  18.959  0.00  0.00    +0.000 OA
ATOM      3  O   UNL     1      -0.573  10.856  21.288  0.00  0.00    +0.000 OA
ENDROOT
BRANCH   1   4
ATOM      4  N   UNL     1       0.375  12.365  19.487  0.00  0.00    +0.000 NA
ATOM      5  C   UNL     1       1.447  12.819  20.407  0.00  0.00    +0.000 C 
ATOM      6  C   UNL     1       2.151  14.143  20.001  0.00  0.00    +0.000 C 
ATOM      7  C   UNL     1       1.589  14.804  18.750  0.00  0.00    +0.000 C 
ATOM      8  C   UNL     1       0.074  14.795  18.909  0.00  0.00    +0.000 C 
ATOM      9  C   UNL     1      -0.344  13.338  18.637  0.00  0.00    +0.000 C 
ATOM     10  C   UNL     1      -0.394  15.311  20.284  0.00  0.00    +0.000 A 
ATOM     11  C   UNL     1      -1.691  15.584  20.520  0.00  0.00    +0.000 A 
ATOM     12  C   UNL     1      -2.147  15.924  21.843  0.00  0.00    +0.000 A 
ATOM     13  C   UNL     1      -1.287  16.021  22.863  0.00  0.00    +0.000 A 
ATOM     14  C   UNL     1       0.162  15.828  22.627  0.00  0.00    +0.000 A 
ATOM     15  O   UNL     1       0.941  15.970  23.567  0.00  0.00    +0.000 OA
ATOM     16  N   UNL     1       0.530  15.443  21.336  0.00  0.00    +0.000 N 
ATOM     17  C   UNL     1       1.950  15.175  21.113  0.00  0.00    +0.000 C 
ENDBRANCH   1   4
BRANCH   1  21
ATOM     18  C   UNL     1       2.469   7.529  18.672  0.00  0.00    +0.000 A 
ATOM     19  C   UNL     1       2.084   8.484  17.729  0.00  0.00    +0.000 A 
ATOM     20  C   UNL     1       1.215   9.529  18.087  0.00  0.00    +0.000 A 
ATOM     21  C   UNL     1       0.736   9.624  19.399  0.00  0.00    +0.000 A 
ATOM     22  C   UNL     1       1.157   8.708  20.357  0.00  0.00    +0.000 A 
ATOM     23  C   UNL     1       2.004   7.660  19.987  0.00  0.00    +0.000 A 
BRANCH  18  26
ATOM     24  C   UNL     1       2.925   5.166  17.962  0.00  0.00    +0.000 C 
ATOM     25  O   UNL     1       1.784   4.803  17.699  0.00  0.00    +0.000 OA
ATOM     26  N   UNL     1       3.301   6.419  18.406  0.00  0.00    +0.000 N 
ATOM     27  H   UNL     1       4.294   6.580  18.508  0.00  0.00    +0.000 HD
BRANCH  24  28
ATOM     28  C   UNL     1       4.104   4.213  17.784  0.00  0.00    +0.000 C 
BRANCH  28  30
ATOM     29  C   UNL     1       6.598   4.669  17.824  0.00  0.00    +0.000 C 
ATOM     30  C   UNL     1       5.299   4.822  17.032  0.00  0.00    +0.000 C 
ATOM     31  C   UNL     1       5.458   4.161  15.659  0.00  0.00    +0.000 C 
ENDBRANCH  28  30
ENDBRANCH  24  28
ENDBRANCH  18  26
ENDBRANCH   1  21
TORSDOF 5
ENDMDL
MODEL 7
REMARK VINA RESULT:      -7.1      2.041      2.558
REMARK  Name = 
REMARK  7 active torsions:
REMARK  status: ('A' for Active; 'I' for Inactive)
REMARK    1  A    between atoms: C_1  and  C_2
REMARK    2  A    between atoms: C_2  and  C_3
REMARK    3  A    between atoms: C_2  and  C_4
REMARK    4  A    between atoms: C_4  and  C_5
REMARK    5  A    between atoms: N_7  and  C_8
REMARK    6  A    between atoms: C_11  and  S_12
REMARK    7  A    between atoms: S_12  and  N_15
REMARK                            x       y       z     vdW  Elec       q    Type
REMARK                         _______ _______ _______ _____ _____    ______ ____
ROOT
ATOM      1  S   UNL     1       0.511   9.906  21.279  0.00  0.00    +0.000 S 
ATOM      2  O   UNL     1      -0.657   9.403  21.954  0.00  0.00    +0.000 OA
ATOM      3  O   UNL     1       1.565  10.615  21.987  0.00  0.00    +0.000 OA
ENDROOT
BRANCH   1   4
ATOM      4  N   UNL     1       0.012  10.932  20.011  0.00  0.00    +0.000 NA
ATOM      5  C   UNL     1       0.675  12.252  19.870  0.00  0.00    +0.000 C 
ATOM      6  C   UNL     1       0.183  13.115  18.676  0.00  0.00    +0.000 C 
ATOM      7  C   UNL     1      -0.950  12.497  17.869  0.00  0.00    +0.000 C 
ATOM      8  C   UNL     1      -1.970  11.995  18.883  0.00  0.00    +0.000 C 
ATOM      9  C   UNL     1      -1.347  10.714  19.469  0.00  0.00    +0.000 C 
ATOM     10  C   UNL     1      -2.323  13.042  19.956  0.00  0.00    +0.000 A 
ATOM     11  C   UNL     1      -3.360  12.858  20.794  0.00  0.00    +0.000 A 
ATOM     12  C   UNL     1      -3.598  13.764  21.888  0.00  0.00    +0.000 A 
ATOM     13  C   UNL     1      -2.821  14.836  22.075  0.00  0.00    +0.000 A 
ATOM     14  C   UNL     1      -1.729  15.132  21.119  0.00  0.00    +0.000 A 
ATOM     15  O   UNL     1      -1.057  16.147  21.280  0.00  0.00    +0.000 OA
ATOM     16  N   UNL     1      -1.515  14.183  20.116  0.00  0.00    +0.000 N 
ATOM     17  C   UNL     1      -0.391  14.428  19.214  0.00  0.00    +0.000 C 
ENDBRANCH   1   4
BRANCH   1  21
ATOM     18  C   UNL     1       2.391   6.303  19.120  0.00  0.00    +0.000 A 
ATOM     19  C   UNL     1       2.351   7.553  18.499  0.00  0.00    +0.000 A 
ATOM     20  C   UNL     1       1.796   8.661  19.162  0.00  0.00    +0.000 A 
ATOM     21  C   UNL     1       1.289   8.519  20.458  0.00  0.00    +0.000 A 
ATOM     22  C   UNL     1       1.373   7.290  21.105  0.00  0.00    +0.000 A 
ATOM     23  C   UNL     1       1.906   6.189  20.429  0.00  0.00    +0.000 A 
BRANCH  18  26
ATOM     24  C   UNL     1       2.218   4.252  17.684  0.00  0.00    +0.000 C 
ATOM     25  O   UNL     1       1.066   4.373  17.284  0.00  0.00    +0.000 OA
ATOM     26  N   UNL     1       2.886   5.121  18.526  0.00  0.00    +0.000 N 
ATOM     27  H   UNL     1       3.860   4.914  18.704  0.00  0.00    +0.000 HD
BRANCH  24  28
ATOM     28  C   UNL     1       3.076   3.072  17.236  0.00  0.00    +0.000 C 
BRANCH  28  30
ATOM     29  C   UNL     1       4.209   2.054  19.263  0.00  0.00    +0.000 C 
ATOM     30  C   UNL     1       3.098   1.896  18.225  0.00  0.00    +0.000 C 
ATOM     31  C   UNL     1       1.747   1.774  18.939  0.00  0.00    +0.000 C 
ENDBRANCH  28  30
ENDBRANCH  24  28
ENDBRANCH  18  26
ENDBRANCH   1  21
TORSDOF 5
ENDMDL
MODEL 8
REMARK VINA RESULT:      -7.0      2.815      3.550
REMARK  Name = 
REMARK  7 active torsions:
REMARK  status: ('A' for Active; 'I' for Inactive)
REMARK    1  A    between atoms: C_1  and  C_2
REMARK    2  A    between atoms: C_2  and  C_3
REMARK    3  A    between atoms: C_2  and  C_4
REMARK    4  A    between atoms: C_4  and  C_5
REMARK    5  A    between atoms: N_7  and  C_8
REMARK    6  A    between atoms: C_11  and  S_12
REMARK    7  A    between atoms: S_12  and  N_15
REMARK                            x       y       z     vdW  Elec       q    Type
REMARK                         _______ _______ _______ _____ _____    ______ ____
ROOT
ATOM      1  S   UNL     1      -0.360  11.217  19.491  0.00  0.00    +0.000 S 
ATOM      2  O   UNL     1      -1.064  11.155  18.235  0.00  0.00    +0.000 OA
ATOM      3  O   UNL     1      -1.060  11.315  20.762  0.00  0.00    +0.000 OA
ENDROOT
BRANCH   1   4
ATOM      4  N   UNL     1       0.733  12.524  19.442  0.00  0.00    +0.000 NA
ATOM      5  C   UNL     1       1.558  12.798  20.645  0.00  0.00    +0.000 C 
ATOM      6  C   UNL     1       2.547  13.989  20.512  0.00  0.00    +0.000 C 
ATOM      7  C   UNL     1       2.474  14.731  19.185  0.00  0.00    +0.000 C 
ATOM      8  C   UNL     1       0.994  14.970  18.913  0.00  0.00    +0.000 C 
ATOM      9  C   UNL     1       0.447  13.600  18.469  0.00  0.00    +0.000 C 
ATOM     10  C   UNL     1       0.243  15.558  20.123  0.00  0.00    +0.000 A 
ATOM     11  C   UNL     1      -1.007  16.039  19.999  0.00  0.00    +0.000 A 
ATOM     12  C   UNL     1      -1.760  16.452  21.156  0.00  0.00    +0.000 A 
ATOM     13  C   UNL     1      -1.221  16.409  22.378  0.00  0.00    +0.000 A 
ATOM     14  C   UNL     1       0.187  15.980  22.549  0.00  0.00    +0.000 A 
ATOM     15  O   UNL     1       0.680  15.994  23.675  0.00  0.00    +0.000 OA
ATOM     16  N   UNL     1       0.840  15.538  21.397  0.00  0.00    +0.000 N 
ATOM     17  C   UNL     1       2.205  15.041  21.568  0.00  0.00    +0.000 C 
ENDBRANCH   1   4
BRANCH   1  21
ATOM     18  C   UNL     1       2.206   7.402  19.701  0.00  0.00    +0.000 A 
ATOM     19  C   UNL     1       2.208   8.189  18.548  0.00  0.00    +0.000 A 
ATOM     20  C   UNL     1       1.442   9.366  18.487  0.00  0.00    +0.000 A 
ATOM     21  C   UNL     1       0.678   9.763  19.589  0.00  0.00    +0.000 A 
ATOM     22  C   UNL     1       0.711   9.013  20.760  0.00  0.00    +0.000 A 
ATOM     23  C   UNL     1       1.458   7.832  20.804  0.00  0.00    +0.000 A 
BRANCH  18  26
ATOM     24  C   UNL     1       2.691   4.998  19.173  0.00  0.00    +0.000 C 
ATOM     25  O   UNL     1       1.857   4.803  18.297  0.00  0.00    +0.000 OA
ATOM     26  N   UNL     1       2.904   6.184  19.850  0.00  0.00    +0.000 N 
ATOM     27  H   UNL     1       3.683   6.199  20.495  0.00  0.00    +0.000 HD
BRANCH  24  28
ATOM     28  C   UNL     1       3.644   3.884  19.599  0.00  0.00    +0.000 C 
BRANCH  28  30
ATOM     29  C   UNL     1       1.930   3.159  21.322  0.00  0.00    +0.000 C 
ATOM     30  C   UNL     1       2.957   2.694  20.288  0.00  0.00    +0.000 C 
ATOM     31  C   UNL     1       2.267   1.803  19.250  0.00  0.00    +0.000 C 
ENDBRANCH  28  30
ENDBRANCH  24  28
ENDBRANCH  18  26
ENDBRANCH   1  21
TORSDOF 5
ENDMDL
MODEL 9
REMARK VINA RESULT:      -7.0      1.471      2.101
REMARK  Name = 
REMARK  7 active torsions:
REMARK  status: ('A' for Active; 'I' for Inactive)
REMARK    1  A    between atoms: C_1  and  C_2
REMARK    2  A    between atoms: C_2  and  C_3
REMARK    3  A    between atoms: C_2  and  C_4
REMARK    4  A    between atoms: C_4  and  C_5
REMARK    5  A    between atoms: N_7  and  C_8
REMARK    6  A    between atoms: C_11  and  S_12
REMARK    7  A    between atoms: S_12  and  N_15
REMARK                            x       y       z     vdW  Elec       q    Type
REMARK                         _______ _______ _______ _____ _____    ______ ____
ROOT
ATOM      1  S   UNL     1       0.491   9.812  21.216  0.00  0.00    +0.000 S 
ATOM      2  O   UNL     1      -0.696   9.248  21.807  0.00  0.00    +0.000 OA
ATOM      3  O   UNL     1       1.523  10.448  22.019  0.00  0.00    +0.000 OA
ENDROOT
BRANCH   1   4
ATOM      4  N   UNL     1       0.027  10.955  20.039  0.00  0.00    +0.000 NA
ATOM      5  C   UNL     1       0.662  12.296  20.069  0.00  0.00    +0.000 C 
ATOM      6  C   UNL     1       0.205  13.270  18.948  0.00  0.00    +0.000 C 
ATOM      7  C   UNL     1      -0.871  12.717  18.025  0.00  0.00    +0.000 C 
ATOM      8  C   UNL     1      -1.925  12.090  18.929  0.00  0.00    +0.000 C 
ATOM      9  C   UNL     1      -1.298  10.768  19.409  0.00  0.00    +0.000 C 
ATOM     10  C   UNL     1      -2.356  13.011  20.087  0.00  0.00    +0.000 A 
ATOM     11  C   UNL     1      -3.427  12.718  20.847  0.00  0.00    +0.000 A 
ATOM     12  C   UNL     1      -3.740  13.499  22.016  0.00  0.00    +0.000 A 
ATOM     13  C   UNL     1      -3.000  14.561  22.353  0.00  0.00    +0.000 A 
ATOM     14  C   UNL     1      -1.872  14.978  21.489  0.00  0.00    +0.000 A 
ATOM     15  O   UNL     1      -1.235  15.985  21.788  0.00  0.00    +0.000 OA
ATOM     16  N   UNL     1      -1.586  14.145  20.404  0.00  0.00    +0.000 N 
ATOM     17  C   UNL     1      -0.426  14.506  19.590  0.00  0.00    +0.000 C 
ENDBRANCH   1   4
BRANCH   1  21
ATOM     18  C   UNL     1       2.435   6.420  18.788  0.00  0.00    +0.000 A 
ATOM     19  C   UNL     1       2.299   7.694  18.233  0.00  0.00    +0.000 A 
ATOM     20  C   UNL     1       1.724   8.738  18.978  0.00  0.00    +0.000 A 
ATOM     21  C   UNL     1       1.294   8.509  20.289  0.00  0.00    +0.000 A 
ATOM     22  C   UNL     1       1.475   7.257  20.868  0.00  0.00    +0.000 A 
ATOM     23  C   UNL     1       2.027   6.219  20.112  0.00  0.00    +0.000 A 
BRANCH  18  26
ATOM     24  C   UNL     1       4.274   4.880  18.052  0.00  0.00    +0.000 C 
ATOM     25  O   UNL     1       5.229   5.417  18.602  0.00  0.00    +0.000 OA
ATOM     26  N   UNL     1       2.958   5.295  18.112  0.00  0.00    +0.000 N 
ATOM     27  H   UNL     1       2.278   4.699  17.659  0.00  0.00    +0.000 HD
BRANCH  24  28
ATOM     28  C   UNL     1       4.467   3.613  17.223  0.00  0.00    +0.000 C 
BRANCH  28  30
ATOM     29  C   UNL     1       4.197   2.351  19.407  0.00  0.00    +0.000 C 
ATOM     30  C   UNL     1       3.948   2.333  17.898  0.00  0.00    +0.000 C 
ATOM     31  C   UNL     1       2.449   2.159  17.631  0.00  0.00    +0.000 C 
ENDBRANCH  28  30
ENDBRANCH  24  28
ENDBRANCH  18  26
ENDBRANCH   1  21
TORSDOF 5
ENDMDL
