MODEL 1
REMARK VINA RESULT:      -7.3      0.000      0.000
REMARK  Name = 
REMARK  5 active torsions:
REMARK  status: ('A' for Active; 'I' for Inactive)
REMARK    1  A    between atoms: C_1  and  O_2
REMARK    2  A    between atoms: O_2  and  C_3
REMARK    3  A    between atoms: C_10  and  C_11
REMARK    4  A    between atoms: C_16  and  C_17
REMARK    5  A    between atoms: C_17  and  N_18
REMARK                            x       y       z     vdW  Elec       q    Type
REMARK                         _______ _______ _______ _____ _____    ______ ____
ROOT
ATOM      1  C   UNL     1       4.323   3.866  17.977  0.00  0.00    +0.000 C 
ATOM      2  O   UNL     1       4.001   3.176  17.005  0.00  0.00    +0.000 OA
ATOM      3  N   UNL     1       5.568   4.487  18.006  0.00  0.00    +0.000 N 
ATOM      4  C   UNL     1       6.485   4.384  16.882  0.00  0.00    +0.000 C 
ATOM      5  C   UNL     1       7.855   4.563  17.520  0.00  0.00    +0.000 C 
ATOM      6  C   UNL     1       7.610   5.563  18.655  0.00  0.00    +0.000 C 
ATOM      7  C   UNL     1       6.134   5.355  19.015  0.00  0.00    +0.000 C 
ENDROOT
BRANCH   1  15
ATOM      8  C   UNL     1       2.254   4.848  19.192  0.00  0.00    +0.000 A 
ATOM      9  C   UNL     1       1.324   4.738  20.244  0.00  0.00    +0.000 A 
ATOM     10  C   UNL     1       1.458   3.748  21.212  0.00  0.00    +0.000 A 
ATOM     11  C   UNL     1       2.525   2.872  21.130  0.00  0.00    +0.000 A 
ATOM     12  F   UNL     1       2.641   1.907  22.058  0.00  0.00    +0.000 F 
ATOM     13  C   UNL     1       3.458   2.970  20.104  0.00  0.00    +0.000 A 
ATOM     14  F   UNL     1       4.484   2.101  20.105  0.00  0.00    +0.000 F 
ATOM     15  C   UNL     1       3.336   3.952  19.104  0.00  0.00    +0.000 A 
BRANCH   8  17
ATOM     16  C   UNL     1       2.574   7.063  18.418  0.00  0.00    +0.000 C 
ATOM     17  O   UNL     1       2.015   5.760  18.196  0.00  0.00    +0.000 OA
ENDBRANCH   8  17
ENDBRANCH   1  15
BRANCH   6  18
ATOM     18  C   UNL     1       7.855   7.028  18.255  0.00  0.00    +0.000 C 
BRANCH  18  19
ATOM     19  N   UNL     1       7.698   7.229  16.821  0.00  0.00    +0.000 NA
ATOM     20  H   UNL     1       6.786   6.885  16.520  0.00  0.00    +0.000 HD
ATOM     21  H   UNL     1       8.390   6.671  16.324  0.00  0.00    +0.000 HD
ENDBRANCH  18  19
ENDBRANCH   6  18
TORSDOF 4
ENDMDL
MODEL 2
REMARK VINA RESULT:      -7.2      2.540      3.467
REMARK  Name = 
REMARK  5 active torsions:
REMARK  status: ('A' for Active; 'I' for Inactive)
REMARK    1  A    between atoms: C_1  and  O_2
REMARK    2  A    between atoms: O_2  and  C_3
REMARK    3  A    between atoms: C_10  and  C_11
REMARK    4  A    between atoms: C_16  and  C_17
REMARK    5  A    between atoms: C_17  and  N_18
REMARK                            x       y       z     vdW  Elec       q    Type
REMARK                         _______ _______ _______ _____ _____    ______ ____
ROOT
ATOM      1  C   UNL     1       5.271   4.643  19.043  0.00  0.00    +0.000 C 
ATOM      2  O   UNL     1       6.126   4.878  19.903  0.00  0.00    +0.000 OA
ATOM      3  N   UNL     1       5.607   4.704  17.694  0.00  0.00    +0.000 N 
ATOM      4  C   UNL     1       6.970   4.989  17.272  0.00  0.00    +0.000 C 
ATOM      5  C   UNL     1       6.796   5.615  15.896  0.00  0.00    +0.000 C 
ATOM      6  C   UNL     1       5.588   4.882  15.303  0.00  0.00    +0.000 C 
ATOM      7  C   UNL     1       4.786   4.440  16.533  0.00  0.00    +0.000 C 
ENDROOT
BRANCH   1  15
ATOM      8  C   UNL     1       3.349   3.062  19.768  0.00  0.00    +0.000 A 
ATOM      9  C   UNL     1       2.073   2.922  20.349  0.00  0.00    +0.000 A 
ATOM     10  C   UNL     1       1.322   4.041  20.695  0.00  0.00    +0.000 A 
ATOM     11  C   UNL     1       1.844   5.299  20.455  0.00  0.00    +0.000 A 
ATOM     12  F   UNL     1       1.122   6.376  20.806  0.00  0.00    +0.000 F 
ATOM     13  C   UNL     1       3.098   5.457  19.874  0.00  0.00    +0.000 A 
ATOM     14  F   UNL     1       3.528   6.710  19.646  0.00  0.00    +0.000 F 
ATOM     15  C   UNL     1       3.884   4.343  19.530  0.00  0.00    +0.000 A 
BRANCH   8  17
ATOM     16  C   UNL     1       3.792   1.217  18.352  0.00  0.00    +0.000 C 
ATOM     17  O   UNL     1       4.101   1.936  19.555  0.00  0.00    +0.000 OA
ENDBRANCH   8  17
ENDBRANCH   1  15
BRANCH   6  18
ATOM     18  C   UNL     1       5.963   3.657  14.450  0.00  0.00    +0.000 C 
BRANCH  18  19
ATOM     19  N   UNL     1       6.567   4.047  13.182  0.00  0.00    +0.000 NA
ATOM     20  H   UNL     1       7.490   3.624  13.094  0.00  0.00    +0.000 HD
ATOM     21  H   UNL     1       6.714   5.055  13.174  0.00  0.00    +0.000 HD
ENDBRANCH  18  19
ENDBRANCH   6  18
TORSDOF 4
ENDMDL
MODEL 3
REMARK VINA RESULT:      -7.2      2.186      2.485
REMARK  Name = 
REMARK  5 active torsions:
REMARK  status: ('A' for Active; 'I' for Inactive)
REMARK    1  A    between atoms: C_1  and  O_2
REMARK    2  A    between atoms: O_2  and  C_3
REMARK    3  A    between atoms: C_10  and  C_11
REMARK    4  A    between atoms: C_16  and  C_17
REMARK    5  A    between atoms: C_17  and  N_18
REMARK                            x       y       z     vdW  Elec       q    Type
REMARK                         _______ _______ _______ _____ _____    ______ ____
ROOT
ATOM      1  C   UNL     1       3.642   6.115  17.993  0.00  0.00    +0.000 C 
ATOM      2  O   UNL     1       3.094   6.949  17.266  0.00  0.00    +0.000 OA
ATOM      3  N   UNL     1       5.028   5.997  17.993  0.00  0.00    +0.000 N 
ATOM      4  C   UNL     1       5.857   6.881  17.188  0.00  0.00    +0.000 C 
ATOM      5  C   UNL     1       7.111   6.059  16.928  0.00  0.00    +0.000 C 
ATOM      6  C   UNL     1       7.294   5.241  18.212  0.00  0.00    +0.000 C 
ATOM      7  C   UNL     1       5.873   5.122  18.776  0.00  0.00    +0.000 C 
ENDROOT
BRANCH   1  15
ATOM      8  C   UNL     1       2.196   5.555  20.070  0.00  0.00    +0.000 A 
ATOM      9  C   UNL     1       1.261   4.693  20.678  0.00  0.00    +0.000 A 
ATOM     10  C   UNL     1       0.866   3.516  20.050  0.00  0.00    +0.000 A 
ATOM     11  C   UNL     1       1.409   3.199  18.818  0.00  0.00    +0.000 A 
ATOM     12  F   UNL     1       1.013   2.070  18.209  0.00  0.00    +0.000 F 
ATOM     13  C   UNL     1       2.340   4.033  18.207  0.00  0.00    +0.000 A 
ATOM     14  F   UNL     1       2.845   3.645  17.024  0.00  0.00    +0.000 F 
ATOM     15  C   UNL     1       2.743   5.236  18.813  0.00  0.00    +0.000 A 
BRANCH   8  17
ATOM     16  C   UNL     1       1.434   7.750  20.525  0.00  0.00    +0.000 C 
ATOM     17  O   UNL     1       2.463   6.760  20.667  0.00  0.00    +0.000 OA
ENDBRANCH   8  17
ENDBRANCH   1  15
BRANCH   6  18
ATOM     18  C   UNL     1       8.217   5.908  19.246  0.00  0.00    +0.000 C 
BRANCH  18  19
ATOM     19  N   UNL     1       8.034   5.343  20.577  0.00  0.00    +0.000 NA
ATOM     20  H   UNL     1       8.532   4.457  20.649  0.00  0.00    +0.000 HD
ATOM     21  H   UNL     1       7.048   5.128  20.719  0.00  0.00    +0.000 HD
ENDBRANCH  18  19
ENDBRANCH   6  18
TORSDOF 4
ENDMDL
MODEL 4
REMARK VINA RESULT:      -7.1      1.990      2.507
REMARK  Name = 
REMARK  5 active torsions:
REMARK  status: ('A' for Active; 'I' for Inactive)
REMARK    1  A    between atoms: C_1  and  O_2
REMARK    2  A    between atoms: O_2  and  C_3
REMARK    3  A    between atoms: C_10  and  C_11
REMARK    4  A    between atoms: C_16  and  C_17
REMARK    5  A    between atoms: C_17  and  N_18
REMARK                            x       y       z     vdW  Elec       q    Type
REMARK                         _______ _______ _______ _____ _____    ______ ____
ROOT
ATOM      1  C   UNL     1       5.244   4.476  18.936  0.00  0.00    +0.000 C 
ATOM      2  O   UNL     1       6.094   4.588  19.825  0.00  0.00    +0.000 OA
ATOM      3  N   UNL     1       5.614   4.599  17.601  0.00  0.00    +0.000 N 
ATOM      4  C   UNL     1       7.004   4.804  17.223  0.00  0.00    +0.000 C 
ATOM      5  C   UNL     1       6.909   5.530  15.889  0.00  0.00    +0.000 C 
ATOM      6  C   UNL     1       5.662   4.934  15.227  0.00  0.00    +0.000 C 
ATOM      7  C   UNL     1       4.802   4.476  16.411  0.00  0.00    +0.000 C 
ENDROOT
BRANCH   1  15
ATOM      8  C   UNL     1       2.883   5.255  19.671  0.00  0.00    +0.000 A 
ATOM      9  C   UNL     1       1.546   4.912  19.952  0.00  0.00    +0.000 A 
ATOM     10  C   UNL     1       1.136   3.582  19.947  0.00  0.00    +0.000 A 
ATOM     11  C   UNL     1       2.065   2.597  19.666  0.00  0.00    +0.000 A 
ATOM     12  F   UNL     1       1.662   1.315  19.647  0.00  0.00    +0.000 F 
ATOM     13  C   UNL     1       3.392   2.916  19.396  0.00  0.00    +0.000 A 
ATOM     14  F   UNL     1       4.244   1.903  19.160  0.00  0.00    +0.000 F 
ATOM     15  C   UNL     1       3.827   4.253  19.378  0.00  0.00    +0.000 A 
BRANCH   8  17
ATOM     16  C   UNL     1       2.721   7.240  18.391  0.00  0.00    +0.000 C 
ATOM     17  O   UNL     1       3.212   6.582  19.568  0.00  0.00    +0.000 OA
ENDBRANCH   8  17
ENDBRANCH   1  15
BRANCH   6  18
ATOM     18  C   UNL     1       5.961   3.742  14.300  0.00  0.00    +0.000 C 
BRANCH  18  19
ATOM     19  N   UNL     1       6.698   4.154  13.112  0.00  0.00    +0.000 NA
ATOM     20  H   UNL     1       6.103   4.730  12.518  0.00  0.00    +0.000 HD
ATOM     21  H   UNL     1       6.938   3.331  12.562  0.00  0.00    +0.000 HD
ENDBRANCH  18  19
ENDBRANCH   6  18
TORSDOF 4
ENDMDL
MODEL 5
REMARK VINA RESULT:      -7.0      2.338      2.755
REMARK  Name = 
REMARK  5 active torsions:
REMARK  status: ('A' for Active; 'I' for Inactive)
REMARK    1  A    between atoms: C_1  and  O_2
REMARK    2  A    between atoms: O_2  and  C_3
REMARK    3  A    between atoms: C_10  and  C_11
REMARK    4  A    between atoms: C_16  and  C_17
REMARK    5  A    between atoms: C_17  and  N_18
REMARK                            x       y       z     vdW  Elec       q    Type
REMARK                         _______ _______ _______ _____ _____    ______ ____
ROOT
ATOM      1  C   UNL     1       3.093   5.855  17.784  0.00  0.00    +0.000 C 
ATOM      2  O   UNL     1       2.553   6.935  17.530  0.00  0.00    +0.000 OA
ATOM      3  N   UNL     1       4.286   5.510  17.156  0.00  0.00    +0.000 N 
ATOM      4  C   UNL     1       4.944   6.427  16.239  0.00  0.00    +0.000 C 
ATOM      5  C   UNL     1       5.732   5.508  15.316  0.00  0.00    +0.000 C 
ATOM      6  C   UNL     1       6.170   4.353  16.225  0.00  0.00    +0.000 C 
ATOM      7  C   UNL     1       5.100   4.326  17.324  0.00  0.00    +0.000 C 
ENDROOT
BRANCH   1  15
ATOM      8  C   UNL     1       2.128   5.221  20.105  0.00  0.00    +0.000 A 
ATOM      9  C   UNL     1       1.334   4.342  20.869  0.00  0.00    +0.000 A 
ATOM     10  C   UNL     1       0.790   3.196  20.297  0.00  0.00    +0.000 A 
ATOM     11  C   UNL     1       1.045   2.926  18.965  0.00  0.00    +0.000 A 
ATOM     12  F   UNL     1       0.505   1.827  18.414  0.00  0.00    +0.000 F 
ATOM     13  C   UNL     1       1.833   3.777  18.198  0.00  0.00    +0.000 A 
ATOM     14  F   UNL     1       2.061   3.435  16.918  0.00  0.00    +0.000 F 
ATOM     15  C   UNL     1       2.381   4.950  18.747  0.00  0.00    +0.000 A 
BRANCH   8  17
ATOM     16  C   UNL     1       1.516   7.391  20.827  0.00  0.00    +0.000 C 
ATOM     17  O   UNL     1       2.541   6.397  20.675  0.00  0.00    +0.000 OA
ENDBRANCH   8  17
ENDBRANCH   1  15
BRANCH   6  18
ATOM     18  C   UNL     1       7.562   4.548  16.849  0.00  0.00    +0.000 C 
BRANCH  18  19
ATOM     19  N   UNL     1       7.537   4.359  18.294  0.00  0.00    +0.000 NA
ATOM     20  H   UNL     1       8.221   3.652  18.562  0.00  0.00    +0.000 HD
ATOM     21  H   UNL     1       6.627   3.994  18.571  0.00  0.00    +0.000 HD
ENDBRANCH  18  19
ENDBRANCH   6  18
TORSDOF 4
ENDMDL
MODEL 6
REMARK VINA RESULT:      -7.0      1.773      2.677
REMARK  Name = 
REMARK  5 active torsions:
REMARK  status: ('A' for Active; 'I' for Inactive)
REMARK    1  A    between atoms: C_1  and  O_2
REMARK    2  A    between atoms: O_2  and  C_3
REMARK    3  A    between atoms: C_10  and  C_11
REMARK    4  A    between atoms: C_16  and  C_17
REMARK    5  A    between atoms: C_17  and  N_18
REMARK                            x       y       z     vdW  Elec       q    Type
REMARK                         _______ _______ _______ _____ _____    ______ ____
ROOT
ATOM      1  C   UNL     1       4.063   3.983  17.790  0.00  0.00    +0.000 C 
ATOM      2  O   UNL     1       3.544   3.599  16.737  0.00  0.00    +0.000 OA
ATOM      3  N   UNL     1       5.336   4.545  17.773  0.00  0.00    +0.000 N 
ATOM      4  C   UNL     1       6.053   4.741  16.523  0.00  0.00    +0.000 C 
ATOM      5  C   UNL     1       7.516   4.706  16.940  0.00  0.00    +0.000 C 
ATOM      6  C   UNL     1       7.524   5.353  18.329  0.00  0.00    +0.000 C 
ATOM      7  C   UNL     1       6.113   5.084  18.867  0.00  0.00    +0.000 C 
ENDROOT
BRANCH   1  15
ATOM      8  C   UNL     1       3.446   2.713  19.964  0.00  0.00    +0.000 A 
ATOM      9  C   UNL     1       2.729   2.699  21.177  0.00  0.00    +0.000 A 
ATOM     10  C   UNL     1       1.842   3.724  21.490  0.00  0.00    +0.000 A 
ATOM     11  C   UNL     1       1.669   4.759  20.589  0.00  0.00    +0.000 A 
ATOM     12  F   UNL     1       0.823   5.754  20.903  0.00  0.00    +0.000 F 
ATOM     13  C   UNL     1       2.361   4.785  19.384  0.00  0.00    +0.000 A 
ATOM     14  F   UNL     1       2.121   5.808  18.545  0.00  0.00    +0.000 F 
ATOM     15  C   UNL     1       3.276   3.770  19.050  0.00  0.00    +0.000 A 
BRANCH   8  17
ATOM     16  C   UNL     1       5.133   1.354  20.920  0.00  0.00    +0.000 C 
ATOM     17  O   UNL     1       4.397   1.748  19.753  0.00  0.00    +0.000 OA
ENDBRANCH   8  17
ENDBRANCH   1  15
BRANCH   6  18
ATOM     18  C   UNL     1       7.800   6.866  18.307  0.00  0.00    +0.000 C 
BRANCH  18  19
ATOM     19  N   UNL     1       7.632   7.426  16.973  0.00  0.00    +0.000 NA
ATOM     20  H   UNL     1       7.931   6.749  16.273  0.00  0.00    +0.000 HD
ATOM     21  H   UNL     1       8.243   8.235  16.866  0.00  0.00    +0.000 HD
ENDBRANCH  18  19
ENDBRANCH   6  18
TORSDOF 4
ENDMDL
MODEL 7
REMARK VINA RESULT:      -6.9      2.699      5.542
REMARK  Name = 
REMARK  5 active torsions:
REMARK  status: ('A' for Active; 'I' for Inactive)
REMARK    1  A    between atoms: C_1  and  O_2
REMARK    2  A    between atoms: O_2  and  C_3
REMARK    3  A    between atoms: C_10  and  C_11
REMARK    4  A    between atoms: C_16  and  C_17
REMARK    5  A    between atoms: C_17  and  N_18
REMARK                            x       y       z     vdW  Elec       q    Type
REMARK                         _______ _______ _______ _____ _____    ______ ____
ROOT
ATOM      1  C   UNL     1       4.529   3.589  19.211  0.00  0.00    +0.000 C 
ATOM      2  O   UNL     1       4.959   2.535  19.688  0.00  0.00    +0.000 OA
ATOM      3  N   UNL     1       3.357   4.150  19.710  0.00  0.00    +0.000 N 
ATOM      4  C   UNL     1       2.652   3.545  20.829  0.00  0.00    +0.000 C 
ATOM      5  C   UNL     1       1.210   3.987  20.626  0.00  0.00    +0.000 C 
ATOM      6  C   UNL     1       1.332   5.394  20.029  0.00  0.00    +0.000 C 
ATOM      7  C   UNL     1       2.696   5.378  19.328  0.00  0.00    +0.000 C 
ENDROOT
BRANCH   1  15
ATOM      8  C   UNL     1       6.542   4.835  18.156  0.00  0.00    +0.000 A 
ATOM      9  C   UNL     1       7.223   5.231  16.988  0.00  0.00    +0.000 A 
ATOM     10  C   UNL     1       6.681   4.984  15.730  0.00  0.00    +0.000 A 
ATOM     11  C   UNL     1       5.456   4.346  15.642  0.00  0.00    +0.000 A 
ATOM     12  F   UNL     1       4.944   4.096  14.426  0.00  0.00    +0.000 F 
ATOM     13  C   UNL     1       4.766   3.957  16.785  0.00  0.00    +0.000 A 
ATOM     14  F   UNL     1       3.568   3.368  16.622  0.00  0.00    +0.000 F 
ATOM     15  C   UNL     1       5.300   4.179  18.067  0.00  0.00    +0.000 A 
BRANCH   8  17
ATOM     16  C   UNL     1       8.181   6.007  19.400  0.00  0.00    +0.000 C 
ATOM     17  O   UNL     1       7.169   4.989  19.366  0.00  0.00    +0.000 OA
ENDBRANCH   8  17
ENDBRANCH   1  15
BRANCH   6  18
ATOM     18  C   UNL     1       1.292   6.519  21.079  0.00  0.00    +0.000 C 
BRANCH  18  19
ATOM     19  N   UNL     1       1.987   7.713  20.617  0.00  0.00    +0.000 NA
ATOM     20  H   UNL     1       1.864   8.468  21.291  0.00  0.00    +0.000 HD
ATOM     21  H   UNL     1       1.564   8.035  19.748  0.00  0.00    +0.000 HD
ENDBRANCH  18  19
ENDBRANCH   6  18
TORSDOF 4
ENDMDL
MODEL 8
REMARK VINA RESULT:      -6.7      2.289      3.215
REMARK  Name = 
REMARK  5 active torsions:
REMARK  status: ('A' for Active; 'I' for Inactive)
REMARK    1  A    between atoms: C_1  and  O_2
REMARK    2  A    between atoms: O_2  and  C_3
REMARK    3  A    between atoms: C_10  and  C_11
REMARK    4  A    between atoms: C_16  and  C_17
REMARK    5  A    between atoms: C_17  and  N_18
REMARK                            x       y       z     vdW  Elec       q    Type
REMARK                         _______ _______ _______ _____ _____    ______ ____
ROOT
ATOM      1  C   UNL     1       4.933   4.078  18.789  0.00  0.00    +0.000 C 
ATOM      2  O   UNL     1       5.663   3.863  19.762  0.00  0.00    +0.000 OA
ATOM      3  N   UNL     1       5.480   4.557  17.603  0.00  0.00    +0.000 N 
ATOM      4  C   UNL     1       6.914   4.761  17.466  0.00  0.00    +0.000 C 
ATOM      5  C   UNL     1       7.022   5.850  16.408  0.00  0.00    +0.000 C 
ATOM      6  C   UNL     1       5.852   5.564  15.459  0.00  0.00    +0.000 C 
ATOM      7  C   UNL     1       4.828   4.845  16.345  0.00  0.00    +0.000 C 
ENDROOT
BRANCH   1  15
ATOM      8  C   UNL     1       2.748   2.703  18.555  0.00  0.00    +0.000 A 
ATOM      9  C   UNL     1       1.394   2.544  18.909  0.00  0.00    +0.000 A 
ATOM     10  C   UNL     1       0.742   3.502  19.678  0.00  0.00    +0.000 A 
ATOM     11  C   UNL     1       1.443   4.622  20.088  0.00  0.00    +0.000 A 
ATOM     12  F   UNL     1       0.814   5.537  20.844  0.00  0.00    +0.000 F 
ATOM     13  C   UNL     1       2.778   4.801  19.741  0.00  0.00    +0.000 A 
ATOM     14  F   UNL     1       3.385   5.927  20.152  0.00  0.00    +0.000 F 
ATOM     15  C   UNL     1       3.464   3.839  18.978  0.00  0.00    +0.000 A 
BRANCH   8  17
ATOM     16  C   UNL     1       4.089   0.762  18.748  0.00  0.00    +0.000 C 
ATOM     17  O   UNL     1       3.381   1.678  17.900  0.00  0.00    +0.000 OA
ENDBRANCH   8  17
ENDBRANCH   1  15
BRANCH   6  18
ATOM     18  C   UNL     1       6.229   4.676  14.261  0.00  0.00    +0.000 C 
BRANCH  18  19
ATOM     19  N   UNL     1       7.430   5.156  13.589  0.00  0.00    +0.000 NA
ATOM     20  H   UNL     1       7.491   4.750  12.657  0.00  0.00    +0.000 HD
ATOM     21  H   UNL     1       8.252   4.831  14.096  0.00  0.00    +0.000 HD
ENDBRANCH  18  19
ENDBRANCH   6  18
TORSDOF 4
ENDMDL
MODEL 9
REMARK VINA RESULT:      -6.5      2.755      5.276
REMARK  Name = 
REMARK  5 active torsions:
REMARK  status: ('A' for Active; 'I' for Inactive)
REMARK    1  A    between atoms: C_1  and  O_2
REMARK    2  A    between atoms: O_2  and  C_3
REMARK    3  A    between atoms: C_10  and  C_11
REMARK    4  A    between atoms: C_16  and  C_17
REMARK    5  A    between atoms: C_17  and  N_18
REMARK                            x       y       z     vdW  Elec       q    Type
REMARK                         _______ _______ _______ _____ _____    ______ ____
ROOT
ATOM      1  C   UNL     1       2.820   3.887  17.406  0.00  0.00    +0.000 C 
ATOM      2  O   UNL     1       2.337   3.357  16.400  0.00  0.00    +0.000 OA
ATOM      3  N   UNL     1       2.274   3.626  18.659  0.00  0.00    +0.000 N 
ATOM      4  C   UNL     1       1.171   2.692  18.817  0.00  0.00    +0.000 C 
ATOM      5  C   UNL     1       0.468   3.177  20.077  0.00  0.00    +0.000 C 
ATOM      6  C   UNL     1       1.607   3.700  20.961  0.00  0.00    +0.000 C 
ATOM      7  C   UNL     1       2.693   4.106  19.958  0.00  0.00    +0.000 C 
ENDROOT
BRANCH   1  15
ATOM      8  C   UNL     1       3.947   6.222  17.420  0.00  0.00    +0.000 A 
ATOM      9  C   UNL     1       5.130   6.977  17.299  0.00  0.00    +0.000 A 
ATOM     10  C   UNL     1       6.331   6.368  16.951  0.00  0.00    +0.000 A 
ATOM     11  C   UNL     1       6.348   5.005  16.718  0.00  0.00    +0.000 A 
ATOM     12  F   UNL     1       7.513   4.418  16.397  0.00  0.00    +0.000 F 
ATOM     13  C   UNL     1       5.188   4.244  16.823  0.00  0.00    +0.000 A 
ATOM     14  F   UNL     1       5.276   2.930  16.554  0.00  0.00    +0.000 F 
ATOM     15  C   UNL     1       3.965   4.833  17.190  0.00  0.00    +0.000 A 
BRANCH   8  17
ATOM     16  C   UNL     1       2.835   8.275  17.807  0.00  0.00    +0.000 C 
ATOM     17  O   UNL     1       2.815   6.842  17.883  0.00  0.00    +0.000 OA
ENDBRANCH   8  17
ENDBRANCH   1  15
BRANCH   6  18
ATOM     18  C   UNL     1       2.160   2.654  21.944  0.00  0.00    +0.000 C 
BRANCH  18  19
ATOM     19  N   UNL     1       3.491   2.201  21.557  0.00  0.00    +0.000 NA
ATOM     20  H   UNL     1       4.194   2.839  21.927  0.00  0.00    +0.000 HD
ATOM     21  H   UNL     1       3.578   2.238  20.542  0.00  0.00    +0.000 HD
ENDBRANCH  18  19
ENDBRANCH   6  18
TORSDOF 4
ENDMDL
