MODEL 1
REMARK VINA RESULT:      -7.6      0.000      0.000
REMARK  Name = 
REMARK  3 active torsions:
REMARK  status: ('A' for Active; 'I' for Inactive)
REMARK    1  A    between atoms: C_1  and  C_2
REMARK    2  A    between atoms: C_5  and  C_6
REMARK    3  A    between atoms: C_12  and  N_13
REMARK                            x       y       z     vdW  Elec       q    Type
REMARK                         _______ _______ _______ _____ _____    ______ ____
ROOT
ATOM      1  C   UNL     1       2.350   5.109  20.335  0.00  0.00    +0.000 A 
ATOM      2  C   UNL     1       1.888   4.640  21.579  0.00  0.00    +0.000 A 
ATOM      3  N   UNL     1       2.083   3.404  22.080  0.00  0.00    +0.000 NA
ATOM      4  C   UNL     1       2.791   2.573  21.301  0.00  0.00    +0.000 A 
ATOM      5  C   UNL     1       3.346   2.914  20.066  0.00  0.00    +0.000 A 
ATOM      6 CL   UNL     1       4.331   1.662  19.376  0.00  0.00    +0.000 Cl
ATOM      7  C   UNL     1       3.159   4.226  19.531  0.00  0.00    +0.000 A 
ENDROOT
BRANCH   7   8
ATOM      8  N   UNL     1       3.771   4.648  18.338  0.00  0.00    +0.000 N 
ATOM      9  C   UNL     1       3.694   3.924  17.063  0.00  0.00    +0.000 C 
ATOM     10  C   UNL     1       5.109   3.665  16.525  0.00  0.00    +0.000 C 
ATOM     11  C   UNL     1       5.958   4.960  16.473  0.00  0.00    +0.000 C 
ATOM     12  C   UNL     1       5.500   5.899  15.330  0.00  0.00    +0.000 C 
ATOM     13  C   UNL     1       6.368   5.479  14.152  0.00  0.00    +0.000 C 
ATOM     14  N   UNL     1       7.556   5.001  14.771  0.00  0.00    +0.000 N 
ATOM     15  C   UNL     1       7.385   4.648  16.084  0.00  0.00    +0.000 C 
ATOM     16  O   UNL     1       8.252   4.146  16.794  0.00  0.00    +0.000 OA
ATOM     17  C   UNL     1       5.958   5.637  17.831  0.00  0.00    +0.000 C 
ATOM     18  C   UNL     1       4.549   5.892  18.289  0.00  0.00    +0.000 C 
ATOM     19  H   UNL     1       8.434   4.810  14.298  0.00  0.00    +0.000 HD
ENDBRANCH   7   8
BRANCH   1  24
ATOM     20  C   UNL     1       0.866  10.251  20.358  0.00  0.00    +0.000 C 
ATOM     21  C   UNL     1       1.332   8.897  19.953  0.00  0.00    +0.000 A 
ATOM     22  C   UNL     1       1.826   8.499  18.733  0.00  0.00    +0.000 A 
ATOM     23  C   UNL     1       2.031   7.090  18.680  0.00  0.00    +0.000 A 
ATOM     24  C   UNL     1       1.933   6.480  19.921  0.00  0.00    +0.000 A 
ATOM     25  S   UNL     1       1.293   7.602  21.066  0.00  0.00    +0.000 S 
ENDBRANCH   1  24
TORSDOF 2
ENDMDL
MODEL 2
REMARK VINA RESULT:      -7.6      7.625      9.875
REMARK  Name = 
REMARK  3 active torsions:
REMARK  status: ('A' for Active; 'I' for Inactive)
REMARK    1  A    between atoms: C_1  and  C_2
REMARK    2  A    between atoms: C_5  and  C_6
REMARK    3  A    between atoms: C_12  and  N_13
REMARK                            x       y       z     vdW  Elec       q    Type
REMARK                         _______ _______ _______ _____ _____    ______ ____
ROOT
ATOM      1  C   UNL     1      -4.576  11.829  19.376  0.00  0.00    +0.000 A 
ATOM      2  C   UNL     1      -5.964  11.902  19.606  0.00  0.00    +0.000 A 
ATOM      3  N   UNL     1      -6.560  12.485  20.665  0.00  0.00    +0.000 NA
ATOM      4  C   UNL     1      -5.729  13.045  21.557  0.00  0.00    +0.000 A 
ATOM      5  C   UNL     1      -4.339  13.087  21.436  0.00  0.00    +0.000 A 
ATOM      6 CL   UNL     1      -3.561  14.013  22.681  0.00  0.00    +0.000 Cl
ATOM      7  C   UNL     1      -3.695  12.484  20.312  0.00  0.00    +0.000 A 
ENDROOT
BRANCH   7   8
ATOM      8  N   UNL     1      -2.310  12.576  20.097  0.00  0.00    +0.000 N 
ATOM      9  C   UNL     1      -1.683  13.378  19.039  0.00  0.00    +0.000 C 
ATOM     10  C   UNL     1      -0.744  12.495  18.203  0.00  0.00    +0.000 C 
ATOM     11  C   UNL     1       0.257  11.711  19.086  0.00  0.00    +0.000 C 
ATOM     12  C   UNL     1       1.354  12.636  19.668  0.00  0.00    +0.000 C 
ATOM     13  C   UNL     1       2.466  12.568  18.632  0.00  0.00    +0.000 C 
ATOM     14  N   UNL     1       2.311  11.274  18.065  0.00  0.00    +0.000 N 
ATOM     15  C   UNL     1       1.061  10.742  18.250  0.00  0.00    +0.000 C 
ATOM     16  O   UNL     1       0.680   9.670  17.787  0.00  0.00    +0.000 OA
ATOM     17  C   UNL     1      -0.489  10.932  20.154  0.00  0.00    +0.000 C 
ATOM     18  C   UNL     1      -1.364  11.853  20.958  0.00  0.00    +0.000 C 
ATOM     19  H   UNL     1       2.986  10.803  17.471  0.00  0.00    +0.000 HD
ENDBRANCH   7   8
BRANCH   1  24
ATOM     20  C   UNL     1      -3.318  10.285  14.409  0.00  0.00    +0.000 C 
ATOM     21  C   UNL     1      -3.455  10.378  15.888  0.00  0.00    +0.000 A 
ATOM     22  C   UNL     1      -2.836   9.614  16.849  0.00  0.00    +0.000 A 
ATOM     23  C   UNL     1      -3.328   9.903  18.153  0.00  0.00    +0.000 A 
ATOM     24  C   UNL     1      -4.118  11.042  18.196  0.00  0.00    +0.000 A 
ATOM     25  S   UNL     1      -4.482  11.551  16.587  0.00  0.00    +0.000 S 
ENDBRANCH   1  24
TORSDOF 2
ENDMDL
MODEL 3
REMARK VINA RESULT:      -7.4      7.675     10.013
REMARK  Name = 
REMARK  3 active torsions:
REMARK  status: ('A' for Active; 'I' for Inactive)
REMARK    1  A    between atoms: C_1  and  C_2
REMARK    2  A    between atoms: C_5  and  C_6
REMARK    3  A    between atoms: C_12  and  N_13
REMARK                            x       y       z     vdW  Elec       q    Type
REMARK                         _______ _______ _______ _____ _____    ______ ____
ROOT
ATOM      1  C   UNL     1      -1.513  12.557  22.138  0.00  0.00    +0.000 A 
ATOM      2  C   UNL     1      -2.596  12.133  22.931  0.00  0.00    +0.000 A 
ATOM      3  N   UNL     1      -3.278  12.893  23.811  0.00  0.00    +0.000 NA
ATOM      4  C   UNL     1      -2.867  14.167  23.909  0.00  0.00    +0.000 A 
ATOM      5  C   UNL     1      -1.837  14.734  23.155  0.00  0.00    +0.000 A 
ATOM      6 CL   UNL     1      -1.648  16.441  23.412  0.00  0.00    +0.000 Cl
ATOM      7  C   UNL     1      -1.117  13.942  22.210  0.00  0.00    +0.000 A 
ENDROOT
BRANCH   7   8
ATOM      8  N   UNL     1      -0.135  14.486  21.364  0.00  0.00    +0.000 N 
ATOM      9  C   UNL     1      -0.414  15.150  20.085  0.00  0.00    +0.000 C 
ATOM     10  C   UNL     1       0.410  14.494  18.966  0.00  0.00    +0.000 C 
ATOM     11  C   UNL     1       1.913  14.408  19.325  0.00  0.00    +0.000 C 
ATOM     12  C   UNL     1       2.598  15.796  19.261  0.00  0.00    +0.000 C 
ATOM     13  C   UNL     1       3.111  15.876  17.831  0.00  0.00    +0.000 C 
ATOM     14  N   UNL     1       3.353  14.517  17.490  0.00  0.00    +0.000 N 
ATOM     15  C   UNL     1       2.669  13.626  18.276  0.00  0.00    +0.000 C 
ATOM     16  O   UNL     1       2.670  12.408  18.119  0.00  0.00    +0.000 OA
ATOM     17  C   UNL     1       2.091  13.723  20.667  0.00  0.00    +0.000 C 
ATOM     18  C   UNL     1       1.288  14.427  21.725  0.00  0.00    +0.000 C 
ATOM     19  H   UNL     1       3.874  14.193  16.681  0.00  0.00    +0.000 HD
ENDBRANCH   7   8
BRANCH   1  24
ATOM     20  C   UNL     1       0.347   9.683  18.024  0.00  0.00    +0.000 C 
ATOM     21  C   UNL     1       0.102  10.257  19.375  0.00  0.00    +0.000 A 
ATOM     22  C   UNL     1       0.806  10.032  20.534  0.00  0.00    +0.000 A 
ATOM     23  C   UNL     1       0.184  10.645  21.659  0.00  0.00    +0.000 A 
ATOM     24  C   UNL     1      -0.827  11.526  21.307  0.00  0.00    +0.000 A 
ATOM     25  S   UNL     1      -1.189  11.347  19.628  0.00  0.00    +0.000 S 
ENDBRANCH   1  24
TORSDOF 2
ENDMDL
MODEL 4
REMARK VINA RESULT:      -7.4      1.474      1.963
REMARK  Name = 
REMARK  3 active torsions:
REMARK  status: ('A' for Active; 'I' for Inactive)
REMARK    1  A    between atoms: C_1  and  C_2
REMARK    2  A    between atoms: C_5  and  C_6
REMARK    3  A    between atoms: C_12  and  N_13
REMARK                            x       y       z     vdW  Elec       q    Type
REMARK                         _______ _______ _______ _____ _____    ______ ____
ROOT
ATOM      1  C   UNL     1       2.638   4.543  20.080  0.00  0.00    +0.000 A 
ATOM      2  C   UNL     1       1.840   4.357  21.225  0.00  0.00    +0.000 A 
ATOM      3  N   UNL     1       1.880   3.292  22.051  0.00  0.00    +0.000 NA
ATOM      4  C   UNL     1       2.776   2.348  21.729  0.00  0.00    +0.000 A 
ATOM      5  C   UNL     1       3.659   2.419  20.650  0.00  0.00    +0.000 A 
ATOM      6 CL   UNL     1       4.793   1.106  20.591  0.00  0.00    +0.000 Cl
ATOM      7  C   UNL     1       3.637   3.549  19.775  0.00  0.00    +0.000 A 
ENDROOT
BRANCH   7   8
ATOM      8  N   UNL     1       4.563   3.712  18.731  0.00  0.00    +0.000 N 
ATOM      9  C   UNL     1       5.841   4.424  18.855  0.00  0.00    +0.000 C 
ATOM     10  C   UNL     1       5.940   5.511  17.775  0.00  0.00    +0.000 C 
ATOM     11  C   UNL     1       5.658   4.951  16.359  0.00  0.00    +0.000 C 
ATOM     12  C   UNL     1       6.829   4.079  15.844  0.00  0.00    +0.000 C 
ATOM     13  C   UNL     1       7.712   5.069  15.098  0.00  0.00    +0.000 C 
ATOM     14  N   UNL     1       6.791   6.051  14.640  0.00  0.00    +0.000 N 
ATOM     15  C   UNL     1       5.614   6.068  15.341  0.00  0.00    +0.000 C 
ATOM     16  O   UNL     1       4.705   6.875  15.168  0.00  0.00    +0.000 OA
ATOM     17  C   UNL     1       4.327   4.222  16.342  0.00  0.00    +0.000 C 
ATOM     18  C   UNL     1       4.302   3.152  17.398  0.00  0.00    +0.000 C 
ATOM     19  H   UNL     1       6.987   6.769  13.949  0.00  0.00    +0.000 HD
ENDBRANCH   7   8
BRANCH   1  24
ATOM     20  C   UNL     1       2.061   9.573  18.342  0.00  0.00    +0.000 C 
ATOM     21  C   UNL     1       2.186   8.092  18.426  0.00  0.00    +0.000 A 
ATOM     22  C   UNL     1       2.295   7.189  17.394  0.00  0.00    +0.000 A 
ATOM     23  C   UNL     1       2.249   5.845  17.861  0.00  0.00    +0.000 A 
ATOM     24  C   UNL     1       2.360   5.744  19.240  0.00  0.00    +0.000 A 
ATOM     25  S   UNL     1       2.212   7.313  19.946  0.00  0.00    +0.000 S 
ENDBRANCH   1  24
TORSDOF 2
ENDMDL
MODEL 5
REMARK VINA RESULT:      -7.3      9.656     12.278
REMARK  Name = 
REMARK  3 active torsions:
REMARK  status: ('A' for Active; 'I' for Inactive)
REMARK    1  A    between atoms: C_1  and  C_2
REMARK    2  A    between atoms: C_5  and  C_6
REMARK    3  A    between atoms: C_12  and  N_13
REMARK                            x       y       z     vdW  Elec       q    Type
REMARK                         _______ _______ _______ _____ _____    ______ ____
ROOT
ATOM      1  C   UNL     1      -3.065  12.019  19.082  0.00  0.00    +0.000 A 
ATOM      2  C   UNL     1      -3.163  11.374  17.834  0.00  0.00    +0.000 A 
ATOM      3  N   UNL     1      -4.307  11.086  17.181  0.00  0.00    +0.000 NA
ATOM      4  C   UNL     1      -5.434  11.469  17.800  0.00  0.00    +0.000 A 
ATOM      5  C   UNL     1      -5.485  12.153  19.016  0.00  0.00    +0.000 A 
ATOM      6 CL   UNL     1      -7.088  12.635  19.475  0.00  0.00    +0.000 Cl
ATOM      7  C   UNL     1      -4.279  12.476  19.710  0.00  0.00    +0.000 A 
ENDROOT
BRANCH   7   8
ATOM      8  N   UNL     1      -4.271  13.241  20.890  0.00  0.00    +0.000 N 
ATOM      9  C   UNL     1      -4.084  14.696  20.937  0.00  0.00    +0.000 C 
ATOM     10  C   UNL     1      -2.930  15.044  21.888  0.00  0.00    +0.000 C 
ATOM     11  C   UNL     1      -3.100  14.379  23.276  0.00  0.00    +0.000 C 
ATOM     12  C   UNL     1      -4.223  15.054  24.101  0.00  0.00    +0.000 C 
ATOM     13  C   UNL     1      -3.490  16.130  24.889  0.00  0.00    +0.000 C 
ATOM     14  N   UNL     1      -2.184  15.591  25.049  0.00  0.00    +0.000 N 
ATOM     15  C   UNL     1      -1.880  14.615  24.135  0.00  0.00    +0.000 C 
ATOM     16  O   UNL     1      -0.788  14.060  24.039  0.00  0.00    +0.000 OA
ATOM     17  C   UNL     1      -3.303  12.883  23.116  0.00  0.00    +0.000 C 
ATOM     18  C   UNL     1      -4.463  12.606  22.201  0.00  0.00    +0.000 C 
ATOM     19  H   UNL     1      -1.471  15.943  25.681  0.00  0.00    +0.000 HD
ENDBRANCH   7   8
BRANCH   1  24
ATOM     20  C   UNL     1       1.719  13.864  20.616  0.00  0.00    +0.000 C 
ATOM     21  C   UNL     1       0.477  13.057  20.461  0.00  0.00    +0.000 A 
ATOM     22  C   UNL     1       0.065  11.980  21.210  0.00  0.00    +0.000 A 
ATOM     23  C   UNL     1      -1.107  11.379  20.670  0.00  0.00    +0.000 A 
ATOM     24  C   UNL     1      -1.705  12.146  19.681  0.00  0.00    +0.000 A 
ATOM     25  S   UNL     1      -0.648  13.434  19.232  0.00  0.00    +0.000 S 
ENDBRANCH   1  24
TORSDOF 2
ENDMDL
MODEL 6
REMARK VINA RESULT:      -7.3      7.391     10.063
REMARK  Name = 
REMARK  3 active torsions:
REMARK  status: ('A' for Active; 'I' for Inactive)
REMARK    1  A    between atoms: C_1  and  C_2
REMARK    2  A    between atoms: C_5  and  C_6
REMARK    3  A    between atoms: C_12  and  N_13
REMARK                            x       y       z     vdW  Elec       q    Type
REMARK                         _______ _______ _______ _____ _____    ______ ____
ROOT
ATOM      1  C   UNL     1      -1.770  12.628  22.114  0.00  0.00    +0.000 A 
ATOM      2  C   UNL     1      -2.910  12.253  22.851  0.00  0.00    +0.000 A 
ATOM      3  N   UNL     1      -3.679  13.078  23.591  0.00  0.00    +0.000 NA
ATOM      4  C   UNL     1      -3.301  14.365  23.597  0.00  0.00    +0.000 A 
ATOM      5  C   UNL     1      -2.221  14.884  22.880  0.00  0.00    +0.000 A 
ATOM      6 CL   UNL     1      -2.086  16.612  22.982  0.00  0.00    +0.000 Cl
ATOM      7  C   UNL     1      -1.407  14.023  22.082  0.00  0.00    +0.000 A 
ENDROOT
BRANCH   7   8
ATOM      8  N   UNL     1      -0.366  14.508  21.272  0.00  0.00    +0.000 N 
ATOM      9  C   UNL     1      -0.557  15.138  19.960  0.00  0.00    +0.000 C 
ATOM     10  C   UNL     1       0.302  14.421  18.907  0.00  0.00    +0.000 C 
ATOM     11  C   UNL     1       1.781  14.301  19.347  0.00  0.00    +0.000 C 
ATOM     12  C   UNL     1       2.513  15.664  19.276  0.00  0.00    +0.000 C 
ATOM     13  C   UNL     1       3.102  15.681  17.873  0.00  0.00    +0.000 C 
ATOM     14  N   UNL     1       3.317  14.305  17.588  0.00  0.00    +0.000 N 
ATOM     15  C   UNL     1       2.565  13.462  18.364  0.00  0.00    +0.000 C 
ATOM     16  O   UNL     1       2.534  12.240  18.245  0.00  0.00    +0.000 OA
ATOM     17  C   UNL     1       1.867  13.655  20.718  0.00  0.00    +0.000 C 
ATOM     18  C   UNL     1       1.034  14.418  21.709  0.00  0.00    +0.000 C 
ATOM     19  H   UNL     1       3.868  13.939  16.818  0.00  0.00    +0.000 HD
ENDBRANCH   7   8
BRANCH   1  24
ATOM     20  C   UNL     1       1.025   8.167  21.147  0.00  0.00    +0.000 C 
ATOM     21  C   UNL     1       0.224   9.414  21.007  0.00  0.00    +0.000 A 
ATOM     22  C   UNL     1      -0.337   9.940  19.867  0.00  0.00    +0.000 A 
ATOM     23  C   UNL     1      -0.907  11.223  20.102  0.00  0.00    +0.000 A 
ATOM     24  C   UNL     1      -0.996  11.540  21.449  0.00  0.00    +0.000 A 
ATOM     25  S   UNL     1      -0.102  10.387  22.372  0.00  0.00    +0.000 S 
ENDBRANCH   1  24
TORSDOF 2
ENDMDL
MODEL 7
REMARK VINA RESULT:      -7.3     10.026     12.825
REMARK  Name = 
REMARK  3 active torsions:
REMARK  status: ('A' for Active; 'I' for Inactive)
REMARK    1  A    between atoms: C_1  and  C_2
REMARK    2  A    between atoms: C_5  and  C_6
REMARK    3  A    between atoms: C_12  and  N_13
REMARK                            x       y       z     vdW  Elec       q    Type
REMARK                         _______ _______ _______ _____ _____    ______ ____
ROOT
ATOM      1  C   UNL     1      -2.979  12.110  19.309  0.00  0.00    +0.000 A 
ATOM      2  C   UNL     1      -2.643  11.382  18.151  0.00  0.00    +0.000 A 
ATOM      3  N   UNL     1      -3.512  10.903  17.239  0.00  0.00    +0.000 NA
ATOM      4  C   UNL     1      -4.805  11.168  17.482  0.00  0.00    +0.000 A 
ATOM      5  C   UNL     1      -5.278  11.913  18.563  0.00  0.00    +0.000 A 
ATOM      6 CL   UNL     1      -6.989  12.202  18.512  0.00  0.00    +0.000 Cl
ATOM      7  C   UNL     1      -4.366  12.438  19.529  0.00  0.00    +0.000 A 
ENDROOT
BRANCH   7   8
ATOM      8  N   UNL     1      -4.781  13.269  20.584  0.00  0.00    +0.000 N 
ATOM      9  C   UNL     1      -4.680  14.733  20.580  0.00  0.00    +0.000 C 
ATOM     10  C   UNL     1      -3.923  15.207  21.830  0.00  0.00    +0.000 C 
ATOM     11  C   UNL     1      -4.519  14.614  23.130  0.00  0.00    +0.000 C 
ATOM     12  C   UNL     1      -5.878  15.264  23.487  0.00  0.00    +0.000 C 
ATOM     13  C   UNL     1      -5.493  16.427  24.389  0.00  0.00    +0.000 C 
ATOM     14  N   UNL     1      -4.294  15.981  25.009  0.00  0.00    +0.000 N 
ATOM     15  C   UNL     1      -3.664  14.976  24.323  0.00  0.00    +0.000 C 
ATOM     16  O   UNL     1      -2.581  14.486  24.634  0.00  0.00    +0.000 OA
ATOM     17  C   UNL     1      -4.596  13.102  23.026  0.00  0.00    +0.000 C 
ATOM     18  C   UNL     1      -5.373  12.700  21.803  0.00  0.00    +0.000 C 
ATOM     19  H   UNL     1      -3.847  16.413  25.812  0.00  0.00    +0.000 HD
ENDBRANCH   7   8
BRANCH   1  24
ATOM     20  C   UNL     1       0.967  14.652  21.881  0.00  0.00    +0.000 C 
ATOM     21  C   UNL     1      -0.101  13.692  21.486  0.00  0.00    +0.000 A 
ATOM     22  C   UNL     1      -0.620  12.652  22.219  0.00  0.00    +0.000 A 
ATOM     23  C   UNL     1      -1.526  11.865  21.452  0.00  0.00    +0.000 A 
ATOM     24  C   UNL     1      -1.872  12.456  20.246  0.00  0.00    +0.000 A 
ATOM     25  S   UNL     1      -0.844  13.812  19.953  0.00  0.00    +0.000 S 
ENDBRANCH   1  24
TORSDOF 2
ENDMDL
MODEL 8
REMARK VINA RESULT:      -7.2     10.208     11.680
REMARK  Name = 
REMARK  3 active torsions:
REMARK  status: ('A' for Active; 'I' for Inactive)
REMARK    1  A    between atoms: C_1  and  C_2
REMARK    2  A    between atoms: C_5  and  C_6
REMARK    3  A    between atoms: C_12  and  N_13
REMARK                            x       y       z     vdW  Elec       q    Type
REMARK                         _______ _______ _______ _____ _____    ______ ____
ROOT
ATOM      1  C   UNL     1       8.724  12.694  21.651  0.00  0.00    +0.000 A 
ATOM      2  C   UNL     1       8.177  11.659  22.434  0.00  0.00    +0.000 A 
ATOM      3  N   UNL     1       7.285  11.811  23.433  0.00  0.00    +0.000 NA
ATOM      4  C   UNL     1       6.898  13.073  23.672  0.00  0.00    +0.000 A 
ATOM      5  C   UNL     1       7.322  14.189  22.948  0.00  0.00    +0.000 A 
ATOM      6 CL   UNL     1       6.524  15.661  23.408  0.00  0.00    +0.000 Cl
ATOM      7  C   UNL     1       8.257  14.040  21.878  0.00  0.00    +0.000 A 
ENDROOT
BRANCH   7   8
ATOM      8  N   UNL     1       8.647  15.116  21.063  0.00  0.00    +0.000 N 
ATOM      9  C   UNL     1       7.851  15.648  19.950  0.00  0.00    +0.000 C 
ATOM     10  C   UNL     1       8.696  15.669  18.667  0.00  0.00    +0.000 C 
ATOM     11  C   UNL     1      10.054  16.383  18.877  0.00  0.00    +0.000 C 
ATOM     12  C   UNL     1       9.882  17.916  19.003  0.00  0.00    +0.000 C 
ATOM     13  C   UNL     1      10.029  18.411  17.572  0.00  0.00    +0.000 C 
ATOM     14  N   UNL     1      10.890  17.449  16.976  0.00  0.00    +0.000 N 
ATOM     15  C   UNL     1      10.921  16.254  17.646  0.00  0.00    +0.000 C 
ATOM     16  O   UNL     1      11.538  15.259  17.275  0.00  0.00    +0.000 OA
ATOM     17  C   UNL     1      10.788  15.771  20.056  0.00  0.00    +0.000 C 
ATOM     18  C   UNL     1       9.924  15.807  21.287  0.00  0.00    +0.000 C 
ATOM     19  H   UNL     1      11.360  17.549  16.081  0.00  0.00    +0.000 HD
ENDBRANCH   7   8
BRANCH   1  24
ATOM     20  C   UNL     1      11.439  11.797  17.127  0.00  0.00    +0.000 C 
ATOM     21  C   UNL     1      11.055  11.999  18.551  0.00  0.00    +0.000 A 
ATOM     22  C   UNL     1      11.880  12.109  19.646  0.00  0.00    +0.000 A 
ATOM     23  C   UNL     1      11.142  12.150  20.863  0.00  0.00    +0.000 A 
ATOM     24  C   UNL     1       9.779  12.323  20.666  0.00  0.00    +0.000 A 
ATOM     25  S   UNL     1       9.410  12.127  18.991  0.00  0.00    +0.000 S 
ENDBRANCH   1  24
TORSDOF 2
ENDMDL
MODEL 9
REMARK VINA RESULT:      -7.2      9.250     12.497
REMARK  Name = 
REMARK  3 active torsions:
REMARK  status: ('A' for Active; 'I' for Inactive)
REMARK    1  A    between atoms: C_1  and  C_2
REMARK    2  A    between atoms: C_5  and  C_6
REMARK    3  A    between atoms: C_12  and  N_13
REMARK                            x       y       z     vdW  Elec       q    Type
REMARK                         _______ _______ _______ _____ _____    ______ ____
ROOT
ATOM      1  C   UNL     1      -2.998  11.796  18.734  0.00  0.00    +0.000 A 
ATOM      2  C   UNL     1      -3.562  11.276  17.553  0.00  0.00    +0.000 A 
ATOM      3  N   UNL     1      -4.878  11.208  17.268  0.00  0.00    +0.000 NA
ATOM      4  C   UNL     1      -5.696  11.696  18.213  0.00  0.00    +0.000 A 
ATOM      5  C   UNL     1      -5.276  12.279  19.410  0.00  0.00    +0.000 A 
ATOM      6 CL   UNL     1      -6.573  12.946  20.351  0.00  0.00    +0.000 Cl
ATOM      7  C   UNL     1      -3.884  12.369  19.717  0.00  0.00    +0.000 A 
ENDROOT
BRANCH   7   8
ATOM      8  N   UNL     1      -3.405  13.026  20.864  0.00  0.00    +0.000 N 
ATOM      9  C   UNL     1      -3.192  12.380  22.164  0.00  0.00    +0.000 C 
ATOM     10  C   UNL     1      -3.948  13.148  23.259  0.00  0.00    +0.000 C 
ATOM     11  C   UNL     1      -3.621  14.661  23.239  0.00  0.00    +0.000 C 
ATOM     12  C   UNL     1      -2.195  14.947  23.771  0.00  0.00    +0.000 C 
ATOM     13  C   UNL     1      -2.410  15.180  25.259  0.00  0.00    +0.000 C 
ATOM     14  N   UNL     1      -3.730  15.702  25.325  0.00  0.00    +0.000 N 
ATOM     15  C   UNL     1      -4.490  15.409  24.223  0.00  0.00    +0.000 C 
ATOM     16  O   UNL     1      -5.677  15.696  24.093  0.00  0.00    +0.000 OA
ATOM     17  C   UNL     1      -3.858  15.227  21.850  0.00  0.00    +0.000 C 
ATOM     18  C   UNL     1      -3.070  14.456  20.829  0.00  0.00    +0.000 C 
ATOM     19  H   UNL     1      -4.151  16.149  26.135  0.00  0.00    +0.000 HD
ENDBRANCH   7   8
BRANCH   1  24
ATOM     20  C   UNL     1       2.232  12.876  19.089  0.00  0.00    +0.000 C 
ATOM     21  C   UNL     1       0.898  12.217  19.148  0.00  0.00    +0.000 A 
ATOM     22  C   UNL     1       0.570  11.013  19.726  0.00  0.00    +0.000 A 
ATOM     23  C   UNL     1      -0.778  10.646  19.454  0.00  0.00    +0.000 A 
ATOM     24  C   UNL     1      -1.520  11.678  18.897  0.00  0.00    +0.000 A 
ATOM     25  S   UNL     1      -0.466  12.967  18.444  0.00  0.00    +0.000 S 
ENDBRANCH   1  24
TORSDOF 2
ENDMDL
