MODEL 1
REMARK VINA RESULT:      -7.1      0.000      0.000
REMARK  Name = 
REMARK  4 active torsions:
REMARK  status: ('A' for Active; 'I' for Inactive)
REMARK    1  A    between atoms: C_1  and  C_2
REMARK    2  A    between atoms: C_5  and  C_6
REMARK    3  A    between atoms: C_6  and  N_7
REMARK    4  A    between atoms: C_12  and  N_13
REMARK                            x       y       z     vdW  Elec       q    Type
REMARK                         _______ _______ _______ _____ _____    ______ ____
ROOT
ATOM      1  N   UNL     1       5.855   6.048  17.471  0.00  0.00    +0.000 N 
ATOM      2  C   UNL     1       6.437   5.589  18.749  0.00  0.00    +0.000 C 
ATOM      3  C   UNL     1       7.697   4.796  18.331  0.00  0.00    +0.000 C 
ATOM      4  N   UNL     1       7.632   4.817  16.885  0.00  0.00    +0.000 N 
ATOM      5  C   UNL     1       6.520   5.454  16.392  0.00  0.00    +0.000 C 
ATOM      6  C   UNL     1       6.117   5.508  15.112  0.00  0.00    +0.000 C 
ATOM      7  H   UNL     1       8.143   4.163  16.296  0.00  0.00    +0.000 HD
ENDROOT
BRANCH   6   8
ATOM      8  N   UNL     1       6.803   4.821  14.045  0.00  0.00    +0.000 N 
ATOM      9  O   UNL     1       6.309   3.798  13.545  0.00  0.00    +0.000 OA
ATOM     10  O   UNL     1       7.870   5.331  13.683  0.00  0.00    +0.000 OA
ENDBRANCH   6   8
BRANCH   1  11
ATOM     11  C   UNL     1       4.510   6.611  17.463  0.00  0.00    +0.000 C 
BRANCH  11  16
ATOM     12  C   UNL     1       0.796   3.160  20.351  0.00  0.00    +0.000 C 
ATOM     13  C   UNL     1       1.688   4.077  19.569  0.00  0.00    +0.000 A 
ATOM     14  C   UNL     1       2.195   3.700  18.321  0.00  0.00    +0.000 A 
ATOM     15  C   UNL     1       3.079   4.533  17.631  0.00  0.00    +0.000 A 
ATOM     16  C   UNL     1       3.485   5.757  18.181  0.00  0.00    +0.000 A 
ATOM     17  C   UNL     1       2.936   6.156  19.409  0.00  0.00    +0.000 A 
ATOM     18  C   UNL     1       2.056   5.318  20.101  0.00  0.00    +0.000 A 
ENDBRANCH  11  16
ENDBRANCH   1  11
TORSDOF 3
ENDMDL
MODEL 2
REMARK VINA RESULT:      -7.1      2.768      3.910
REMARK  Name = 
REMARK  4 active torsions:
REMARK  status: ('A' for Active; 'I' for Inactive)
REMARK    1  A    between atoms: C_1  and  C_2
REMARK    2  A    between atoms: C_5  and  C_6
REMARK    3  A    between atoms: C_6  and  N_7
REMARK    4  A    between atoms: C_12  and  N_13
REMARK                            x       y       z     vdW  Elec       q    Type
REMARK                         _______ _______ _______ _____ _____    ______ ____
ROOT
ATOM      1  N   UNL     1       3.736   4.492  18.631  0.00  0.00    +0.000 N 
ATOM      2  C   UNL     1       3.052   3.330  19.236  0.00  0.00    +0.000 C 
ATOM      3  C   UNL     1       4.203   2.466  19.804  0.00  0.00    +0.000 C 
ATOM      4  N   UNL     1       5.389   3.180  19.378  0.00  0.00    +0.000 N 
ATOM      5  C   UNL     1       5.121   4.293  18.620  0.00  0.00    +0.000 C 
ATOM      6  C   UNL     1       6.007   5.065  17.971  0.00  0.00    +0.000 C 
ATOM      7  H   UNL     1       6.311   2.751  19.339  0.00  0.00    +0.000 HD
ENDROOT
BRANCH   6   8
ATOM      8  N   UNL     1       7.420   4.776  17.937  0.00  0.00    +0.000 N 
ATOM      9  O   UNL     1       8.096   4.847  18.976  0.00  0.00    +0.000 OA
ATOM     10  O   UNL     1       7.870   4.453  16.831  0.00  0.00    +0.000 OA
ENDBRANCH   6   8
BRANCH   1  11
ATOM     11  C   UNL     1       2.978   5.393  17.770  0.00  0.00    +0.000 C 
BRANCH  11  16
ATOM     12  C   UNL     1       0.782  10.119  20.397  0.00  0.00    +0.000 C 
ATOM     13  C   UNL     1       1.420   8.934  19.735  0.00  0.00    +0.000 A 
ATOM     14  C   UNL     1       1.747   8.956  18.375  0.00  0.00    +0.000 A 
ATOM     15  C   UNL     1       2.279   7.824  17.753  0.00  0.00    +0.000 A 
ATOM     16  C   UNL     1       2.482   6.639  18.475  0.00  0.00    +0.000 A 
ATOM     17  C   UNL     1       2.200   6.636  19.850  0.00  0.00    +0.000 A 
ATOM     18  C   UNL     1       1.663   7.768  20.470  0.00  0.00    +0.000 A 
ENDBRANCH  11  16
ENDBRANCH   1  11
TORSDOF 3
ENDMDL
MODEL 3
REMARK VINA RESULT:      -7.1      0.853      1.621
REMARK  Name = 
REMARK  4 active torsions:
REMARK  status: ('A' for Active; 'I' for Inactive)
REMARK    1  A    between atoms: C_1  and  C_2
REMARK    2  A    between atoms: C_5  and  C_6
REMARK    3  A    between atoms: C_6  and  N_7
REMARK    4  A    between atoms: C_12  and  N_13
REMARK                            x       y       z     vdW  Elec       q    Type
REMARK                         _______ _______ _______ _____ _____    ______ ____
ROOT
ATOM      1  N   UNL     1       5.487   5.699  17.559  0.00  0.00    +0.000 N 
ATOM      2  C   UNL     1       6.211   5.518  18.835  0.00  0.00    +0.000 C 
ATOM      3  C   UNL     1       7.668   5.224  18.407  0.00  0.00    +0.000 C 
ATOM      4  N   UNL     1       7.582   5.180  16.962  0.00  0.00    +0.000 N 
ATOM      5  C   UNL     1       6.309   5.357  16.479  0.00  0.00    +0.000 C 
ATOM      6  C   UNL     1       5.898   5.225  15.208  0.00  0.00    +0.000 C 
ATOM      7  H   UNL     1       8.289   4.739  16.377  0.00  0.00    +0.000 HD
ENDROOT
BRANCH   6   8
ATOM      8  N   UNL     1       6.773   4.804  14.141  0.00  0.00    +0.000 N 
ATOM      9  O   UNL     1       7.828   5.421  13.920  0.00  0.00    +0.000 OA
ATOM     10  O   UNL     1       6.399   3.809  13.508  0.00  0.00    +0.000 OA
ENDBRANCH   6   8
BRANCH   1  11
ATOM     11  C   UNL     1       4.030   5.737  17.568  0.00  0.00    +0.000 C 
BRANCH  11  16
ATOM     12  C   UNL     1       1.345   2.615  21.703  0.00  0.00    +0.000 C 
ATOM     13  C   UNL     1       2.101   3.416  20.686  0.00  0.00    +0.000 A 
ATOM     14  C   UNL     1       2.172   4.810  20.772  0.00  0.00    +0.000 A 
ATOM     15  C   UNL     1       2.822   5.552  19.783  0.00  0.00    +0.000 A 
ATOM     16  C   UNL     1       3.404   4.915  18.677  0.00  0.00    +0.000 A 
ATOM     17  C   UNL     1       3.375   3.514  18.619  0.00  0.00    +0.000 A 
ATOM     18  C   UNL     1       2.720   2.773  19.607  0.00  0.00    +0.000 A 
ENDBRANCH  11  16
ENDBRANCH   1  11
TORSDOF 3
ENDMDL
MODEL 4
REMARK VINA RESULT:      -7.0      2.439      3.132
REMARK  Name = 
REMARK  4 active torsions:
REMARK  status: ('A' for Active; 'I' for Inactive)
REMARK    1  A    between atoms: C_1  and  C_2
REMARK    2  A    between atoms: C_5  and  C_6
REMARK    3  A    between atoms: C_6  and  N_7
REMARK    4  A    between atoms: C_12  and  N_13
REMARK                            x       y       z     vdW  Elec       q    Type
REMARK                         _______ _______ _______ _____ _____    ______ ____
ROOT
ATOM      1  N   UNL     1       5.103   4.956  16.871  0.00  0.00    +0.000 N 
ATOM      2  C   UNL     1       5.382   4.611  15.461  0.00  0.00    +0.000 C 
ATOM      3  C   UNL     1       6.911   4.385  15.420  0.00  0.00    +0.000 C 
ATOM      4  N   UNL     1       7.327   4.714  16.768  0.00  0.00    +0.000 N 
ATOM      5  C   UNL     1       6.299   5.136  17.575  0.00  0.00    +0.000 C 
ATOM      6  C   UNL     1       6.397   5.640  18.815  0.00  0.00    +0.000 C 
ATOM      7  H   UNL     1       8.289   4.941  17.013  0.00  0.00    +0.000 HD
ENDROOT
BRANCH   6   8
ATOM      8  N   UNL     1       7.661   5.869  19.471  0.00  0.00    +0.000 N 
ATOM      9  O   UNL     1       7.964   5.218  20.484  0.00  0.00    +0.000 OA
ATOM     10  O   UNL     1       8.385   6.724  18.946  0.00  0.00    +0.000 OA
ENDBRANCH   6   8
BRANCH   1  11
ATOM     11  C   UNL     1       3.793   5.489  17.226  0.00  0.00    +0.000 C 
BRANCH  11  16
ATOM     12  C   UNL     1       1.447   2.571  21.702  0.00  0.00    +0.000 C 
ATOM     13  C   UNL     1       1.981   3.313  20.513  0.00  0.00    +0.000 A 
ATOM     14  C   UNL     1       2.556   2.632  19.436  0.00  0.00    +0.000 A 
ATOM     15  C   UNL     1       3.111   3.335  18.363  0.00  0.00    +0.000 A 
ATOM     16  C   UNL     1       3.113   4.738  18.353  0.00  0.00    +0.000 A 
ATOM     17  C   UNL     1       2.489   5.417  19.410  0.00  0.00    +0.000 A 
ATOM     18  C   UNL     1       1.940   4.711  20.485  0.00  0.00    +0.000 A 
ENDBRANCH  11  16
ENDBRANCH   1  11
TORSDOF 3
ENDMDL
MODEL 5
REMARK VINA RESULT:      -7.0      2.450      3.391
REMARK  Name = 
REMARK  4 active torsions:
REMARK  status: ('A' for Active; 'I' for Inactive)
REMARK    1  A    between atoms: C_1  and  C_2
REMARK    2  A    between atoms: C_5  and  C_6
REMARK    3  A    between atoms: C_6  and  N_7
REMARK    4  A    between atoms: C_12  and  N_13
REMARK                            x       y       z     vdW  Elec       q    Type
REMARK                         _______ _______ _______ _____ _____    ______ ____
ROOT
ATOM      1  N   UNL     1       5.132   4.774  16.800  0.00  0.00    +0.000 N 
ATOM      2  C   UNL     1       5.424   4.446  15.389  0.00  0.00    +0.000 C 
ATOM      3  C   UNL     1       6.967   4.349  15.332  0.00  0.00    +0.000 C 
ATOM      4  N   UNL     1       7.368   4.719  16.674  0.00  0.00    +0.000 N 
ATOM      5  C   UNL     1       6.316   5.057  17.490  0.00  0.00    +0.000 C 
ATOM      6  C   UNL     1       6.384   5.574  18.727  0.00  0.00    +0.000 C 
ATOM      7  H   UNL     1       8.309   5.026  16.907  0.00  0.00    +0.000 HD
ENDROOT
BRANCH   6   8
ATOM      8  N   UNL     1       7.632   5.912  19.368  0.00  0.00    +0.000 N 
ATOM      9  O   UNL     1       8.364   6.789  18.883  0.00  0.00    +0.000 OA
ATOM     10  O   UNL     1       7.884   5.285  20.404  0.00  0.00    +0.000 OA
ENDBRANCH   6   8
BRANCH   1  11
ATOM     11  C   UNL     1       3.786   5.197  17.167  0.00  0.00    +0.000 C 
BRANCH  11  16
ATOM     12  C   UNL     1       1.401   2.519  21.770  0.00  0.00    +0.000 C 
ATOM     13  C   UNL     1       2.081   3.215  20.629  0.00  0.00    +0.000 A 
ATOM     14  C   UNL     1       2.091   4.610  20.537  0.00  0.00    +0.000 A 
ATOM     15  C   UNL     1       2.670   5.247  19.436  0.00  0.00    +0.000 A 
ATOM     16  C   UNL     1       3.240   4.499  18.396  0.00  0.00    +0.000 A 
ATOM     17  C   UNL     1       3.273   3.101  18.515  0.00  0.00    +0.000 A 
ATOM     18  C   UNL     1       2.689   2.466  19.615  0.00  0.00    +0.000 A 
ENDBRANCH  11  16
ENDBRANCH   1  11
TORSDOF 3
ENDMDL
MODEL 6
REMARK VINA RESULT:      -6.8      1.428      1.928
REMARK  Name = 
REMARK  4 active torsions:
REMARK  status: ('A' for Active; 'I' for Inactive)
REMARK    1  A    between atoms: C_1  and  C_2
REMARK    2  A    between atoms: C_5  and  C_6
REMARK    3  A    between atoms: C_6  and  N_7
REMARK    4  A    between atoms: C_12  and  N_13
REMARK                            x       y       z     vdW  Elec       q    Type
REMARK                         _______ _______ _______ _____ _____    ______ ____
ROOT
ATOM      1  N   UNL     1       5.822   4.788  16.556  0.00  0.00    +0.000 N 
ATOM      2  C   UNL     1       6.236   5.393  17.839  0.00  0.00    +0.000 C 
ATOM      3  C   UNL     1       7.328   6.413  17.443  0.00  0.00    +0.000 C 
ATOM      4  N   UNL     1       7.471   6.204  16.017  0.00  0.00    +0.000 N 
ATOM      5  C   UNL     1       6.673   5.200  15.525  0.00  0.00    +0.000 C 
ATOM      6  C   UNL     1       6.689   4.686  14.285  0.00  0.00    +0.000 C 
ATOM      7  H   UNL     1       8.288   6.505  15.490  0.00  0.00    +0.000 HD
ENDROOT
BRANCH   6   8
ATOM      8  N   UNL     1       7.634   5.101  13.277  0.00  0.00    +0.000 N 
ATOM      9  O   UNL     1       8.580   5.847  13.579  0.00  0.00    +0.000 OA
ATOM     10  O   UNL     1       7.432   4.653  12.142  0.00  0.00    +0.000 OA
ENDBRANCH   6   8
BRANCH   1  11
ATOM     11  C   UNL     1       4.985   3.594  16.571  0.00  0.00    +0.000 C 
BRANCH  11  16
ATOM     12  C   UNL     1       0.889   3.313  20.718  0.00  0.00    +0.000 C 
ATOM     13  C   UNL     1       1.969   3.452  19.687  0.00  0.00    +0.000 A 
ATOM     14  C   UNL     1       1.778   4.232  18.542  0.00  0.00    +0.000 A 
ATOM     15  C   UNL     1       2.765   4.301  17.555  0.00  0.00    +0.000 A 
ATOM     16  C   UNL     1       3.960   3.579  17.687  0.00  0.00    +0.000 A 
ATOM     17  C   UNL     1       4.170   2.838  18.860  0.00  0.00    +0.000 A 
ATOM     18  C   UNL     1       3.179   2.766  19.843  0.00  0.00    +0.000 A 
ENDBRANCH  11  16
ENDBRANCH   1  11
TORSDOF 3
ENDMDL
MODEL 7
REMARK VINA RESULT:      -6.8      1.198      2.152
REMARK  Name = 
REMARK  4 active torsions:
REMARK  status: ('A' for Active; 'I' for Inactive)
REMARK    1  A    between atoms: C_1  and  C_2
REMARK    2  A    between atoms: C_5  and  C_6
REMARK    3  A    between atoms: C_6  and  N_7
REMARK    4  A    between atoms: C_12  and  N_13
REMARK                            x       y       z     vdW  Elec       q    Type
REMARK                         _______ _______ _______ _____ _____    ______ ____
ROOT
ATOM      1  N   UNL     1       5.337   4.864  17.463  0.00  0.00    +0.000 N 
ATOM      2  C   UNL     1       6.177   4.799  18.677  0.00  0.00    +0.000 C 
ATOM      3  C   UNL     1       7.625   4.900  18.143  0.00  0.00    +0.000 C 
ATOM      4  N   UNL     1       7.444   4.916  16.706  0.00  0.00    +0.000 N 
ATOM      5  C   UNL     1       6.133   4.797  16.315  0.00  0.00    +0.000 C 
ATOM      6  C   UNL     1       5.672   4.638  15.064  0.00  0.00    +0.000 C 
ATOM      7  H   UNL     1       8.190   4.698  16.050  0.00  0.00    +0.000 HD
ENDROOT
BRANCH   6   8
ATOM      8  N   UNL     1       6.540   4.507  13.919  0.00  0.00    +0.000 N 
ATOM      9  O   UNL     1       7.487   5.295  13.763  0.00  0.00    +0.000 OA
ATOM     10  O   UNL     1       6.274   3.573  13.154  0.00  0.00    +0.000 OA
ENDBRANCH   6   8
BRANCH   1  11
ATOM     11  C   UNL     1       3.919   4.537  17.562  0.00  0.00    +0.000 C 
BRANCH  11  16
ATOM     12  C   UNL     1       1.150   8.208  21.154  0.00  0.00    +0.000 C 
ATOM     13  C   UNL     1       1.791   7.247  20.198  0.00  0.00    +0.000 A 
ATOM     14  C   UNL     1       1.888   5.885  20.500  0.00  0.00    +0.000 A 
ATOM     15  C   UNL     1       2.547   5.009  19.633  0.00  0.00    +0.000 A 
ATOM     16  C   UNL     1       3.134   5.480  18.450  0.00  0.00    +0.000 A 
ATOM     17  C   UNL     1       2.991   6.838  18.125  0.00  0.00    +0.000 A 
ATOM     18  C   UNL     1       2.337   7.714  18.996  0.00  0.00    +0.000 A 
ENDBRANCH  11  16
ENDBRANCH   1  11
TORSDOF 3
ENDMDL
MODEL 8
REMARK VINA RESULT:      -6.8      1.224      1.913
REMARK  Name = 
REMARK  4 active torsions:
REMARK  status: ('A' for Active; 'I' for Inactive)
REMARK    1  A    between atoms: C_1  and  C_2
REMARK    2  A    between atoms: C_5  and  C_6
REMARK    3  A    between atoms: C_6  and  N_7
REMARK    4  A    between atoms: C_12  and  N_13
REMARK                            x       y       z     vdW  Elec       q    Type
REMARK                         _______ _______ _______ _____ _____    ______ ____
ROOT
ATOM      1  N   UNL     1       5.441   4.580  16.831  0.00  0.00    +0.000 N 
ATOM      2  C   UNL     1       6.130   4.422  18.128  0.00  0.00    +0.000 C 
ATOM      3  C   UNL     1       7.617   4.703  17.806  0.00  0.00    +0.000 C 
ATOM      4  N   UNL     1       7.611   4.892  16.370  0.00  0.00    +0.000 N 
ATOM      5  C   UNL     1       6.374   4.725  15.797  0.00  0.00    +0.000 C 
ATOM      6  C   UNL     1       6.085   4.696  14.487  0.00  0.00    +0.000 C 
ATOM      7  H   UNL     1       8.449   4.819  15.797  0.00  0.00    +0.000 HD
ENDROOT
BRANCH   6   8
ATOM      8  N   UNL     1       7.095   4.783  13.460  0.00  0.00    +0.000 N 
ATOM      9  O   UNL     1       8.066   5.543  13.604  0.00  0.00    +0.000 OA
ATOM     10  O   UNL     1       6.917   4.054  12.477  0.00  0.00    +0.000 OA
ENDBRANCH   6   8
BRANCH   1  11
ATOM     11  C   UNL     1       4.059   4.136  16.701  0.00  0.00    +0.000 C 
BRANCH  11  16
ATOM     12  C   UNL     1       1.266   2.756  21.635  0.00  0.00    +0.000 C 
ATOM     13  C   UNL     1       2.047   3.130  20.411  0.00  0.00    +0.000 A 
ATOM     14  C   UNL     1       2.075   4.449  19.948  0.00  0.00    +0.000 A 
ATOM     15  C   UNL     1       2.751   4.775  18.769  0.00  0.00    +0.000 A 
ATOM     16  C   UNL     1       3.403   3.784  18.021  0.00  0.00    +0.000 A 
ATOM     17  C   UNL     1       3.416   2.471  18.515  0.00  0.00    +0.000 A 
ATOM     18  C   UNL     1       2.735   2.146  19.692  0.00  0.00    +0.000 A 
ENDBRANCH  11  16
ENDBRANCH   1  11
TORSDOF 3
ENDMDL
MODEL 9
REMARK VINA RESULT:      -6.7      2.684      3.833
REMARK  Name = 
REMARK  4 active torsions:
REMARK  status: ('A' for Active; 'I' for Inactive)
REMARK    1  A    between atoms: C_1  and  C_2
REMARK    2  A    between atoms: C_5  and  C_6
REMARK    3  A    between atoms: C_6  and  N_7
REMARK    4  A    between atoms: C_12  and  N_13
REMARK                            x       y       z     vdW  Elec       q    Type
REMARK                         _______ _______ _______ _____ _____    ______ ____
ROOT
ATOM      1  N   UNL     1       3.775   4.527  18.597  0.00  0.00    +0.000 N 
ATOM      2  C   UNL     1       3.093   3.405  19.276  0.00  0.00    +0.000 C 
ATOM      3  C   UNL     1       4.248   2.510  19.782  0.00  0.00    +0.000 C 
ATOM      4  N   UNL     1       5.427   3.168  19.260  0.00  0.00    +0.000 N 
ATOM      5  C   UNL     1       5.148   4.275  18.496  0.00  0.00    +0.000 C 
ATOM      6  C   UNL     1       6.015   4.998  17.770  0.00  0.00    +0.000 C 
ATOM      7  H   UNL     1       6.327   2.703  19.167  0.00  0.00    +0.000 HD
ENDROOT
BRANCH   6   8
ATOM      8  N   UNL     1       7.410   4.654  17.645  0.00  0.00    +0.000 N 
ATOM      9  O   UNL     1       8.100   4.470  18.661  0.00  0.00    +0.000 OA
ATOM     10  O   UNL     1       7.831   4.552  16.486  0.00  0.00    +0.000 OA
ENDBRANCH   6   8
BRANCH   1  11
ATOM     11  C   UNL     1       2.993   5.439  17.771  0.00  0.00    +0.000 C 
BRANCH  11  16
ATOM     12  C   UNL     1       0.966   9.984  20.817  0.00  0.00    +0.000 C 
ATOM     13  C   UNL     1       1.412   8.791  20.026  0.00  0.00    +0.000 A 
ATOM     14  C   UNL     1       1.649   7.561  20.646  0.00  0.00    +0.000 A 
ATOM     15  C   UNL     1       2.128   6.474  19.910  0.00  0.00    +0.000 A 
ATOM     16  C   UNL     1       2.393   6.599  18.539  0.00  0.00    +0.000 A 
ATOM     17  C   UNL     1       2.106   7.820  17.909  0.00  0.00    +0.000 A 
ATOM     18  C   UNL     1       1.632   8.908  18.648  0.00  0.00    +0.000 A 
ENDBRANCH  11  16
ENDBRANCH   1  11
TORSDOF 3
ENDMDL
