MODEL 1
REMARK VINA RESULT:      -7.6      0.000      0.000
REMARK  Name = 
REMARK  5 active torsions:
REMARK  status: ('A' for Active; 'I' for Inactive)
REMARK    1  A    between atoms: C_2  and  C_5
REMARK    2  A    between atoms: N_3  and  O_4
REMARK    3  A    between atoms: C_8  and  C_9
REMARK    4  A    between atoms: C_9  and  N_10
REMARK    5  A    between atoms: N_10  and  C_11
REMARK                            x       y       z     vdW  Elec       q    Type
REMARK                         _______ _______ _______ _____ _____    ______ ____
ROOT
ATOM      1  C   UNL     1       2.469   6.511  19.827  0.00  0.00    +0.000 C 
ENDROOT
BRANCH   1   5
ATOM      2  C   UNL     1       5.885   5.540  17.197  0.00  0.00    +0.000 A 
ATOM      3  C   UNL     1       6.032   5.529  18.594  0.00  0.00    +0.000 A 
ATOM      4  C   UNL     1       4.947   5.878  19.436  0.00  0.00    +0.000 A 
ATOM      5  C   UNL     1       3.701   6.244  18.927  0.00  0.00    +0.000 A 
ATOM      6  C   UNL     1       3.558   6.202  17.530  0.00  0.00    +0.000 A 
ATOM      7  C   UNL     1       4.627   5.859  16.672  0.00  0.00    +0.000 A 
BRANCH   2   9
ATOM      8  O   UNL     1       7.905   4.433  16.589  0.00  0.00    +0.000 OA
ATOM      9  C   UNL     1       6.998   5.183  16.237  0.00  0.00    +0.000 C 
ATOM     10  N   UNL     1       6.902   5.667  14.953  0.00  0.00    +0.000 N 
ATOM     11  H   UNL     1       6.046   6.030  14.553  0.00  0.00    +0.000 HD
BRANCH  10  12
ATOM     12  O   UNL     1       7.854   5.152  14.038  0.00  0.00    +0.000 OA
ATOM     13  H   UNL     1       7.338   4.470  13.553  0.00  0.00    +0.000 HD
ENDBRANCH  10  12
ENDBRANCH   2   9
ENDBRANCH   1   5
BRANCH   1  14
ATOM     14  N   UNL     1       2.198   5.500  20.888  0.00  0.00    +0.000 N 
ATOM     15  H   UNL     1       1.590   5.949  21.578  0.00  0.00    +0.000 HD
BRANCH  14  16
ATOM     16  C   UNL     1       1.430   4.244  20.502  0.00  0.00    +0.000 A 
ATOM     17  C   UNL     1       1.154   3.453  21.589  0.00  0.00    +0.000 A 
ATOM     18  N   UNL     1       2.064   2.538  21.988  0.00  0.00    +0.000 NA
ATOM     19  C   UNL     1       3.149   2.365  21.175  0.00  0.00    +0.000 A 
ATOM     20  C   UNL     1       3.265   2.894  19.893  0.00  0.00    +0.000 A 
ATOM     21  C   UNL     1       4.199   2.382  18.983  0.00  0.00    +0.000 A 
ATOM     22  C   UNL     1       3.689   1.781  17.850  0.00  0.00    +0.000 A 
ATOM     23  C   UNL     1       2.316   1.848  17.625  0.00  0.00    +0.000 A 
ATOM     24  C   UNL     1       1.527   2.742  18.388  0.00  0.00    +0.000 A 
ATOM     25  C   UNL     1       2.091   3.468  19.481  0.00  0.00    +0.000 A 
ENDBRANCH  14  16
ENDBRANCH   1  14
TORSDOF 5
ENDMDL
MODEL 2
REMARK VINA RESULT:      -7.4      1.993      3.432
REMARK  Name = 
REMARK  5 active torsions:
REMARK  status: ('A' for Active; 'I' for Inactive)
REMARK    1  A    between atoms: C_2  and  C_5
REMARK    2  A    between atoms: N_3  and  O_4
REMARK    3  A    between atoms: C_8  and  C_9
REMARK    4  A    between atoms: C_9  and  N_10
REMARK    5  A    between atoms: N_10  and  C_11
REMARK                            x       y       z     vdW  Elec       q    Type
REMARK                         _______ _______ _______ _____ _____    ______ ____
ROOT
ATOM      1  C   UNL     1       4.957   3.766  19.350  0.00  0.00    +0.000 C 
ENDROOT
BRANCH   1   5
ATOM      2  C   UNL     1       6.640   4.539  15.337  0.00  0.00    +0.000 A 
ATOM      3  C   UNL     1       7.426   4.714  16.488  0.00  0.00    +0.000 A 
ATOM      4  C   UNL     1       6.874   4.504  17.777  0.00  0.00    +0.000 A 
ATOM      5  C   UNL     1       5.546   4.119  17.961  0.00  0.00    +0.000 A 
ATOM      6  C   UNL     1       4.791   3.901  16.797  0.00  0.00    +0.000 A 
ATOM      7  C   UNL     1       5.320   4.107  15.504  0.00  0.00    +0.000 A 
BRANCH   2   9
ATOM      8  O   UNL     1       6.663   4.137  12.989  0.00  0.00    +0.000 OA
ATOM      9  C   UNL     1       7.159   4.749  13.932  0.00  0.00    +0.000 C 
ATOM     10  N   UNL     1       8.140   5.697  13.758  0.00  0.00    +0.000 N 
ATOM     11  H   UNL     1       8.359   6.410  14.443  0.00  0.00    +0.000 HD
BRANCH  10  12
ATOM     12  O   UNL     1       8.458   6.000  12.411  0.00  0.00    +0.000 OA
ATOM     13  H   UNL     1       7.572   6.031  11.984  0.00  0.00    +0.000 HD
ENDBRANCH  10  12
ENDBRANCH   2   9
ENDBRANCH   1   5
BRANCH   1  14
ATOM     14  N   UNL     1       3.787   2.845  19.352  0.00  0.00    +0.000 N 
ATOM     15  H   UNL     1       4.023   2.065  19.972  0.00  0.00    +0.000 HD
BRANCH  14  16
ATOM     16  C   UNL     1       2.469   3.358  19.915  0.00  0.00    +0.000 A 
ATOM     17  C   UNL     1       1.385   2.792  19.294  0.00  0.00    +0.000 A 
ATOM     18  N   UNL     1       0.899   3.358  18.168  0.00  0.00    +0.000 NA
ATOM     19  C   UNL     1       1.443   4.559  17.808  0.00  0.00    +0.000 A 
ATOM     20  C   UNL     1       2.283   5.318  18.619  0.00  0.00    +0.000 A 
ATOM     21  C   UNL     1       2.494   6.680  18.363  0.00  0.00    +0.000 A 
ATOM     22  C   UNL     1       2.048   7.563  19.325  0.00  0.00    +0.000 A 
ATOM     23  C   UNL     1       1.556   7.046  20.523  0.00  0.00    +0.000 A 
ATOM     24  C   UNL     1       1.775   5.683  20.836  0.00  0.00    +0.000 A 
ATOM     25  C   UNL     1       2.362   4.797  19.883  0.00  0.00    +0.000 A 
ENDBRANCH  14  16
ENDBRANCH   1  14
TORSDOF 5
ENDMDL
MODEL 3
REMARK VINA RESULT:      -7.4      2.491      3.814
REMARK  Name = 
REMARK  5 active torsions:
REMARK  status: ('A' for Active; 'I' for Inactive)
REMARK    1  A    between atoms: C_2  and  C_5
REMARK    2  A    between atoms: N_3  and  O_4
REMARK    3  A    between atoms: C_8  and  C_9
REMARK    4  A    between atoms: C_9  and  N_10
REMARK    5  A    between atoms: N_10  and  C_11
REMARK                            x       y       z     vdW  Elec       q    Type
REMARK                         _______ _______ _______ _____ _____    ______ ____
ROOT
ATOM      1  C   UNL     1       5.608   6.314  17.415  0.00  0.00    +0.000 C 
ENDROOT
BRANCH   1   5
ATOM      2  C   UNL     1       6.284   4.117  13.640  0.00  0.00    +0.000 A 
ATOM      3  C   UNL     1       5.033   4.074  14.279  0.00  0.00    +0.000 A 
ATOM      4  C   UNL     1       4.829   4.747  15.510  0.00  0.00    +0.000 A 
ATOM      5  C   UNL     1       5.842   5.472  16.136  0.00  0.00    +0.000 A 
ATOM      6  C   UNL     1       7.071   5.545  15.458  0.00  0.00    +0.000 A 
ATOM      7  C   UNL     1       7.297   4.880  14.232  0.00  0.00    +0.000 A 
BRANCH   2   9
ATOM      8  O   UNL     1       7.329   3.938  11.506  0.00  0.00    +0.000 OA
ATOM      9  C   UNL     1       6.576   3.421  12.329  0.00  0.00    +0.000 C 
ATOM     10  N   UNL     1       6.032   2.172  12.144  0.00  0.00    +0.000 N 
ATOM     11  H   UNL     1       5.663   1.604  12.897  0.00  0.00    +0.000 HD
BRANCH  10  12
ATOM     12  O   UNL     1       6.486   1.477  10.996  0.00  0.00    +0.000 OA
ATOM     13  H   UNL     1       7.237   2.035  10.691  0.00  0.00    +0.000 HD
ENDBRANCH  10  12
ENDBRANCH   2   9
ENDBRANCH   1   5
BRANCH   1  14
ATOM     14  N   UNL     1       4.237   6.262  17.995  0.00  0.00    +0.000 N 
ATOM     15  H   UNL     1       3.667   5.696  17.360  0.00  0.00    +0.000 HD
BRANCH  14  16
ATOM     16  C   UNL     1       4.053   5.579  19.342  0.00  0.00    +0.000 A 
ATOM     17  C   UNL     1       5.130   4.797  19.678  0.00  0.00    +0.000 A 
ATOM     18  N   UNL     1       5.174   3.516  19.255  0.00  0.00    +0.000 NA
ATOM     19  C   UNL     1       4.050   3.042  18.636  0.00  0.00    +0.000 A 
ATOM     20  C   UNL     1       2.826   3.703  18.611  0.00  0.00    +0.000 A 
ATOM     21  C   UNL     1       1.642   3.018  18.307  0.00  0.00    +0.000 A 
ATOM     22  C   UNL     1       0.701   2.939  19.313  0.00  0.00    +0.000 A 
ATOM     23  C   UNL     1       0.927   3.652  20.490  0.00  0.00    +0.000 A 
ATOM     24  C   UNL     1       1.945   4.635  20.525  0.00  0.00    +0.000 A 
ATOM     25  C   UNL     1       2.837   4.806  19.424  0.00  0.00    +0.000 A 
ENDBRANCH  14  16
ENDBRANCH   1  14
TORSDOF 5
ENDMDL
MODEL 4
REMARK VINA RESULT:      -7.3      0.133      1.024
REMARK  Name = 
REMARK  5 active torsions:
REMARK  status: ('A' for Active; 'I' for Inactive)
REMARK    1  A    between atoms: C_2  and  C_5
REMARK    2  A    between atoms: N_3  and  O_4
REMARK    3  A    between atoms: C_8  and  C_9
REMARK    4  A    between atoms: C_9  and  N_10
REMARK    5  A    between atoms: N_10  and  C_11
REMARK                            x       y       z     vdW  Elec       q    Type
REMARK                         _______ _______ _______ _____ _____    ______ ____
ROOT
ATOM      1  C   UNL     1       2.689   6.503  20.021  0.00  0.00    +0.000 C 
ENDROOT
BRANCH   1   5
ATOM      2  C   UNL     1       5.867   5.523  17.110  0.00  0.00    +0.000 A 
ATOM      3  C   UNL     1       4.620   5.999  16.673  0.00  0.00    +0.000 A 
ATOM      4  C   UNL     1       3.588   6.276  17.605  0.00  0.00    +0.000 A 
ATOM      5  C   UNL     1       3.758   6.092  18.977  0.00  0.00    +0.000 A 
ATOM      6  C   UNL     1       5.028   5.664  19.399  0.00  0.00    +0.000 A 
ATOM      7  C   UNL     1       6.070   5.380  18.487  0.00  0.00    +0.000 A 
BRANCH   2   9
ATOM      8  O   UNL     1       7.954   4.513  16.560  0.00  0.00    +0.000 OA
ATOM      9  C   UNL     1       7.013   5.203  16.175  0.00  0.00    +0.000 C 
ATOM     10  N   UNL     1       6.909   5.647  14.877  0.00  0.00    +0.000 N 
ATOM     11  H   UNL     1       6.040   5.953  14.457  0.00  0.00    +0.000 HD
BRANCH  10  12
ATOM     12  O   UNL     1       7.901   5.163  13.990  0.00  0.00    +0.000 OA
ATOM     13  H   UNL     1       7.884   5.828  13.265  0.00  0.00    +0.000 HD
ENDBRANCH  10  12
ENDBRANCH   2   9
ENDBRANCH   1   5
BRANCH   1  14
ATOM     14  N   UNL     1       2.324   5.469  21.029  0.00  0.00    +0.000 N 
ATOM     15  H   UNL     1       1.723   5.927  21.720  0.00  0.00    +0.000 HD
BRANCH  14  16
ATOM     16  C   UNL     1       1.493   4.279  20.570  0.00  0.00    +0.000 A 
ATOM     17  C   UNL     1       1.140   3.461  21.613  0.00  0.00    +0.000 A 
ATOM     18  N   UNL     1       1.982   2.477  21.995  0.00  0.00    +0.000 NA
ATOM     19  C   UNL     1       3.077   2.273  21.202  0.00  0.00    +0.000 A 
ATOM     20  C   UNL     1       3.260   2.848  19.948  0.00  0.00    +0.000 A 
ATOM     21  C   UNL     1       4.188   2.319  19.040  0.00  0.00    +0.000 A 
ATOM     22  C   UNL     1       3.674   1.798  17.869  0.00  0.00    +0.000 A 
ATOM     23  C   UNL     1       2.314   1.959  17.613  0.00  0.00    +0.000 A 
ATOM     24  C   UNL     1       1.559   2.866  18.395  0.00  0.00    +0.000 A 
ATOM     25  C   UNL     1       2.134   3.509  19.532  0.00  0.00    +0.000 A 
ENDBRANCH  14  16
ENDBRANCH   1  14
TORSDOF 5
ENDMDL
MODEL 5
REMARK VINA RESULT:      -7.3      4.575      5.916
REMARK  Name = 
REMARK  5 active torsions:
REMARK  status: ('A' for Active; 'I' for Inactive)
REMARK    1  A    between atoms: C_2  and  C_5
REMARK    2  A    between atoms: N_3  and  O_4
REMARK    3  A    between atoms: C_8  and  C_9
REMARK    4  A    between atoms: C_9  and  N_10
REMARK    5  A    between atoms: N_10  and  C_11
REMARK                            x       y       z     vdW  Elec       q    Type
REMARK                         _______ _______ _______ _____ _____    ______ ____
ROOT
ATOM      1  C   UNL     1       3.596   6.549  19.164  0.00  0.00    +0.000 C 
ENDROOT
BRANCH   1   5
ATOM      2  C   UNL     1       0.567   9.757  18.915  0.00  0.00    +0.000 A 
ATOM      3  C   UNL     1       0.793   9.080  20.125  0.00  0.00    +0.000 A 
ATOM      4  C   UNL     1       1.738   8.025  20.194  0.00  0.00    +0.000 A 
ATOM      5  C   UNL     1       2.475   7.615  19.084  0.00  0.00    +0.000 A 
ATOM      6  C   UNL     1       2.270   8.336  17.896  0.00  0.00    +0.000 A 
ATOM      7  C   UNL     1       1.333   9.389  17.804  0.00  0.00    +0.000 A 
BRANCH   2   9
ATOM      8  O   UNL     1      -0.681  11.622  19.718  0.00  0.00    +0.000 OA
ATOM      9  C   UNL     1      -0.426  10.888  18.765  0.00  0.00    +0.000 C 
ATOM     10  N   UNL     1      -0.957  11.099  17.513  0.00  0.00    +0.000 N 
ATOM     11  H   UNL     1      -0.560  10.717  16.664  0.00  0.00    +0.000 HD
BRANCH  10  12
ATOM     12  O   UNL     1      -1.726  12.280  17.372  0.00  0.00    +0.000 OA
ATOM     13  H   UNL     1      -2.253  12.294  18.203  0.00  0.00    +0.000 HD
ENDBRANCH  10  12
ENDBRANCH   2   9
ENDBRANCH   1   5
BRANCH   1  14
ATOM     14  N   UNL     1       3.717   5.632  17.997  0.00  0.00    +0.000 N 
ATOM     15  H   UNL     1       4.602   5.856  17.533  0.00  0.00    +0.000 HD
BRANCH  14  16
ATOM     16  C   UNL     1       3.826   4.138  18.266  0.00  0.00    +0.000 A 
ATOM     17  C   UNL     1       3.385   3.388  17.205  0.00  0.00    +0.000 A 
ATOM     18  N   UNL     1       2.075   3.077  17.114  0.00  0.00    +0.000 NA
ATOM     19  C   UNL     1       1.295   3.416  18.184  0.00  0.00    +0.000 A 
ATOM     20  C   UNL     1       1.787   3.846  19.413  0.00  0.00    +0.000 A 
ATOM     21  C   UNL     1       0.987   3.810  20.563  0.00  0.00    +0.000 A 
ATOM     22  C   UNL     1       1.398   2.961  21.571  0.00  0.00    +0.000 A 
ATOM     23  C   UNL     1       2.628   2.320  21.438  0.00  0.00    +0.000 A 
ATOM     24  C   UNL     1       3.534   2.750  20.438  0.00  0.00    +0.000 A 
ATOM     25  C   UNL     1       3.151   3.729  19.474  0.00  0.00    +0.000 A 
ENDBRANCH  14  16
ENDBRANCH   1  14
TORSDOF 5
ENDMDL
MODEL 6
REMARK VINA RESULT:      -7.2      2.588      3.864
REMARK  Name = 
REMARK  5 active torsions:
REMARK  status: ('A' for Active; 'I' for Inactive)
REMARK    1  A    between atoms: C_2  and  C_5
REMARK    2  A    between atoms: N_3  and  O_4
REMARK    3  A    between atoms: C_8  and  C_9
REMARK    4  A    between atoms: C_9  and  N_10
REMARK    5  A    between atoms: N_10  and  C_11
REMARK                            x       y       z     vdW  Elec       q    Type
REMARK                         _______ _______ _______ _____ _____    ______ ____
ROOT
ATOM      1  C   UNL     1       5.479   6.491  17.125  0.00  0.00    +0.000 C 
ENDROOT
BRANCH   1   5
ATOM      2  C   UNL     1       6.337   4.106  13.505  0.00  0.00    +0.000 A 
ATOM      3  C   UNL     1       7.305   4.976  14.034  0.00  0.00    +0.000 A 
ATOM      4  C   UNL     1       7.015   5.769  15.173  0.00  0.00    +0.000 A 
ATOM      5  C   UNL     1       5.776   5.726  15.812  0.00  0.00    +0.000 A 
ATOM      6  C   UNL     1       4.839   4.814  15.298  0.00  0.00    +0.000 A 
ATOM      7  C   UNL     1       5.106   4.016  14.164  0.00  0.00    +0.000 A 
BRANCH   2   9
ATOM      8  O   UNL     1       7.456   3.516  11.486  0.00  0.00    +0.000 OA
ATOM      9  C   UNL     1       6.573   3.233  12.293  0.00  0.00    +0.000 C 
ATOM     10  N   UNL     1       5.819   2.087  12.185  0.00  0.00    +0.000 N 
ATOM     11  H   UNL     1       5.306   1.679  12.956  0.00  0.00    +0.000 HD
BRANCH  10  12
ATOM     12  O   UNL     1       6.204   1.204  11.147  0.00  0.00    +0.000 OA
ATOM     13  H   UNL     1       6.051   0.319  11.551  0.00  0.00    +0.000 HD
ENDBRANCH  10  12
ENDBRANCH   2   9
ENDBRANCH   1   5
BRANCH   1  14
ATOM     14  N   UNL     1       4.129   6.280  17.718  0.00  0.00    +0.000 N 
ATOM     15  H   UNL     1       3.646   5.601  17.123  0.00  0.00    +0.000 HD
BRANCH  14  16
ATOM     16  C   UNL     1       4.042   5.662  19.106  0.00  0.00    +0.000 A 
ATOM     17  C   UNL     1       5.156   4.923  19.414  0.00  0.00    +0.000 A 
ATOM     18  N   UNL     1       5.207   3.623  19.052  0.00  0.00    +0.000 NA
ATOM     19  C   UNL     1       4.060   3.094  18.527  0.00  0.00    +0.000 A 
ATOM     20  C   UNL     1       2.821   3.726  18.544  0.00  0.00    +0.000 A 
ATOM     21  C   UNL     1       1.638   3.000  18.346  0.00  0.00    +0.000 A 
ATOM     22  C   UNL     1       0.761   2.952  19.410  0.00  0.00    +0.000 A 
ATOM     23  C   UNL     1       1.039   3.728  20.534  0.00  0.00    +0.000 A 
ATOM     24  C   UNL     1       2.032   4.734  20.459  0.00  0.00    +0.000 A 
ATOM     25  C   UNL     1       2.853   4.868  19.299  0.00  0.00    +0.000 A 
ENDBRANCH  14  16
ENDBRANCH   1  14
TORSDOF 5
ENDMDL
MODEL 7
REMARK VINA RESULT:      -7.2      1.911      3.524
REMARK  Name = 
REMARK  5 active torsions:
REMARK  status: ('A' for Active; 'I' for Inactive)
REMARK    1  A    between atoms: C_2  and  C_5
REMARK    2  A    between atoms: N_3  and  O_4
REMARK    3  A    between atoms: C_8  and  C_9
REMARK    4  A    between atoms: C_9  and  N_10
REMARK    5  A    between atoms: N_10  and  C_11
REMARK                            x       y       z     vdW  Elec       q    Type
REMARK                         _______ _______ _______ _____ _____    ______ ____
ROOT
ATOM      1  C   UNL     1       4.791   3.719  19.520  0.00  0.00    +0.000 C 
ENDROOT
BRANCH   1   5
ATOM      2  C   UNL     1       6.444   4.384  15.476  0.00  0.00    +0.000 A 
ATOM      3  C   UNL     1       5.262   3.646  15.652  0.00  0.00    +0.000 A 
ATOM      4  C   UNL     1       4.753   3.400  16.953  0.00  0.00    +0.000 A 
ATOM      5  C   UNL     1       5.391   3.871  18.100  0.00  0.00    +0.000 A 
ATOM      6  C   UNL     1       6.544   4.649  17.901  0.00  0.00    +0.000 A 
ATOM      7  C   UNL     1       7.069   4.904  16.614  0.00  0.00    +0.000 A 
BRANCH   2   9
ATOM      8  O   UNL     1       6.557   4.199  13.103  0.00  0.00    +0.000 OA
ATOM      9  C   UNL     1       7.047   4.682  14.121  0.00  0.00    +0.000 C 
ATOM     10  N   UNL     1       8.100   5.567  14.080  0.00  0.00    +0.000 N 
ATOM     11  H   UNL     1       8.333   6.195  14.839  0.00  0.00    +0.000 HD
BRANCH  10  12
ATOM     12  O   UNL     1       8.505   5.968  12.784  0.00  0.00    +0.000 OA
ATOM     13  H   UNL     1       7.650   6.190  12.351  0.00  0.00    +0.000 HD
ENDBRANCH  10  12
ENDBRANCH   2   9
ENDBRANCH   1   5
BRANCH   1  14
ATOM     14  N   UNL     1       3.549   2.904  19.625  0.00  0.00    +0.000 N 
ATOM     15  H   UNL     1       3.697   2.233  20.385  0.00  0.00    +0.000 HD
BRANCH  14  16
ATOM     16  C   UNL     1       2.258   3.609  20.020  0.00  0.00    +0.000 A 
ATOM     17  C   UNL     1       1.165   3.082  19.379  0.00  0.00    +0.000 A 
ATOM     18  N   UNL     1       0.821   3.555  18.162  0.00  0.00    +0.000 NA
ATOM     19  C   UNL     1       1.514   4.645  17.716  0.00  0.00    +0.000 A 
ATOM     20  C   UNL     1       2.372   5.408  18.501  0.00  0.00    +0.000 A 
ATOM     21  C   UNL     1       2.746   6.703  18.114  0.00  0.00    +0.000 A 
ATOM     22  C   UNL     1       2.332   7.734  18.932  0.00  0.00    +0.000 A 
ATOM     23  C   UNL     1       1.707   7.415  20.136  0.00  0.00    +0.000 A 
ATOM     24  C   UNL     1       1.756   6.083  20.616  0.00  0.00    +0.000 A 
ATOM     25  C   UNL     1       2.309   5.036  19.818  0.00  0.00    +0.000 A 
ENDBRANCH  14  16
ENDBRANCH   1  14
TORSDOF 5
ENDMDL
MODEL 8
REMARK VINA RESULT:      -7.1      2.169      3.337
REMARK  Name = 
REMARK  5 active torsions:
REMARK  status: ('A' for Active; 'I' for Inactive)
REMARK    1  A    between atoms: C_2  and  C_5
REMARK    2  A    between atoms: N_3  and  O_4
REMARK    3  A    between atoms: C_8  and  C_9
REMARK    4  A    between atoms: C_9  and  N_10
REMARK    5  A    between atoms: N_10  and  C_11
REMARK                            x       y       z     vdW  Elec       q    Type
REMARK                         _______ _______ _______ _____ _____    ______ ____
ROOT
ATOM      1  C   UNL     1       5.629   4.848  18.973  0.00  0.00    +0.000 C 
ENDROOT
BRANCH   1   5
ATOM      2  C   UNL     1       6.479   4.248  14.678  0.00  0.00    +0.000 A 
ATOM      3  C   UNL     1       7.290   5.089  15.456  0.00  0.00    +0.000 A 
ATOM      4  C   UNL     1       6.994   5.312  16.825  0.00  0.00    +0.000 A 
ATOM      5  C   UNL     1       5.901   4.717  17.454  0.00  0.00    +0.000 A 
ATOM      6  C   UNL     1       5.131   3.839  16.672  0.00  0.00    +0.000 A 
ATOM      7  C   UNL     1       5.406   3.605  15.306  0.00  0.00    +0.000 A 
BRANCH   2   9
ATOM      8  O   UNL     1       7.415   4.735  12.541  0.00  0.00    +0.000 OA
ATOM      9  C   UNL     1       6.731   3.966  13.213  0.00  0.00    +0.000 C 
ATOM     10  N   UNL     1       6.233   2.790  12.702  0.00  0.00    +0.000 N 
ATOM     11  H   UNL     1       5.929   2.014  13.277  0.00  0.00    +0.000 HD
BRANCH  10  12
ATOM     12  O   UNL     1       6.655   2.473  11.388  0.00  0.00    +0.000 OA
ATOM     13  H   UNL     1       5.827   2.143  10.971  0.00  0.00    +0.000 HD
ENDBRANCH  10  12
ENDBRANCH   2   9
ENDBRANCH   1   5
BRANCH   1  14
ATOM     14  N   UNL     1       4.661   5.906  19.378  0.00  0.00    +0.000 N 
ATOM     15  H   UNL     1       5.065   6.803  19.094  0.00  0.00    +0.000 HD
BRANCH  14  16
ATOM     16  C   UNL     1       3.287   5.912  18.723  0.00  0.00    +0.000 A 
ATOM     17  C   UNL     1       2.580   7.051  19.015  0.00  0.00    +0.000 A 
ATOM     18  N   UNL     1       1.830   7.093  20.137  0.00  0.00    +0.000 NA
ATOM     19  C   UNL     1       1.713   5.923  20.834  0.00  0.00    +0.000 A 
ATOM     20  C   UNL     1       2.122   4.680  20.361  0.00  0.00    +0.000 A 
ATOM     21  C   UNL     1       1.642   3.495  20.936  0.00  0.00    +0.000 A 
ATOM     22  C   UNL     1       0.872   2.686  20.125  0.00  0.00    +0.000 A 
ATOM     23  C   UNL     1       0.746   3.024  18.778  0.00  0.00    +0.000 A 
ATOM     24  C   UNL     1       1.607   4.000  18.221  0.00  0.00    +0.000 A 
ATOM     25  C   UNL     1       2.502   4.746  19.046  0.00  0.00    +0.000 A 
ENDBRANCH  14  16
ENDBRANCH   1  14
TORSDOF 5
ENDMDL
MODEL 9
REMARK VINA RESULT:      -7.0      4.465      6.136
REMARK  Name = 
REMARK  5 active torsions:
REMARK  status: ('A' for Active; 'I' for Inactive)
REMARK    1  A    between atoms: C_2  and  C_5
REMARK    2  A    between atoms: N_3  and  O_4
REMARK    3  A    between atoms: C_8  and  C_9
REMARK    4  A    between atoms: C_9  and  N_10
REMARK    5  A    between atoms: N_10  and  C_11
REMARK                            x       y       z     vdW  Elec       q    Type
REMARK                         _______ _______ _______ _____ _____    ______ ____
ROOT
ATOM      1  C   UNL     1       2.645   5.917  19.753  0.00  0.00    +0.000 C 
ENDROOT
BRANCH   1   5
ATOM      2  C   UNL     1       1.080   9.964  18.915  0.00  0.00    +0.000 A 
ATOM      3  C   UNL     1       1.750   9.237  17.918  0.00  0.00    +0.000 A 
ATOM      4  C   UNL     1       2.286   7.954  18.199  0.00  0.00    +0.000 A 
ATOM      5  C   UNL     1       2.176   7.364  19.458  0.00  0.00    +0.000 A 
ATOM      6  C   UNL     1       1.459   8.085  20.427  0.00  0.00    +0.000 A 
ATOM      7  C   UNL     1       0.920   9.365  20.170  0.00  0.00    +0.000 A 
BRANCH   2   9
ATOM      8  O   UNL     1       1.049  12.337  19.132  0.00  0.00    +0.000 OA
ATOM      9  C   UNL     1       0.487  11.338  18.690  0.00  0.00    +0.000 C 
ATOM     10  N   UNL     1      -0.646  11.415  17.913  0.00  0.00    +0.000 N 
ATOM     11  H   UNL     1      -0.959  10.670  17.304  0.00  0.00    +0.000 HD
BRANCH  10  12
ATOM     12  O   UNL     1      -1.054  12.726  17.566  0.00  0.00    +0.000 OA
ATOM     13  H   UNL     1      -1.110  13.172  18.441  0.00  0.00    +0.000 HD
ENDBRANCH  10  12
ENDBRANCH   2   9
ENDBRANCH   1   5
BRANCH   1  14
ATOM     14  N   UNL     1       2.697   4.992  18.587  0.00  0.00    +0.000 N 
ATOM     15  H   UNL     1       2.619   5.569  17.745  0.00  0.00    +0.000 HD
BRANCH  14  16
ATOM     16  C   UNL     1       3.975   4.198  18.357  0.00  0.00    +0.000 A 
ATOM     17  C   UNL     1       4.916   4.441  19.325  0.00  0.00    +0.000 A 
ATOM     18  N   UNL     1       5.766   5.479  19.176  0.00  0.00    +0.000 NA
ATOM     19  C   UNL     1       5.719   6.134  17.977  0.00  0.00    +0.000 A 
ATOM     20  C   UNL     1       5.031   5.678  16.857  0.00  0.00    +0.000 A 
ATOM     21  C   UNL     1       5.324   6.174  15.579  0.00  0.00    +0.000 A 
ATOM     22  C   UNL     1       5.839   5.270  14.671  0.00  0.00    +0.000 A 
ATOM     23  C   UNL     1       5.897   3.926  15.035  0.00  0.00    +0.000 A 
ATOM     24  C   UNL     1       5.193   3.482  16.180  0.00  0.00    +0.000 A 
ATOM     25  C   UNL     1       4.546   4.412  17.049  0.00  0.00    +0.000 A 
ENDBRANCH  14  16
ENDBRANCH   1  14
TORSDOF 5
ENDMDL
