MODEL 1
REMARK VINA RESULT:      -7.8      0.000      0.000
REMARK  Name = 
REMARK  5 active torsions:
REMARK  status: ('A' for Active; 'I' for Inactive)
REMARK    1  A    between atoms: C_1  and  O_2
REMARK    2  A    between atoms: O_2  and  C_3
REMARK    3  A    between atoms: C_5  and  C_6
REMARK    4  A    between atoms: C_15  and  C_16
REMARK    5  A    between atoms: C_21  and  C_23
REMARK                            x       y       z     vdW  Elec       q    Type
REMARK                         _______ _______ _______ _____ _____    ______ ____
ROOT
ATOM      1  C   UNL     1       5.790   4.648  18.351  0.00  0.00    +0.000 A 
ATOM      2  C   UNL     1       6.373   4.739  17.078  0.00  0.00    +0.000 A 
ATOM      3  C   UNL     1       5.589   4.686  15.933  0.00  0.00    +0.000 A 
ATOM      4  N   UNL     1       4.243   4.704  16.027  0.00  0.00    +0.000 NA
ATOM      5  C   UNL     1       3.696   4.617  17.266  0.00  0.00    +0.000 A 
ATOM      6  C   UNL     1       4.400   4.515  18.471  0.00  0.00    +0.000 A 
ENDROOT
BRANCH   3   7
ATOM      7  C   UNL     1       6.146   4.504  14.572  0.00  0.00    +0.000 A 
ATOM      8  C   UNL     1       7.279   5.200  14.111  0.00  0.00    +0.000 A 
ATOM      9  C   UNL     1       7.815   4.969  12.838  0.00  0.00    +0.000 A 
ATOM     10  C   UNL     1       7.222   4.036  11.991  0.00  0.00    +0.000 A 
ATOM     11  C   UNL     1       6.106   3.329  12.426  0.00  0.00    +0.000 A 
ATOM     12 CL   UNL     1       5.379   2.164  11.389  0.00  0.00    +0.000 Cl
ATOM     13  C   UNL     1       5.579   3.553  13.698  0.00  0.00    +0.000 A 
ENDBRANCH   3   7
BRANCH   6  14
ATOM     14  C   UNL     1       3.565   4.311  19.719  0.00  0.00    +0.000 C 
ATOM     15  C   UNL     1       2.871   2.942  19.745  0.00  0.00    +0.000 C 
ATOM     16  C   UNL     1       1.614   3.145  20.593  0.00  0.00    +0.000 C 
ATOM     17  C   UNL     1       1.310   4.646  20.551  0.00  0.00    +0.000 C 
ATOM     18  N   UNL     1       2.496   5.290  20.001  0.00  0.00    +0.000 N 
ATOM     19  C   UNL     1       2.574   6.696  19.875  0.00  0.00    +0.000 C 
ATOM     20  O   UNL     1       3.603   7.195  19.421  0.00  0.00    +0.000 OA
BRANCH  19  21
ATOM     21  C   UNL     1       1.308   7.549  20.272  0.00  0.00    +0.000 C 
ATOM     22  C   UNL     1       1.318   8.260  21.675  0.00  0.00    +0.000 C 
ATOM     23  C   UNL     1       0.651   9.487  21.059  0.00  0.00    +0.000 C 
ATOM     24  C   UNL     1       1.041   8.959  19.668  0.00  0.00    +0.000 C 
ENDBRANCH  19  21
ENDBRANCH   6  14
BRANCH   1  26
ATOM     25  C   UNL     1       7.689   5.798  19.175  0.00  0.00    +0.000 C 
ATOM     26  O   UNL     1       6.738   4.769  19.335  0.00  0.00    +0.000 OA
ENDBRANCH   1  26
TORSDOF 4
ENDMDL
MODEL 2
REMARK VINA RESULT:      -7.6      3.362      7.842
REMARK  Name = 
REMARK  5 active torsions:
REMARK  status: ('A' for Active; 'I' for Inactive)
REMARK    1  A    between atoms: C_1  and  O_2
REMARK    2  A    between atoms: O_2  and  C_3
REMARK    3  A    between atoms: C_5  and  C_6
REMARK    4  A    between atoms: C_15  and  C_16
REMARK    5  A    between atoms: C_21  and  C_23
REMARK                            x       y       z     vdW  Elec       q    Type
REMARK                         _______ _______ _______ _____ _____    ______ ____
ROOT
ATOM      1  C   UNL     1       3.244   5.363  19.431  0.00  0.00    +0.000 A 
ATOM      2  C   UNL     1       2.204   6.305  19.460  0.00  0.00    +0.000 A 
ATOM      3  C   UNL     1       2.341   7.531  18.821  0.00  0.00    +0.000 A 
ATOM      4  N   UNL     1       3.409   7.774  18.032  0.00  0.00    +0.000 NA
ATOM      5  C   UNL     1       4.403   6.851  18.016  0.00  0.00    +0.000 A 
ATOM      6  C   UNL     1       4.428   5.654  18.741  0.00  0.00    +0.000 A 
ENDROOT
BRANCH   3   7
ATOM      7  C   UNL     1       1.413   8.667  19.032  0.00  0.00    +0.000 A 
ATOM      8  C   UNL     1       0.843   9.395  17.970  0.00  0.00    +0.000 A 
ATOM      9  C   UNL     1      -0.072  10.430  18.199  0.00  0.00    +0.000 A 
ATOM     10  C   UNL     1      -0.434  10.766  19.500  0.00  0.00    +0.000 A 
ATOM     11  C   UNL     1       0.108  10.056  20.566  0.00  0.00    +0.000 A 
ATOM     12 CL   UNL     1      -0.348  10.456  22.177  0.00  0.00    +0.000 Cl
ATOM     13  C   UNL     1       1.013   9.018  20.338  0.00  0.00    +0.000 A 
ENDBRANCH   3   7
BRANCH   6  14
ATOM     14  C   UNL     1       5.704   4.841  18.648  0.00  0.00    +0.000 C 
ATOM     15  C   UNL     1       6.878   5.507  19.376  0.00  0.00    +0.000 C 
ATOM     16  C   UNL     1       8.133   5.013  18.650  0.00  0.00    +0.000 C 
ATOM     17  C   UNL     1       7.673   4.580  17.255  0.00  0.00    +0.000 C 
ATOM     18  N   UNL     1       6.218   4.517  17.302  0.00  0.00    +0.000 N 
ATOM     19  C   UNL     1       5.466   4.091  16.183  0.00  0.00    +0.000 C 
ATOM     20  O   UNL     1       4.240   4.036  16.277  0.00  0.00    +0.000 OA
BRANCH  19  21
ATOM     21  C   UNL     1       6.241   3.764  14.849  0.00  0.00    +0.000 C 
ATOM     22  C   UNL     1       5.394   3.606  13.533  0.00  0.00    +0.000 C 
ATOM     23  C   UNL     1       6.477   4.341  12.747  0.00  0.00    +0.000 C 
ATOM     24  C   UNL     1       7.055   4.847  14.080  0.00  0.00    +0.000 C 
ENDBRANCH  19  21
ENDBRANCH   6  14
BRANCH   1  26
ATOM     25  C   UNL     1       1.922   4.341  21.110  0.00  0.00    +0.000 C 
ATOM     26  O   UNL     1       2.880   4.212  20.083  0.00  0.00    +0.000 OA
ENDBRANCH   1  26
TORSDOF 4
ENDMDL
MODEL 3
REMARK VINA RESULT:      -7.5      3.855      6.739
REMARK  Name = 
REMARK  5 active torsions:
REMARK  status: ('A' for Active; 'I' for Inactive)
REMARK    1  A    between atoms: C_1  and  O_2
REMARK    2  A    between atoms: O_2  and  C_3
REMARK    3  A    between atoms: C_5  and  C_6
REMARK    4  A    between atoms: C_15  and  C_16
REMARK    5  A    between atoms: C_21  and  C_23
REMARK                            x       y       z     vdW  Elec       q    Type
REMARK                         _______ _______ _______ _____ _____    ______ ____
ROOT
ATOM      1  C   UNL     1       1.461   8.817  20.043  0.00  0.00    +0.000 A 
ATOM      2  C   UNL     1       1.969   7.533  19.794  0.00  0.00    +0.000 A 
ATOM      3  C   UNL     1       2.465   7.198  18.540  0.00  0.00    +0.000 A 
ATOM      4  N   UNL     1       2.614   8.144  17.590  0.00  0.00    +0.000 NA
ATOM      5  C   UNL     1       2.119   9.381  17.850  0.00  0.00    +0.000 A 
ATOM      6  C   UNL     1       1.467   9.778  19.023  0.00  0.00    +0.000 A 
ENDROOT
BRANCH   3   7
ATOM      7  C   UNL     1       2.761   5.806  18.127  0.00  0.00    +0.000 A 
ATOM      8  C   UNL     1       3.915   5.453  17.402  0.00  0.00    +0.000 A 
ATOM      9  C   UNL     1       4.194   4.121  17.071  0.00  0.00    +0.000 A 
ATOM     10  C   UNL     1       3.319   3.109  17.455  0.00  0.00    +0.000 A 
ATOM     11  C   UNL     1       2.177   3.431  18.180  0.00  0.00    +0.000 A 
ATOM     12 CL   UNL     1       1.099   2.182  18.670  0.00  0.00    +0.000 Cl
ATOM     13  C   UNL     1       1.903   4.757  18.518  0.00  0.00    +0.000 A 
ENDBRANCH   3   7
BRANCH   6  14
ATOM     14  C   UNL     1       0.898  11.183  19.031  0.00  0.00    +0.000 C 
ATOM     15  C   UNL     1       1.325  11.983  20.268  0.00  0.00    +0.000 C 
ATOM     16  C   UNL     1       0.203  13.000  20.495  0.00  0.00    +0.000 C 
ATOM     17  C   UNL     1      -1.037  12.426  19.803  0.00  0.00    +0.000 C 
ATOM     18  N   UNL     1      -0.570  11.332  18.962  0.00  0.00    +0.000 N 
ATOM     19  C   UNL     1      -1.461  10.613  18.134  0.00  0.00    +0.000 C 
ATOM     20  O   UNL     1      -1.017   9.709  17.427  0.00  0.00    +0.000 OA
BRANCH  19  21
ATOM     21  C   UNL     1      -2.995  10.972  18.205  0.00  0.00    +0.000 C 
ATOM     22  C   UNL     1      -3.642  11.660  16.947  0.00  0.00    +0.000 C 
ATOM     23  C   UNL     1      -4.904  10.821  17.136  0.00  0.00    +0.000 C 
ATOM     24  C   UNL     1      -4.104   9.888  18.062  0.00  0.00    +0.000 C 
ENDBRANCH  19  21
ENDBRANCH   6  14
BRANCH   1  26
ATOM     25  C   UNL     1      -0.306   8.778  21.618  0.00  0.00    +0.000 C 
ATOM     26  O   UNL     1       1.069   8.944  21.351  0.00  0.00    +0.000 OA
ENDBRANCH   1  26
TORSDOF 4
ENDMDL
MODEL 4
REMARK VINA RESULT:      -7.5      4.588      7.500
REMARK  Name = 
REMARK  5 active torsions:
REMARK  status: ('A' for Active; 'I' for Inactive)
REMARK    1  A    between atoms: C_1  and  O_2
REMARK    2  A    between atoms: O_2  and  C_3
REMARK    3  A    between atoms: C_5  and  C_6
REMARK    4  A    between atoms: C_15  and  C_16
REMARK    5  A    between atoms: C_21  and  C_23
REMARK                            x       y       z     vdW  Elec       q    Type
REMARK                         _______ _______ _______ _____ _____    ______ ____
ROOT
ATOM      1  C   UNL     1       1.118   9.284  20.222  0.00  0.00    +0.000 A 
ATOM      2  C   UNL     1       1.484   7.936  20.350  0.00  0.00    +0.000 A 
ATOM      3  C   UNL     1       2.088   7.262  19.296  0.00  0.00    +0.000 A 
ATOM      4  N   UNL     1       2.475   7.932  18.191  0.00  0.00    +0.000 NA
ATOM      5  C   UNL     1       2.113   9.236  18.085  0.00  0.00    +0.000 A 
ATOM      6  C   UNL     1       1.374   9.965  19.024  0.00  0.00    +0.000 A 
ENDROOT
BRANCH   3   7
ATOM      7  C   UNL     1       2.254   5.790  19.259  0.00  0.00    +0.000 A 
ATOM      8  C   UNL     1       2.853   5.116  18.178  0.00  0.00    +0.000 A 
ATOM      9  C   UNL     1       3.043   3.728  18.195  0.00  0.00    +0.000 A 
ATOM     10  C   UNL     1       2.631   2.981  19.294  0.00  0.00    +0.000 A 
ATOM     11  C   UNL     1       2.044   3.624  20.378  0.00  0.00    +0.000 A 
ATOM     12 CL   UNL     1       1.546   2.707  21.747  0.00  0.00    +0.000 Cl
ATOM     13  C   UNL     1       1.863   5.008  20.366  0.00  0.00    +0.000 A 
ENDBRANCH   3   7
BRANCH   6  14
ATOM     14  C   UNL     1       0.993  11.377  18.627  0.00  0.00    +0.000 C 
ATOM     15  C   UNL     1       1.541  12.429  19.600  0.00  0.00    +0.000 C 
ATOM     16  C   UNL     1       0.566  13.605  19.510  0.00  0.00    +0.000 C 
ATOM     17  C   UNL     1      -0.751  13.026  18.982  0.00  0.00    +0.000 C 
ATOM     18  N   UNL     1      -0.444  11.689  18.490  0.00  0.00    +0.000 N 
ATOM     19  C   UNL     1      -1.435  10.889  17.878  0.00  0.00    +0.000 C 
ATOM     20  O   UNL     1      -1.125   9.773  17.462  0.00  0.00    +0.000 OA
BRANCH  19  21
ATOM     21  C   UNL     1      -2.908  11.450  17.815  0.00  0.00    +0.000 C 
ATOM     22  C   UNL     1      -3.621  11.469  16.413  0.00  0.00    +0.000 C 
ATOM     23  C   UNL     1      -4.931  11.042  17.072  0.00  0.00    +0.000 C 
ATOM     24  C   UNL     1      -4.129  10.621  18.316  0.00  0.00    +0.000 C 
ENDBRANCH  19  21
ENDBRANCH   6  14
BRANCH   1  26
ATOM     25  C   UNL     1      -0.373   8.942  22.030  0.00  0.00    +0.000 C 
ATOM     26  O   UNL     1       0.582   9.760  21.392  0.00  0.00    +0.000 OA
ENDBRANCH   1  26
TORSDOF 4
ENDMDL
MODEL 5
REMARK VINA RESULT:      -7.5      1.486      2.155
REMARK  Name = 
REMARK  5 active torsions:
REMARK  status: ('A' for Active; 'I' for Inactive)
REMARK    1  A    between atoms: C_1  and  O_2
REMARK    2  A    between atoms: O_2  and  C_3
REMARK    3  A    between atoms: C_5  and  C_6
REMARK    4  A    between atoms: C_15  and  C_16
REMARK    5  A    between atoms: C_21  and  C_23
REMARK                            x       y       z     vdW  Elec       q    Type
REMARK                         _______ _______ _______ _____ _____    ______ ____
ROOT
ATOM      1  C   UNL     1       3.588   4.080  17.196  0.00  0.00    +0.000 A 
ATOM      2  C   UNL     1       4.249   3.824  15.985  0.00  0.00    +0.000 A 
ATOM      3  C   UNL     1       5.529   4.315  15.758  0.00  0.00    +0.000 A 
ATOM      4  N   UNL     1       6.218   4.909  16.754  0.00  0.00    +0.000 NA
ATOM      5  C   UNL     1       5.563   5.147  17.919  0.00  0.00    +0.000 A 
ATOM      6  C   UNL     1       4.229   4.827  18.194  0.00  0.00    +0.000 A 
ENDROOT
BRANCH   3   7
ATOM      7  C   UNL     1       6.174   4.319  14.424  0.00  0.00    +0.000 A 
ATOM      8  C   UNL     1       7.193   5.223  14.071  0.00  0.00    +0.000 A 
ATOM      9  C   UNL     1       7.821   5.169  12.821  0.00  0.00    +0.000 A 
ATOM     10  C   UNL     1       7.438   4.209  11.889  0.00  0.00    +0.000 A 
ATOM     11  C   UNL     1       6.440   3.298  12.216  0.00  0.00    +0.000 A 
ATOM     12 CL   UNL     1       5.973   2.098  11.074  0.00  0.00    +0.000 Cl
ATOM     13  C   UNL     1       5.821   3.346  13.466  0.00  0.00    +0.000 A 
ENDBRANCH   3   7
BRANCH   6  14
ATOM     14  C   UNL     1       3.688   5.300  19.528  0.00  0.00    +0.000 C 
ATOM     15  C   UNL     1       3.167   4.146  20.394  0.00  0.00    +0.000 C 
ATOM     16  C   UNL     1       2.090   4.767  21.287  0.00  0.00    +0.000 C 
ATOM     17  C   UNL     1       1.623   6.037  20.568  0.00  0.00    +0.000 C 
ATOM     18  N   UNL     1       2.597   6.295  19.515  0.00  0.00    +0.000 N 
ATOM     19  C   UNL     1       2.495   7.436  18.687  0.00  0.00    +0.000 C 
ATOM     20  O   UNL     1       3.351   7.622  17.823  0.00  0.00    +0.000 OA
BRANCH  19  21
ATOM     21  C   UNL     1       1.248   8.384  18.879  0.00  0.00    +0.000 C 
ATOM     22  C   UNL     1       1.263   9.369  20.105  0.00  0.00    +0.000 C 
ATOM     23  C   UNL     1       0.636  10.459  19.238  0.00  0.00    +0.000 C 
ATOM     24  C   UNL     1       1.027   9.646  17.992  0.00  0.00    +0.000 C 
ENDBRANCH  19  21
ENDBRANCH   6  14
BRANCH   1  26
ATOM     25  C   UNL     1       2.323   2.153  17.737  0.00  0.00    +0.000 C 
ATOM     26  O   UNL     1       2.362   3.466  17.225  0.00  0.00    +0.000 OA
ENDBRANCH   1  26
TORSDOF 4
ENDMDL
MODEL 6
REMARK VINA RESULT:      -7.5      4.170      6.779
REMARK  Name = 
REMARK  5 active torsions:
REMARK  status: ('A' for Active; 'I' for Inactive)
REMARK    1  A    between atoms: C_1  and  O_2
REMARK    2  A    between atoms: O_2  and  C_3
REMARK    3  A    between atoms: C_5  and  C_6
REMARK    4  A    between atoms: C_15  and  C_16
REMARK    5  A    between atoms: C_21  and  C_23
REMARK                            x       y       z     vdW  Elec       q    Type
REMARK                         _______ _______ _______ _____ _____    ______ ____
ROOT
ATOM      1  C   UNL     1       8.051   6.160  18.535  0.00  0.00    +0.000 A 
ATOM      2  C   UNL     1       8.501   7.372  19.080  0.00  0.00    +0.000 A 
ATOM      3  C   UNL     1       8.276   8.574  18.420  0.00  0.00    +0.000 A 
ATOM      4  N   UNL     1       7.485   8.614  17.327  0.00  0.00    +0.000 NA
ATOM      5  C   UNL     1       7.057   7.433  16.816  0.00  0.00    +0.000 A 
ATOM      6  C   UNL     1       7.354   6.160  17.319  0.00  0.00    +0.000 A 
ENDROOT
BRANCH   3   7
ATOM      7  C   UNL     1       8.946   9.843  18.788  0.00  0.00    +0.000 A 
ATOM      8  C   UNL     1       9.140  10.246  20.122  0.00  0.00    +0.000 A 
ATOM      9  C   UNL     1       9.824  11.426  20.440  0.00  0.00    +0.000 A 
ATOM     10  C   UNL     1      10.326  12.236  19.426  0.00  0.00    +0.000 A 
ATOM     11  C   UNL     1      10.155  11.856  18.099  0.00  0.00    +0.000 A 
ATOM     12 CL   UNL     1      10.788  12.845  16.841  0.00  0.00    +0.000 Cl
ATOM     13  C   UNL     1       9.482  10.675  17.782  0.00  0.00    +0.000 A 
ENDBRANCH   3   7
BRANCH   6  14
ATOM     14  C   UNL     1       6.856   4.984  16.503  0.00  0.00    +0.000 C 
ATOM     15  C   UNL     1       7.227   5.100  15.019  0.00  0.00    +0.000 C 
ATOM     16  C   UNL     1       6.143   4.318  14.272  0.00  0.00    +0.000 C 
ATOM     17  C   UNL     1       4.932   4.271  15.209  0.00  0.00    +0.000 C 
ATOM     18  N   UNL     1       5.407   4.700  16.518  0.00  0.00    +0.000 N 
ATOM     19  C   UNL     1       4.547   4.719  17.639  0.00  0.00    +0.000 C 
ATOM     20  O   UNL     1       4.998   5.072  18.728  0.00  0.00    +0.000 OA
BRANCH  19  21
ATOM     21  C   UNL     1       3.031   4.341  17.419  0.00  0.00    +0.000 C 
ATOM     22  C   UNL     1       2.607   2.849  17.679  0.00  0.00    +0.000 C 
ATOM     23  C   UNL     1       1.306   3.329  18.320  0.00  0.00    +0.000 C 
ATOM     24  C   UNL     1       1.926   4.732  18.445  0.00  0.00    +0.000 C 
ENDBRANCH  19  21
ENDBRANCH   6  14
BRANCH   1  26
ATOM     25  C   UNL     1       8.176   5.336  20.751  0.00  0.00    +0.000 C 
ATOM     26  O   UNL     1       8.339   5.110  19.368  0.00  0.00    +0.000 OA
ENDBRANCH   1  26
TORSDOF 4
ENDMDL
MODEL 7
REMARK VINA RESULT:      -7.4      3.688      6.719
REMARK  Name = 
REMARK  5 active torsions:
REMARK  status: ('A' for Active; 'I' for Inactive)
REMARK    1  A    between atoms: C_1  and  O_2
REMARK    2  A    between atoms: O_2  and  C_3
REMARK    3  A    between atoms: C_5  and  C_6
REMARK    4  A    between atoms: C_15  and  C_16
REMARK    5  A    between atoms: C_21  and  C_23
REMARK                            x       y       z     vdW  Elec       q    Type
REMARK                         _______ _______ _______ _____ _____    ______ ____
ROOT
ATOM      1  C   UNL     1       1.378   8.938  20.024  0.00  0.00    +0.000 A 
ATOM      2  C   UNL     1       1.897   7.653  19.795  0.00  0.00    +0.000 A 
ATOM      3  C   UNL     1       2.451   7.321  18.566  0.00  0.00    +0.000 A 
ATOM      4  N   UNL     1       2.643   8.268  17.625  0.00  0.00    +0.000 NA
ATOM      5  C   UNL     1       2.137   9.505  17.864  0.00  0.00    +0.000 A 
ATOM      6  C   UNL     1       1.431   9.900  19.006  0.00  0.00    +0.000 A 
ENDROOT
BRANCH   3   7
ATOM      7  C   UNL     1       2.765   5.929  18.165  0.00  0.00    +0.000 A 
ATOM      8  C   UNL     1       1.902   4.847  18.420  0.00  0.00    +0.000 A 
ATOM      9  C   UNL     1       2.202   3.551  17.982  0.00  0.00    +0.000 A 
ATOM     10  C   UNL     1       3.381   3.307  17.283  0.00  0.00    +0.000 A 
ATOM     11  C   UNL     1       4.246   4.360  17.011  0.00  0.00    +0.000 A 
ATOM     12 CL   UNL     1       5.697   4.067  16.132  0.00  0.00    +0.000 Cl
ATOM     13  C   UNL     1       3.942   5.654  17.438  0.00  0.00    +0.000 A 
ENDBRANCH   3   7
BRANCH   6  14
ATOM     14  C   UNL     1       0.863  11.305  18.990  0.00  0.00    +0.000 C 
ATOM     15  C   UNL     1       1.289  12.125  20.214  0.00  0.00    +0.000 C 
ATOM     16  C   UNL     1       0.168  13.146  20.423  0.00  0.00    +0.000 C 
ATOM     17  C   UNL     1      -1.072  12.561  19.740  0.00  0.00    +0.000 C 
ATOM     18  N   UNL     1      -0.605  11.453  18.917  0.00  0.00    +0.000 N 
ATOM     19  C   UNL     1      -1.495  10.721  18.100  0.00  0.00    +0.000 C 
ATOM     20  O   UNL     1      -1.051   9.805  17.409  0.00  0.00    +0.000 OA
BRANCH  19  21
ATOM     21  C   UNL     1      -3.029  11.082  18.163  0.00  0.00    +0.000 C 
ATOM     22  C   UNL     1      -3.711  11.603  16.845  0.00  0.00    +0.000 C 
ATOM     23  C   UNL     1      -4.963  10.792  17.170  0.00  0.00    +0.000 C 
ATOM     24  C   UNL     1      -4.135   9.985  18.186  0.00  0.00    +0.000 C 
ENDBRANCH  19  21
ENDBRANCH   6  14
BRANCH   1  26
ATOM     25  C   UNL     1      -0.375   8.583  21.575  0.00  0.00    +0.000 C 
ATOM     26  O   UNL     1       0.925   9.062  21.312  0.00  0.00    +0.000 OA
ENDBRANCH   1  26
TORSDOF 4
ENDMDL
MODEL 8
REMARK VINA RESULT:      -7.4      1.098      1.446
REMARK  Name = 
REMARK  5 active torsions:
REMARK  status: ('A' for Active; 'I' for Inactive)
REMARK    1  A    between atoms: C_1  and  O_2
REMARK    2  A    between atoms: O_2  and  C_3
REMARK    3  A    between atoms: C_5  and  C_6
REMARK    4  A    between atoms: C_15  and  C_16
REMARK    5  A    between atoms: C_21  and  C_23
REMARK                            x       y       z     vdW  Elec       q    Type
REMARK                         _______ _______ _______ _____ _____    ______ ____
ROOT
ATOM      1  C   UNL     1       5.552   4.794  18.441  0.00  0.00    +0.000 A 
ATOM      2  C   UNL     1       6.154   4.868  17.175  0.00  0.00    +0.000 A 
ATOM      3  C   UNL     1       5.416   4.620  16.024  0.00  0.00    +0.000 A 
ATOM      4  N   UNL     1       4.079   4.460  16.092  0.00  0.00    +0.000 NA
ATOM      5  C   UNL     1       3.514   4.393  17.324  0.00  0.00    +0.000 A 
ATOM      6  C   UNL     1       4.190   4.480  18.546  0.00  0.00    +0.000 A 
ENDROOT
BRANCH   3   7
ATOM      7  C   UNL     1       6.032   4.414  14.692  0.00  0.00    +0.000 A 
ATOM      8  C   UNL     1       5.524   3.502  13.748  0.00  0.00    +0.000 A 
ATOM      9  C   UNL     1       6.096   3.367  12.477  0.00  0.00    +0.000 A 
ATOM     10  C   UNL     1       7.197   4.140  12.122  0.00  0.00    +0.000 A 
ATOM     11  C   UNL     1       7.713   5.055  13.033  0.00  0.00    +0.000 A 
ATOM     12 CL   UNL     1       9.065   6.026  12.594  0.00  0.00    +0.000 Cl
ATOM     13  C   UNL     1       7.137   5.197  14.297  0.00  0.00    +0.000 A 
ENDBRANCH   3   7
BRANCH   6  14
ATOM     14  C   UNL     1       3.355   4.258  19.791  0.00  0.00    +0.000 C 
ATOM     15  C   UNL     1       2.634   2.904  19.781  0.00  0.00    +0.000 C 
ATOM     16  C   UNL     1       1.384   3.108  20.640  0.00  0.00    +0.000 C 
ATOM     17  C   UNL     1       1.111   4.616  20.642  0.00  0.00    +0.000 C 
ATOM     18  N   UNL     1       2.308   5.251  20.104  0.00  0.00    +0.000 N 
ATOM     19  C   UNL     1       2.414   6.657  20.018  0.00  0.00    +0.000 C 
ATOM     20  O   UNL     1       3.452   7.149  19.574  0.00  0.00    +0.000 OA
BRANCH  19  21
ATOM     21  C   UNL     1       1.167   7.525  20.444  0.00  0.00    +0.000 C 
ATOM     22  C   UNL     1       1.250   8.298  21.811  0.00  0.00    +0.000 C 
ATOM     23  C   UNL     1       0.544   9.495  21.178  0.00  0.00    +0.000 C 
ATOM     24  C   UNL     1       0.862   8.906  19.792  0.00  0.00    +0.000 C 
ENDBRANCH  19  21
ENDBRANCH   6  14
BRANCH   1  26
ATOM     25  C   UNL     1       7.680   5.661  19.013  0.00  0.00    +0.000 C 
ATOM     26  O   UNL     1       6.446   5.118  19.429  0.00  0.00    +0.000 OA
ENDBRANCH   1  26
TORSDOF 4
ENDMDL
MODEL 9
REMARK VINA RESULT:      -7.4      4.445      7.457
REMARK  Name = 
REMARK  5 active torsions:
REMARK  status: ('A' for Active; 'I' for Inactive)
REMARK    1  A    between atoms: C_1  and  O_2
REMARK    2  A    between atoms: O_2  and  C_3
REMARK    3  A    between atoms: C_5  and  C_6
REMARK    4  A    between atoms: C_15  and  C_16
REMARK    5  A    between atoms: C_21  and  C_23
REMARK                            x       y       z     vdW  Elec       q    Type
REMARK                         _______ _______ _______ _____ _____    ______ ____
ROOT
ATOM      1  C   UNL     1       1.088   9.385  20.355  0.00  0.00    +0.000 A 
ATOM      2  C   UNL     1       1.422   8.048  20.620  0.00  0.00    +0.000 A 
ATOM      3  C   UNL     1       2.038   7.265  19.651  0.00  0.00    +0.000 A 
ATOM      4  N   UNL     1       2.467   7.819  18.498  0.00  0.00    +0.000 NA
ATOM      5  C   UNL     1       2.136   9.113  18.260  0.00  0.00    +0.000 A 
ATOM      6  C   UNL     1       1.389   9.942  19.105  0.00  0.00    +0.000 A 
ENDROOT
BRANCH   3   7
ATOM      7  C   UNL     1       2.173   5.794  19.759  0.00  0.00    +0.000 A 
ATOM      8  C   UNL     1       1.576   5.045  20.791  0.00  0.00    +0.000 A 
ATOM      9  C   UNL     1       1.678   3.649  20.837  0.00  0.00    +0.000 A 
ATOM     10  C   UNL     1       2.386   2.968  19.851  0.00  0.00    +0.000 A 
ATOM     11  C   UNL     1       2.977   3.684  18.815  0.00  0.00    +0.000 A 
ATOM     12 CL   UNL     1       3.841   2.846  17.584  0.00  0.00    +0.000 Cl
ATOM     13  C   UNL     1       2.868   5.074  18.764  0.00  0.00    +0.000 A 
ENDBRANCH   3   7
BRANCH   6  14
ATOM     14  C   UNL     1       1.048  11.317  18.565  0.00  0.00    +0.000 C 
ATOM     15  C   UNL     1       1.645  12.446  19.415  0.00  0.00    +0.000 C 
ATOM     16  C   UNL     1       0.707  13.639  19.213  0.00  0.00    +0.000 C 
ATOM     17  C   UNL     1      -0.635  13.053  18.763  0.00  0.00    +0.000 C 
ATOM     18  N   UNL     1      -0.379  11.662  18.412  0.00  0.00    +0.000 N 
ATOM     19  C   UNL     1      -1.405  10.836  17.898  0.00  0.00    +0.000 C 
ATOM     20  O   UNL     1      -1.137   9.673  17.598  0.00  0.00    +0.000 OA
BRANCH  19  21
ATOM     21  C   UNL     1      -2.859  11.437  17.792  0.00  0.00    +0.000 C 
ATOM     22  C   UNL     1      -3.530  11.476  16.370  0.00  0.00    +0.000 C 
ATOM     23  C   UNL     1      -4.870  11.085  16.989  0.00  0.00    +0.000 C 
ATOM     24  C   UNL     1      -4.116  10.641  18.256  0.00  0.00    +0.000 C 
ENDBRANCH  19  21
ENDBRANCH   6  14
BRANCH   1  26
ATOM     25  C   UNL     1      -0.306   9.176  22.257  0.00  0.00    +0.000 C 
ATOM     26  O   UNL     1       0.533   9.980  21.459  0.00  0.00    +0.000 OA
ENDBRANCH   1  26
TORSDOF 4
ENDMDL
