MODEL 1
REMARK VINA RESULT:      -8.0      0.000      0.000
REMARK  Name = 
REMARK  13 active torsions:
REMARK  status: ('A' for Active; 'I' for Inactive)
REMARK    1  A    between atoms: C_1  and  O_2
REMARK    2  A    between atoms: O_2  and  C_3
REMARK    3  A    between atoms: C_8  and  C_9
REMARK    4  A    between atoms: C_9  and  N_10
REMARK    5  A    between atoms: C_13  and  C_14
REMARK    6  A    between atoms: C_13  and  C_16
REMARK    7  A    between atoms: C_16  and  N_17
REMARK    8  A    between atoms: C_18  and  C_20
REMARK    9  A    between atoms: C_22  and  C_23
REMARK   10  A    between atoms: C_23  and  C_24
REMARK   11  A    between atoms: C_24  and  C_25
REMARK   12  A    between atoms: C_24  and  C_26
REMARK   13  A    between atoms: N_27  and  C_28
REMARK                            x       y       z     vdW  Elec       q    Type
REMARK                         _______ _______ _______ _____ _____    ______ ____
ROOT
ATOM      1  N   UNL     1       0.462   9.943  18.832  0.00  0.00    +0.000 N 
ATOM      2  C   UNL     1       1.687   9.706  18.215  0.00  0.00    +0.000 C 
ATOM      3  O   UNL     1       2.220  10.548  17.491  0.00  0.00    +0.000 OA
ATOM      4  H   UNL     1       0.148   9.221  19.477  0.00  0.00    +0.000 HD
ENDROOT
BRANCH   2   5
ATOM      5  C   UNL     1       2.322   8.411  18.491  0.00  0.00    +0.000 A 
ATOM      6  C   UNL     1       2.002   7.580  19.593  0.00  0.00    +0.000 A 
ATOM      7  C   UNL     1       2.657   6.391  19.408  0.00  0.00    +0.000 A 
ATOM      8  N   UNL     1       3.477   6.590  18.302  0.00  0.00    +0.000 N 
ATOM      9  N   UNL     1       3.238   7.807  17.711  0.00  0.00    +0.000 NA
BRANCH   8  10
ATOM     10  C   UNL     1       4.528   5.769  17.785  0.00  0.00    +0.000 A 
ATOM     11  C   UNL     1       5.875   5.950  18.134  0.00  0.00    +0.000 A 
ATOM     12  C   UNL     1       6.883   5.182  17.534  0.00  0.00    +0.000 A 
ATOM     13  C   UNL     1       6.555   4.222  16.585  0.00  0.00    +0.000 A 
ATOM     14  C   UNL     1       5.219   4.001  16.256  0.00  0.00    +0.000 A 
ATOM     15  C   UNL     1       4.208   4.753  16.867  0.00  0.00    +0.000 A 
ENDBRANCH   8  10
BRANCH   7  16
ATOM     16  C   UNL     1       2.612   5.125  20.238  0.00  0.00    +0.000 C 
BRANCH  16  17
ATOM     17  C   UNL     1       1.359   4.237  20.098  0.00  0.00    +0.000 C 
ATOM     18  C   UNL     1       1.241   3.615  18.702  0.00  0.00    +0.000 C 
ATOM     19  C   UNL     1       1.407   3.093  21.120  0.00  0.00    +0.000 C 
ENDBRANCH  16  17
ENDBRANCH   7  16
ENDBRANCH   2   5
BRANCH   1  20
ATOM     20  C   UNL     1      -0.198  11.233  18.674  0.00  0.00    +0.000 C 
BRANCH  20  24
ATOM     21  N   UNL     1      -2.809  13.281  21.481  0.00  0.00    +0.000 NA
ATOM     22  C   UNL     1      -1.935  14.119  20.659  0.00  0.00    +0.000 C 
ATOM     23  C   UNL     1      -1.146  13.417  19.545  0.00  0.00    +0.000 C 
ATOM     24  C   UNL     1      -0.434  12.115  19.947  0.00  0.00    +0.000 C 
ATOM     25  C   UNL     1      -1.267  11.281  20.951  0.00  0.00    +0.000 C 
ATOM     26  C   UNL     1      -2.181  12.041  21.919  0.00  0.00    +0.000 C 
BRANCH  24  27
ATOM     27  C   UNL     1       0.872  12.425  20.561  0.00  0.00    +0.000 C 
ATOM     28  N   UNL     1       1.910  12.659  21.043  0.00  0.00    +0.000 NA
ENDBRANCH  24  27
BRANCH  21  29
ATOM     29  C   UNL     1      -4.146  13.188  20.885  0.00  0.00    +0.000 C 
BRANCH  29  35
ATOM     30  C   UNL     1      -6.446  12.260  21.266  0.00  0.00    +0.000 A 
ATOM     31  C   UNL     1      -7.538  11.961  22.080  0.00  0.00    +0.000 A 
ATOM     32  C   UNL     1      -7.523  12.353  23.432  0.00  0.00    +0.000 A 
ATOM     33  C   UNL     1      -6.451  13.082  23.952  0.00  0.00    +0.000 A 
ATOM     34  C   UNL     1      -5.357  13.390  23.132  0.00  0.00    +0.000 A 
ATOM     35  C   UNL     1      -5.333  12.942  21.805  0.00  0.00    +0.000 A 
BRANCH  30  37
ATOM     36  C   UNL     1      -7.089  11.527  18.966  0.00  0.00    +0.000 C 
ATOM     37  O   UNL     1      -6.193  11.795  20.018  0.00  0.00    +0.000 OA
ENDBRANCH  30  37
ENDBRANCH  29  35
ENDBRANCH  21  29
ENDBRANCH  20  24
ENDBRANCH   1  20
TORSDOF 10
ENDMDL
MODEL 2
REMARK VINA RESULT:      -8.0      0.985      1.150
REMARK  Name = 
REMARK  13 active torsions:
REMARK  status: ('A' for Active; 'I' for Inactive)
REMARK    1  A    between atoms: C_1  and  O_2
REMARK    2  A    between atoms: O_2  and  C_3
REMARK    3  A    between atoms: C_8  and  C_9
REMARK    4  A    between atoms: C_9  and  N_10
REMARK    5  A    between atoms: C_13  and  C_14
REMARK    6  A    between atoms: C_13  and  C_16
REMARK    7  A    between atoms: C_16  and  N_17
REMARK    8  A    between atoms: C_18  and  C_20
REMARK    9  A    between atoms: C_22  and  C_23
REMARK   10  A    between atoms: C_23  and  C_24
REMARK   11  A    between atoms: C_24  and  C_25
REMARK   12  A    between atoms: C_24  and  C_26
REMARK   13  A    between atoms: N_27  and  C_28
REMARK                            x       y       z     vdW  Elec       q    Type
REMARK                         _______ _______ _______ _____ _____    ______ ____
ROOT
ATOM      1  N   UNL     1       0.567   9.614  19.124  0.00  0.00    +0.000 N 
ATOM      2  C   UNL     1       1.669   9.368  18.308  0.00  0.00    +0.000 C 
ATOM      3  O   UNL     1       2.023  10.167  17.441  0.00  0.00    +0.000 OA
ATOM      4  H   UNL     1       0.409   8.934  19.865  0.00  0.00    +0.000 HD
ENDROOT
BRANCH   2   5
ATOM      5  C   UNL     1       2.399   8.117  18.551  0.00  0.00    +0.000 A 
ATOM      6  C   UNL     1       2.099   7.202  19.590  0.00  0.00    +0.000 A 
ATOM      7  C   UNL     1       2.863   6.085  19.379  0.00  0.00    +0.000 A 
ATOM      8  N   UNL     1       3.715   6.413  18.331  0.00  0.00    +0.000 N 
ATOM      9  N   UNL     1       3.401   7.637  17.791  0.00  0.00    +0.000 NA
BRANCH   8  10
ATOM     10  C   UNL     1       4.858   5.713  17.829  0.00  0.00    +0.000 A 
ATOM     11  C   UNL     1       6.057   5.602  18.548  0.00  0.00    +0.000 A 
ATOM     12  C   UNL     1       7.182   4.987  17.981  0.00  0.00    +0.000 A 
ATOM     13  C   UNL     1       7.118   4.470  16.693  0.00  0.00    +0.000 A 
ATOM     14  C   UNL     1       5.923   4.535  15.979  0.00  0.00    +0.000 A 
ATOM     15  C   UNL     1       4.791   5.133  16.549  0.00  0.00    +0.000 A 
ENDBRANCH   8  10
BRANCH   7  16
ATOM     16  C   UNL     1       2.887   4.775  20.140  0.00  0.00    +0.000 C 
BRANCH  16  17
ATOM     17  C   UNL     1       2.314   3.535  19.424  0.00  0.00    +0.000 C 
ATOM     18  C   UNL     1       1.519   3.905  18.166  0.00  0.00    +0.000 C 
ATOM     19  C   UNL     1       3.453   2.598  19.001  0.00  0.00    +0.000 C 
ENDBRANCH  16  17
ENDBRANCH   7  16
ENDBRANCH   2   5
BRANCH   1  20
ATOM     20  C   UNL     1      -0.166  10.868  19.003  0.00  0.00    +0.000 C 
BRANCH  20  24
ATOM     21  N   UNL     1      -2.407  12.853  22.154  0.00  0.00    +0.000 NA
ATOM     22  C   UNL     1      -1.794  13.710  21.136  0.00  0.00    +0.000 C 
ATOM     23  C   UNL     1      -1.159  13.009  19.928  0.00  0.00    +0.000 C 
ATOM     24  C   UNL     1      -0.251  11.811  20.252  0.00  0.00    +0.000 C 
ATOM     25  C   UNL     1      -0.790  10.973  21.437  0.00  0.00    +0.000 C 
ATOM     26  C   UNL     1      -1.581  11.711  22.524  0.00  0.00    +0.000 C 
BRANCH  24  27
ATOM     27  C   UNL     1       1.107  12.282  20.585  0.00  0.00    +0.000 C 
ATOM     28  N   UNL     1       2.182  12.661  20.839  0.00  0.00    +0.000 NA
ENDBRANCH  24  27
BRANCH  21  29
ATOM     29  C   UNL     1      -3.815  12.595  21.832  0.00  0.00    +0.000 C 
BRANCH  29  35
ATOM     30  C   UNL     1      -6.225  13.032  22.376  0.00  0.00    +0.000 A 
ATOM     31  C   UNL     1      -7.236  13.739  23.025  0.00  0.00    +0.000 A 
ATOM     32  C   UNL     1      -6.905  14.862  23.806  0.00  0.00    +0.000 A 
ATOM     33  C   UNL     1      -5.583  15.304  23.896  0.00  0.00    +0.000 A 
ATOM     34  C   UNL     1      -4.568  14.599  23.236  0.00  0.00    +0.000 A 
ATOM     35  C   UNL     1      -4.880  13.439  22.515  0.00  0.00    +0.000 A 
BRANCH  30  37
ATOM     36  C   UNL     1      -7.142  11.442  20.680  0.00  0.00    +0.000 C 
ATOM     37  O   UNL     1      -6.323  11.829  21.758  0.00  0.00    +0.000 OA
ENDBRANCH  30  37
ENDBRANCH  29  35
ENDBRANCH  21  29
ENDBRANCH  20  24
ENDBRANCH   1  20
TORSDOF 10
ENDMDL
MODEL 3
REMARK VINA RESULT:      -7.8      0.917      2.789
REMARK  Name = 
REMARK  13 active torsions:
REMARK  status: ('A' for Active; 'I' for Inactive)
REMARK    1  A    between atoms: C_1  and  O_2
REMARK    2  A    between atoms: O_2  and  C_3
REMARK    3  A    between atoms: C_8  and  C_9
REMARK    4  A    between atoms: C_9  and  N_10
REMARK    5  A    between atoms: C_13  and  C_14
REMARK    6  A    between atoms: C_13  and  C_16
REMARK    7  A    between atoms: C_16  and  N_17
REMARK    8  A    between atoms: C_18  and  C_20
REMARK    9  A    between atoms: C_22  and  C_23
REMARK   10  A    between atoms: C_23  and  C_24
REMARK   11  A    between atoms: C_24  and  C_25
REMARK   12  A    between atoms: C_24  and  C_26
REMARK   13  A    between atoms: N_27  and  C_28
REMARK                            x       y       z     vdW  Elec       q    Type
REMARK                         _______ _______ _______ _____ _____    ______ ____
ROOT
ATOM      1  N   UNL     1       0.548  10.343  18.408  0.00  0.00    +0.000 N 
ATOM      2  C   UNL     1       1.848  10.089  17.976  0.00  0.00    +0.000 C 
ATOM      3  O   UNL     1       2.588  10.993  17.586  0.00  0.00    +0.000 OA
ATOM      4  H   UNL     1       0.049   9.542  18.790  0.00  0.00    +0.000 HD
ENDROOT
BRANCH   2   5
ATOM      5  C   UNL     1       2.297   8.692  18.032  0.00  0.00    +0.000 A 
ATOM      6  C   UNL     1       3.480   8.206  17.422  0.00  0.00    +0.000 A 
ATOM      7  C   UNL     1       3.655   6.916  17.850  0.00  0.00    +0.000 A 
ATOM      8  N   UNL     1       2.503   6.604  18.563  0.00  0.00    +0.000 N 
ATOM      9  N   UNL     1       1.693   7.704  18.716  0.00  0.00    +0.000 NA
BRANCH   8  10
ATOM     10  C   UNL     1       2.047   5.340  19.055  0.00  0.00    +0.000 A 
ATOM     11  C   UNL     1       1.619   4.305  18.210  0.00  0.00    +0.000 A 
ATOM     12  C   UNL     1       1.095   3.117  18.736  0.00  0.00    +0.000 A 
ATOM     13  C   UNL     1       0.998   2.947  20.112  0.00  0.00    +0.000 A 
ATOM     14  C   UNL     1       1.456   3.948  20.967  0.00  0.00    +0.000 A 
ATOM     15  C   UNL     1       1.998   5.130  20.444  0.00  0.00    +0.000 A 
ENDBRANCH   8  10
BRANCH   7  16
ATOM     16  C   UNL     1       4.791   5.953  17.571  0.00  0.00    +0.000 C 
BRANCH  16  17
ATOM     17  C   UNL     1       5.567   5.410  18.787  0.00  0.00    +0.000 C 
ATOM     18  C   UNL     1       5.298   3.921  19.032  0.00  0.00    +0.000 C 
ATOM     19  C   UNL     1       7.076   5.586  18.570  0.00  0.00    +0.000 C 
ENDBRANCH  16  17
ENDBRANCH   7  16
ENDBRANCH   2   5
BRANCH   1  20
ATOM     20  C   UNL     1       0.050  11.711  18.460  0.00  0.00    +0.000 C 
BRANCH  20  24
ATOM     21  N   UNL     1      -2.695  13.115  21.524  0.00  0.00    +0.000 NA
ATOM     22  C   UNL     1      -1.857  14.124  20.874  0.00  0.00    +0.000 C 
ATOM     23  C   UNL     1      -1.020  13.664  19.672  0.00  0.00    +0.000 C 
ATOM     24  C   UNL     1      -0.246  12.349  19.861  0.00  0.00    +0.000 C 
ATOM     25  C   UNL     1      -1.045  11.314  20.690  0.00  0.00    +0.000 C 
ATOM     26  C   UNL     1      -2.007  11.851  21.756  0.00  0.00    +0.000 C 
BRANCH  24  27
ATOM     27  C   UNL     1       1.036  12.613  20.543  0.00  0.00    +0.000 C 
ATOM     28  N   UNL     1       2.049  12.833  21.082  0.00  0.00    +0.000 NA
ENDBRANCH  24  27
BRANCH  21  29
ATOM     29  C   UNL     1      -4.019  13.059  20.895  0.00  0.00    +0.000 C 
BRANCH  29  35
ATOM     30  C   UNL     1      -6.370  12.238  21.202  0.00  0.00    +0.000 A 
ATOM     31  C   UNL     1      -7.491  11.968  21.985  0.00  0.00    +0.000 A 
ATOM     32  C   UNL     1      -7.483  12.312  23.350  0.00  0.00    +0.000 A 
ATOM     33  C   UNL     1      -6.386  12.967  23.914  0.00  0.00    +0.000 A 
ATOM     34  C   UNL     1      -5.262  13.247  23.125  0.00  0.00    +0.000 A 
ATOM     35  C   UNL     1      -5.234  12.843  21.784  0.00  0.00    +0.000 A 
BRANCH  30  37
ATOM     36  C   UNL     1      -6.922  11.032  19.085  0.00  0.00    +0.000 C 
ATOM     37  O   UNL     1      -6.116  11.803  19.943  0.00  0.00    +0.000 OA
ENDBRANCH  30  37
ENDBRANCH  29  35
ENDBRANCH  21  29
ENDBRANCH  20  24
ENDBRANCH   1  20
TORSDOF 10
ENDMDL
MODEL 4
REMARK VINA RESULT:      -7.8      3.370      5.999
REMARK  Name = 
REMARK  13 active torsions:
REMARK  status: ('A' for Active; 'I' for Inactive)
REMARK    1  A    between atoms: C_1  and  O_2
REMARK    2  A    between atoms: O_2  and  C_3
REMARK    3  A    between atoms: C_8  and  C_9
REMARK    4  A    between atoms: C_9  and  N_10
REMARK    5  A    between atoms: C_13  and  C_14
REMARK    6  A    between atoms: C_13  and  C_16
REMARK    7  A    between atoms: C_16  and  N_17
REMARK    8  A    between atoms: C_18  and  C_20
REMARK    9  A    between atoms: C_22  and  C_23
REMARK   10  A    between atoms: C_23  and  C_24
REMARK   11  A    between atoms: C_24  and  C_25
REMARK   12  A    between atoms: C_24  and  C_26
REMARK   13  A    between atoms: N_27  and  C_28
REMARK                            x       y       z     vdW  Elec       q    Type
REMARK                         _______ _______ _______ _____ _____    ______ ____
ROOT
ATOM      1  N   UNL     1       0.622   9.555  19.411  0.00  0.00    +0.000 N 
ATOM      2  C   UNL     1       1.590   9.250  18.457  0.00  0.00    +0.000 C 
ATOM      3  O   UNL     1       1.806   9.990  17.496  0.00  0.00    +0.000 OA
ATOM      4  H   UNL     1       0.581   8.925  20.210  0.00  0.00    +0.000 HD
ENDROOT
BRANCH   2   5
ATOM      5  C   UNL     1       2.356   8.016  18.669  0.00  0.00    +0.000 A 
ATOM      6  C   UNL     1       2.125   7.100  19.725  0.00  0.00    +0.000 A 
ATOM      7  C   UNL     1       2.900   5.997  19.481  0.00  0.00    +0.000 A 
ATOM      8  N   UNL     1       3.693   6.336  18.392  0.00  0.00    +0.000 N 
ATOM      9  N   UNL     1       3.329   7.551  17.863  0.00  0.00    +0.000 NA
BRANCH   8  10
ATOM     10  C   UNL     1       4.824   5.656  17.838  0.00  0.00    +0.000 A 
ATOM     11  C   UNL     1       6.133   5.860  18.298  0.00  0.00    +0.000 A 
ATOM     12  C   UNL     1       7.222   5.243  17.667  0.00  0.00    +0.000 A 
ATOM     13  C   UNL     1       7.014   4.411  16.574  0.00  0.00    +0.000 A 
ATOM     14  C   UNL     1       5.716   4.165  16.128  0.00  0.00    +0.000 A 
ATOM     15  C   UNL     1       4.624   4.766  16.768  0.00  0.00    +0.000 A 
ENDBRANCH   8  10
BRANCH   7  16
ATOM     16  C   UNL     1       2.986   4.691  20.245  0.00  0.00    +0.000 C 
BRANCH  16  17
ATOM     17  C   UNL     1       1.656   4.008  20.622  0.00  0.00    +0.000 C 
ATOM     18  C   UNL     1       0.985   3.336  19.419  0.00  0.00    +0.000 C 
ATOM     19  C   UNL     1       1.901   2.930  21.686  0.00  0.00    +0.000 C 
ENDBRANCH  16  17
ENDBRANCH   7  16
ENDBRANCH   2   5
BRANCH   1  20
ATOM     20  C   UNL     1      -0.128  10.801  19.319  0.00  0.00    +0.000 C 
BRANCH  20  24
ATOM     21  N   UNL     1       1.100  14.854  20.296  0.00  0.00    +0.000 NA
ATOM     22  C   UNL     1       1.987  13.771  20.728  0.00  0.00    +0.000 C 
ATOM     23  C   UNL     1       1.652  12.359  20.230  0.00  0.00    +0.000 C 
ATOM     24  C   UNL     1       0.178  11.939  20.352  0.00  0.00    +0.000 C 
ATOM     25  C   UNL     1      -0.789  13.112  20.060  0.00  0.00    +0.000 C 
ATOM     26  C   UNL     1      -0.315  14.526  20.414  0.00  0.00    +0.000 C 
BRANCH  24  27
ATOM     27  C   UNL     1      -0.091  11.432  21.711  0.00  0.00    +0.000 C 
ATOM     28  N   UNL     1      -0.299  11.021  22.785  0.00  0.00    +0.000 NA
ENDBRANCH  24  27
BRANCH  21  29
ATOM     29  C   UNL     1       1.560  15.423  19.025  0.00  0.00    +0.000 C 
BRANCH  29  35
ATOM     30  C   UNL     1       3.692  16.698  19.381  0.00  0.00    +0.000 A 
ATOM     31  C   UNL     1       5.070  16.859  19.251  0.00  0.00    +0.000 A 
ATOM     32  C   UNL     1       5.816  15.906  18.532  0.00  0.00    +0.000 A 
ATOM     33  C   UNL     1       5.182  14.830  17.905  0.00  0.00    +0.000 A 
ATOM     34  C   UNL     1       3.795  14.673  18.028  0.00  0.00    +0.000 A 
ATOM     35  C   UNL     1       3.057  15.577  18.801  0.00  0.00    +0.000 A 
BRANCH  30  37
ATOM     36  C   UNL     1       3.134  18.432  21.091  0.00  0.00    +0.000 C 
ATOM     37  O   UNL     1       2.851  17.386  20.191  0.00  0.00    +0.000 OA
ENDBRANCH  30  37
ENDBRANCH  29  35
ENDBRANCH  21  29
ENDBRANCH  20  24
ENDBRANCH   1  20
TORSDOF 10
ENDMDL
MODEL 5
REMARK VINA RESULT:      -7.7      3.309      5.933
REMARK  Name = 
REMARK  13 active torsions:
REMARK  status: ('A' for Active; 'I' for Inactive)
REMARK    1  A    between atoms: C_1  and  O_2
REMARK    2  A    between atoms: O_2  and  C_3
REMARK    3  A    between atoms: C_8  and  C_9
REMARK    4  A    between atoms: C_9  and  N_10
REMARK    5  A    between atoms: C_13  and  C_14
REMARK    6  A    between atoms: C_13  and  C_16
REMARK    7  A    between atoms: C_16  and  N_17
REMARK    8  A    between atoms: C_18  and  C_20
REMARK    9  A    between atoms: C_22  and  C_23
REMARK   10  A    between atoms: C_23  and  C_24
REMARK   11  A    between atoms: C_24  and  C_25
REMARK   12  A    between atoms: C_24  and  C_26
REMARK   13  A    between atoms: N_27  and  C_28
REMARK                            x       y       z     vdW  Elec       q    Type
REMARK                         _______ _______ _______ _____ _____    ______ ____
ROOT
ATOM      1  N   UNL     1       0.615   9.487  19.394  0.00  0.00    +0.000 N 
ATOM      2  C   UNL     1       1.575   9.259  18.411  0.00  0.00    +0.000 C 
ATOM      3  O   UNL     1       1.753  10.052  17.485  0.00  0.00    +0.000 OA
ATOM      4  H   UNL     1       0.606   8.817  20.161  0.00  0.00    +0.000 HD
ENDROOT
BRANCH   2   5
ATOM      5  C   UNL     1       2.379   8.038  18.548  0.00  0.00    +0.000 A 
ATOM      6  C   UNL     1       2.216   7.082  19.580  0.00  0.00    +0.000 A 
ATOM      7  C   UNL     1       3.006   6.008  19.266  0.00  0.00    +0.000 A 
ATOM      8  N   UNL     1       3.744   6.404  18.157  0.00  0.00    +0.000 N 
ATOM      9  N   UNL     1       3.328   7.627  17.687  0.00  0.00    +0.000 NA
BRANCH   8  10
ATOM     10  C   UNL     1       4.867   5.773  17.533  0.00  0.00    +0.000 A 
ATOM     11  C   UNL     1       4.732   4.734  16.600  0.00  0.00    +0.000 A 
ATOM     12  C   UNL     1       5.860   4.083  16.081  0.00  0.00    +0.000 A 
ATOM     13  C   UNL     1       7.133   4.465  16.485  0.00  0.00    +0.000 A 
ATOM     14  C   UNL     1       7.286   5.522  17.381  0.00  0.00    +0.000 A 
ATOM     15  C   UNL     1       6.163   6.188  17.887  0.00  0.00    +0.000 A 
ENDBRANCH   8  10
BRANCH   7  16
ATOM     16  C   UNL     1       3.157   4.680  19.980  0.00  0.00    +0.000 C 
BRANCH  16  17
ATOM     17  C   UNL     1       2.164   3.563  19.603  0.00  0.00    +0.000 C 
ATOM     18  C   UNL     1       1.062   3.384  20.654  0.00  0.00    +0.000 C 
ATOM     19  C   UNL     1       1.489   3.887  18.264  0.00  0.00    +0.000 C 
ENDBRANCH  16  17
ENDBRANCH   7  16
ENDBRANCH   2   5
BRANCH   1  20
ATOM     20  C   UNL     1      -0.171  10.713  19.377  0.00  0.00    +0.000 C 
BRANCH  20  24
ATOM     21  N   UNL     1       0.909  14.766  20.519  0.00  0.00    +0.000 NA
ATOM     22  C   UNL     1       1.862  13.706  20.856  0.00  0.00    +0.000 C 
ATOM     23  C   UNL     1       1.572  12.307  20.298  0.00  0.00    +0.000 C 
ATOM     24  C   UNL     1       0.126  11.810  20.456  0.00  0.00    +0.000 C 
ATOM     25  C   UNL     1      -0.906  12.949  20.267  0.00  0.00    +0.000 C 
ATOM     26  C   UNL     1      -0.483  14.364  20.676  0.00  0.00    +0.000 C 
BRANCH  24  27
ATOM     27  C   UNL     1      -0.061  11.221  21.796  0.00  0.00    +0.000 C 
ATOM     28  N   UNL     1      -0.216  10.749  22.854  0.00  0.00    +0.000 NA
ENDBRANCH  24  27
BRANCH  21  29
ATOM     29  C   UNL     1       1.287  15.421  19.263  0.00  0.00    +0.000 C 
BRANCH  29  35
ATOM     30  C   UNL     1       3.424  16.710  19.526  0.00  0.00    +0.000 A 
ATOM     31  C   UNL     1       4.791  16.890  19.321  0.00  0.00    +0.000 A 
ATOM     32  C   UNL     1       5.502  15.963  18.535  0.00  0.00    +0.000 A 
ATOM     33  C   UNL     1       4.843  14.896  17.918  0.00  0.00    +0.000 A 
ATOM     34  C   UNL     1       3.467  14.721  18.118  0.00  0.00    +0.000 A 
ATOM     35  C   UNL     1       2.766  15.597  18.955  0.00  0.00    +0.000 A 
BRANCH  30  37
ATOM     36  C   UNL     1       2.864  17.707  21.747  0.00  0.00    +0.000 C 
ATOM     37  O   UNL     1       2.625  17.368  20.402  0.00  0.00    +0.000 OA
ENDBRANCH  30  37
ENDBRANCH  29  35
ENDBRANCH  21  29
ENDBRANCH  20  24
ENDBRANCH   1  20
TORSDOF 10
ENDMDL
MODEL 6
REMARK VINA RESULT:      -7.7      2.355      4.317
REMARK  Name = 
REMARK  13 active torsions:
REMARK  status: ('A' for Active; 'I' for Inactive)
REMARK    1  A    between atoms: C_1  and  O_2
REMARK    2  A    between atoms: O_2  and  C_3
REMARK    3  A    between atoms: C_8  and  C_9
REMARK    4  A    between atoms: C_9  and  N_10
REMARK    5  A    between atoms: C_13  and  C_14
REMARK    6  A    between atoms: C_13  and  C_16
REMARK    7  A    between atoms: C_16  and  N_17
REMARK    8  A    between atoms: C_18  and  C_20
REMARK    9  A    between atoms: C_22  and  C_23
REMARK   10  A    between atoms: C_23  and  C_24
REMARK   11  A    between atoms: C_24  and  C_25
REMARK   12  A    between atoms: C_24  and  C_26
REMARK   13  A    between atoms: N_27  and  C_28
REMARK                            x       y       z     vdW  Elec       q    Type
REMARK                         _______ _______ _______ _____ _____    ______ ____
ROOT
ATOM      1  N   UNL     1       0.037   9.727  21.355  0.00  0.00    +0.000 N 
ATOM      2  C   UNL     1       1.206   9.028  21.644  0.00  0.00    +0.000 C 
ATOM      3  O   UNL     1       1.867   9.265  22.656  0.00  0.00    +0.000 OA
ATOM      4  H   UNL     1      -0.481   9.398  20.541  0.00  0.00    +0.000 HD
ENDROOT
BRANCH   2   5
ATOM      5  C   UNL     1       1.597   7.980  20.694  0.00  0.00    +0.000 A 
ATOM      6  C   UNL     1       2.083   8.223  19.385  0.00  0.00    +0.000 A 
ATOM      7  C   UNL     1       2.513   7.024  18.883  0.00  0.00    +0.000 A 
ATOM      8  N   UNL     1       2.129   6.072  19.820  0.00  0.00    +0.000 N 
ATOM      9  N   UNL     1       1.612   6.659  20.951  0.00  0.00    +0.000 NA
BRANCH   8  10
ATOM     10  C   UNL     1       2.131   4.644  19.726  0.00  0.00    +0.000 A 
ATOM     11  C   UNL     1       3.186   3.853  20.205  0.00  0.00    +0.000 A 
ATOM     12  C   UNL     1       3.189   2.464  20.011  0.00  0.00    +0.000 A 
ATOM     13  C   UNL     1       2.137   1.852  19.342  0.00  0.00    +0.000 A 
ATOM     14  C   UNL     1       1.062   2.617  18.896  0.00  0.00    +0.000 A 
ATOM     15  C   UNL     1       1.046   4.003  19.104  0.00  0.00    +0.000 A 
ENDBRANCH   8  10
BRANCH   7  16
ATOM     16  C   UNL     1       3.189   6.718  17.562  0.00  0.00    +0.000 C 
BRANCH  16  17
ATOM     17  C   UNL     1       4.612   6.127  17.620  0.00  0.00    +0.000 C 
ATOM     18  C   UNL     1       4.695   4.742  16.969  0.00  0.00    +0.000 C 
ATOM     19  C   UNL     1       5.596   7.050  16.889  0.00  0.00    +0.000 C 
ENDBRANCH  16  17
ENDBRANCH   7  16
ENDBRANCH   2   5
BRANCH   1  20
ATOM     20  C   UNL     1      -0.465  10.730  22.286  0.00  0.00    +0.000 C 
BRANCH  20  24
ATOM     21  N   UNL     1      -3.564  12.758  20.011  0.00  0.00    +0.000 NA
ATOM     22  C   UNL     1      -2.204  12.815  19.473  0.00  0.00    +0.000 C 
ATOM     23  C   UNL     1      -1.143  11.953  20.171  0.00  0.00    +0.000 C 
ATOM     24  C   UNL     1      -1.126  12.027  21.707  0.00  0.00    +0.000 C 
ATOM     25  C   UNL     1      -2.552  12.134  22.301  0.00  0.00    +0.000 C 
ATOM     26  C   UNL     1      -3.617  12.851  21.464  0.00  0.00    +0.000 C 
BRANCH  24  27
ATOM     27  C   UNL     1      -0.342  13.197  22.146  0.00  0.00    +0.000 C 
ATOM     28  N   UNL     1       0.287  14.117  22.497  0.00  0.00    +0.000 NA
ENDBRANCH  24  27
BRANCH  21  29
ATOM     29  C   UNL     1      -4.327  11.679  19.373  0.00  0.00    +0.000 C 
BRANCH  29  35
ATOM     30  C   UNL     1      -4.547  11.632  16.874  0.00  0.00    +0.000 A 
ATOM     31  C   UNL     1      -4.128  11.236  15.605  0.00  0.00    +0.000 A 
ATOM     32  C   UNL     1      -3.030  10.365  15.478  0.00  0.00    +0.000 A 
ATOM     33  C   UNL     1      -2.389   9.854  16.610  0.00  0.00    +0.000 A 
ATOM     34  C   UNL     1      -2.816  10.245  17.886  0.00  0.00    +0.000 A 
ATOM     35  C   UNL     1      -3.862  11.167  18.019  0.00  0.00    +0.000 A 
BRANCH  30  37
ATOM     36  C   UNL     1      -6.842  12.593  17.100  0.00  0.00    +0.000 C 
ATOM     37  O   UNL     1      -5.437  12.607  17.185  0.00  0.00    +0.000 OA
ENDBRANCH  30  37
ENDBRANCH  29  35
ENDBRANCH  21  29
ENDBRANCH  20  24
ENDBRANCH   1  20
TORSDOF 10
ENDMDL
MODEL 7
REMARK VINA RESULT:      -7.7      1.420      3.060
REMARK  Name = 
REMARK  13 active torsions:
REMARK  status: ('A' for Active; 'I' for Inactive)
REMARK    1  A    between atoms: C_1  and  O_2
REMARK    2  A    between atoms: O_2  and  C_3
REMARK    3  A    between atoms: C_8  and  C_9
REMARK    4  A    between atoms: C_9  and  N_10
REMARK    5  A    between atoms: C_13  and  C_14
REMARK    6  A    between atoms: C_13  and  C_16
REMARK    7  A    between atoms: C_16  and  N_17
REMARK    8  A    between atoms: C_18  and  C_20
REMARK    9  A    between atoms: C_22  and  C_23
REMARK   10  A    between atoms: C_23  and  C_24
REMARK   11  A    between atoms: C_24  and  C_25
REMARK   12  A    between atoms: C_24  and  C_26
REMARK   13  A    between atoms: N_27  and  C_28
REMARK                            x       y       z     vdW  Elec       q    Type
REMARK                         _______ _______ _______ _____ _____    ______ ____
ROOT
ATOM      1  N   UNL     1       0.583  10.050  19.063  0.00  0.00    +0.000 N 
ATOM      2  C   UNL     1       1.703   9.728  18.300  0.00  0.00    +0.000 C 
ATOM      3  O   UNL     1       2.274  10.568  17.604  0.00  0.00    +0.000 OA
ATOM      4  H   UNL     1       0.237   9.308  19.669  0.00  0.00    +0.000 HD
ENDROOT
BRANCH   2   5
ATOM      5  C   UNL     1       2.181   8.343  18.388  0.00  0.00    +0.000 A 
ATOM      6  C   UNL     1       3.292   7.831  17.673  0.00  0.00    +0.000 A 
ATOM      7  C   UNL     1       3.539   6.572  18.155  0.00  0.00    +0.000 A 
ATOM      8  N   UNL     1       2.485   6.294  19.018  0.00  0.00    +0.000 N 
ATOM      9  N   UNL     1       1.680   7.393  19.199  0.00  0.00    +0.000 NA
BRANCH   8  10
ATOM     10  C   UNL     1       2.114   5.059  19.638  0.00  0.00    +0.000 A 
ATOM     11  C   UNL     1       1.306   4.103  19.004  0.00  0.00    +0.000 A 
ATOM     12  C   UNL     1       0.891   2.949  19.681  0.00  0.00    +0.000 A 
ATOM     13  C   UNL     1       1.283   2.733  20.996  0.00  0.00    +0.000 A 
ATOM     14  C   UNL     1       2.119   3.652  21.629  0.00  0.00    +0.000 A 
ATOM     15  C   UNL     1       2.551   4.799  20.949  0.00  0.00    +0.000 A 
ENDBRANCH   8  10
BRANCH   7  16
ATOM     16  C   UNL     1       4.651   5.606  17.802  0.00  0.00    +0.000 C 
BRANCH  16  17
ATOM     17  C   UNL     1       4.343   4.543  16.729  0.00  0.00    +0.000 C 
ATOM     18  C   UNL     1       5.391   4.526  15.610  0.00  0.00    +0.000 C 
ATOM     19  C   UNL     1       4.312   3.146  17.364  0.00  0.00    +0.000 C 
ENDBRANCH  16  17
ENDBRANCH   7  16
ENDBRANCH   2   5
BRANCH   1  20
ATOM     20  C   UNL     1       0.091  11.421  19.095  0.00  0.00    +0.000 C 
BRANCH  20  24
ATOM     21  N   UNL     1      -1.985  12.752  22.675  0.00  0.00    +0.000 NA
ATOM     22  C   UNL     1      -1.536  13.791  21.745  0.00  0.00    +0.000 C 
ATOM     23  C   UNL     1      -0.967  13.320  20.400  0.00  0.00    +0.000 C 
ATOM     24  C   UNL     1       0.053  12.173  20.470  0.00  0.00    +0.000 C 
ATOM     25  C   UNL     1      -0.307  11.137  21.563  0.00  0.00    +0.000 C 
ATOM     26  C   UNL     1      -1.044  11.646  22.807  0.00  0.00    +0.000 C 
BRANCH  24  27
ATOM     27  C   UNL     1       1.398  12.711  20.754  0.00  0.00    +0.000 C 
ATOM     28  N   UNL     1       2.467  13.127  20.979  0.00  0.00    +0.000 NA
ENDBRANCH  24  27
BRANCH  21  29
ATOM     29  C   UNL     1      -3.393  12.419  22.438  0.00  0.00    +0.000 C 
BRANCH  29  35
ATOM     30  C   UNL     1      -5.190  13.836  21.410  0.00  0.00    +0.000 A 
ATOM     31  C   UNL     1      -6.190  14.806  21.480  0.00  0.00    +0.000 A 
ATOM     32  C   UNL     1      -6.423  15.474  22.697  0.00  0.00    +0.000 A 
ATOM     33  C   UNL     1      -5.631  15.213  23.818  0.00  0.00    +0.000 A 
ATOM     34  C   UNL     1      -4.621  14.245  23.745  0.00  0.00    +0.000 A 
ATOM     35  C   UNL     1      -4.429  13.526  22.559  0.00  0.00    +0.000 A 
BRANCH  30  37
ATOM     36  C   UNL     1      -5.737  12.682  19.263  0.00  0.00    +0.000 C 
ATOM     37  O   UNL     1      -4.959  12.959  20.403  0.00  0.00    +0.000 OA
ENDBRANCH  30  37
ENDBRANCH  29  35
ENDBRANCH  21  29
ENDBRANCH  20  24
ENDBRANCH   1  20
TORSDOF 10
ENDMDL
MODEL 8
REMARK VINA RESULT:      -7.6      1.640      2.278
REMARK  Name = 
REMARK  13 active torsions:
REMARK  status: ('A' for Active; 'I' for Inactive)
REMARK    1  A    between atoms: C_1  and  O_2
REMARK    2  A    between atoms: O_2  and  C_3
REMARK    3  A    between atoms: C_8  and  C_9
REMARK    4  A    between atoms: C_9  and  N_10
REMARK    5  A    between atoms: C_13  and  C_14
REMARK    6  A    between atoms: C_13  and  C_16
REMARK    7  A    between atoms: C_16  and  N_17
REMARK    8  A    between atoms: C_18  and  C_20
REMARK    9  A    between atoms: C_22  and  C_23
REMARK   10  A    between atoms: C_23  and  C_24
REMARK   11  A    between atoms: C_24  and  C_25
REMARK   12  A    between atoms: C_24  and  C_26
REMARK   13  A    between atoms: N_27  and  C_28
REMARK                            x       y       z     vdW  Elec       q    Type
REMARK                         _______ _______ _______ _____ _____    ______ ____
ROOT
ATOM      1  N   UNL     1       0.509   9.471  19.049  0.00  0.00    +0.000 N 
ATOM      2  C   UNL     1       1.636   9.273  18.256  0.00  0.00    +0.000 C 
ATOM      3  O   UNL     1       1.987  10.102  17.415  0.00  0.00    +0.000 OA
ATOM      4  H   UNL     1       0.353   8.770  19.772  0.00  0.00    +0.000 HD
ENDROOT
BRANCH   2   5
ATOM      5  C   UNL     1       2.396   8.039  18.490  0.00  0.00    +0.000 A 
ATOM      6  C   UNL     1       2.123   7.113  19.527  0.00  0.00    +0.000 A 
ATOM      7  C   UNL     1       2.912   6.015  19.307  0.00  0.00    +0.000 A 
ATOM      8  N   UNL     1       3.750   6.367  18.255  0.00  0.00    +0.000 N 
ATOM      9  N   UNL     1       3.405   7.585  17.722  0.00  0.00    +0.000 NA
BRANCH   8  10
ATOM     10  C   UNL     1       4.906   5.696  17.744  0.00  0.00    +0.000 A 
ATOM     11  C   UNL     1       6.120   5.634  18.445  0.00  0.00    +0.000 A 
ATOM     12  C   UNL     1       7.254   5.045  17.868  0.00  0.00    +0.000 A 
ATOM     13  C   UNL     1       7.186   4.507  16.589  0.00  0.00    +0.000 A 
ATOM     14  C   UNL     1       5.977   4.523  15.895  0.00  0.00    +0.000 A 
ATOM     15  C   UNL     1       4.837   5.094  16.475  0.00  0.00    +0.000 A 
ENDBRANCH   8  10
BRANCH   7  16
ATOM     16  C   UNL     1       2.970   4.703  20.062  0.00  0.00    +0.000 C 
BRANCH  16  17
ATOM     17  C   UNL     1       2.376   3.463  19.364  0.00  0.00    +0.000 C 
ATOM     18  C   UNL     1       1.526   3.833  18.143  0.00  0.00    +0.000 C 
ATOM     19  C   UNL     1       3.503   2.536  18.888  0.00  0.00    +0.000 C 
ENDBRANCH  16  17
ENDBRANCH   7  16
ENDBRANCH   2   5
BRANCH   1  20
ATOM     20  C   UNL     1      -0.257  10.705  18.937  0.00  0.00    +0.000 C 
BRANCH  20  24
ATOM     21  N   UNL     1      -1.772  12.758  22.457  0.00  0.00    +0.000 NA
ATOM     22  C   UNL     1      -1.628  13.554  21.237  0.00  0.00    +0.000 C 
ATOM     23  C   UNL     1      -1.268  12.798  19.951  0.00  0.00    +0.000 C 
ATOM     24  C   UNL     1      -0.125  11.776  20.074  0.00  0.00    +0.000 C 
ATOM     25  C   UNL     1      -0.153  11.029  21.430  0.00  0.00    +0.000 C 
ATOM     26  C   UNL     1      -0.701  11.786  22.645  0.00  0.00    +0.000 C 
BRANCH  24  27
ATOM     27  C   UNL     1       1.177  12.457  19.937  0.00  0.00    +0.000 C 
ATOM     28  N   UNL     1       2.213  12.986  19.828  0.00  0.00    +0.000 NA
ENDBRANCH  24  27
BRANCH  21  29
ATOM     29  C   UNL     1      -3.151  12.281  22.604  0.00  0.00    +0.000 C 
BRANCH  29  35
ATOM     30  C   UNL     1      -4.561  14.103  23.598  0.00  0.00    +0.000 A 
ATOM     31  C   UNL     1      -5.552  15.080  23.519  0.00  0.00    +0.000 A 
ATOM     32  C   UNL     1      -6.273  15.241  22.321  0.00  0.00    +0.000 A 
ATOM     33  C   UNL     1      -6.042  14.399  21.230  0.00  0.00    +0.000 A 
ATOM     34  C   UNL     1      -5.052  13.410  21.313  0.00  0.00    +0.000 A 
ATOM     35  C   UNL     1      -4.282  13.291  22.477  0.00  0.00    +0.000 A 
BRANCH  30  37
ATOM     36  C   UNL     1      -2.901  14.906  25.283  0.00  0.00    +0.000 C 
ATOM     37  O   UNL     1      -3.640  13.937  24.579  0.00  0.00    +0.000 OA
ENDBRANCH  30  37
ENDBRANCH  29  35
ENDBRANCH  21  29
ENDBRANCH  20  24
ENDBRANCH   1  20
TORSDOF 10
ENDMDL
MODEL 9
REMARK VINA RESULT:      -7.6      2.604      4.053
REMARK  Name = 
REMARK  13 active torsions:
REMARK  status: ('A' for Active; 'I' for Inactive)
REMARK    1  A    between atoms: C_1  and  O_2
REMARK    2  A    between atoms: O_2  and  C_3
REMARK    3  A    between atoms: C_8  and  C_9
REMARK    4  A    between atoms: C_9  and  N_10
REMARK    5  A    between atoms: C_13  and  C_14
REMARK    6  A    between atoms: C_13  and  C_16
REMARK    7  A    between atoms: C_16  and  N_17
REMARK    8  A    between atoms: C_18  and  C_20
REMARK    9  A    between atoms: C_22  and  C_23
REMARK   10  A    between atoms: C_23  and  C_24
REMARK   11  A    between atoms: C_24  and  C_25
REMARK   12  A    between atoms: C_24  and  C_26
REMARK   13  A    between atoms: N_27  and  C_28
REMARK                            x       y       z     vdW  Elec       q    Type
REMARK                         _______ _______ _______ _____ _____    ______ ____
ROOT
ATOM      1  N   UNL     1       0.981  10.003  18.805  0.00  0.00    +0.000 N 
ATOM      2  C   UNL     1       1.418   8.962  19.621  0.00  0.00    +0.000 C 
ATOM      3  O   UNL     1       1.169   8.937  20.826  0.00  0.00    +0.000 OA
ATOM      4  H   UNL     1       1.164   9.887  17.810  0.00  0.00    +0.000 HD
ENDROOT
BRANCH   2   5
ATOM      5  C   UNL     1       2.171   7.885  18.964  0.00  0.00    +0.000 A 
ATOM      6  C   UNL     1       3.078   8.078  17.893  0.00  0.00    +0.000 A 
ATOM      7  C   UNL     1       3.715   6.884  17.682  0.00  0.00    +0.000 A 
ATOM      8  N   UNL     1       3.069   5.969  18.506  0.00  0.00    +0.000 N 
ATOM      9  N   UNL     1       2.156   6.589  19.326  0.00  0.00    +0.000 NA
BRANCH   8  10
ATOM     10  C   UNL     1       3.172   4.543  18.545  0.00  0.00    +0.000 A 
ATOM     11  C   UNL     1       4.022   3.867  19.432  0.00  0.00    +0.000 A 
ATOM     12  C   UNL     1       4.160   2.473  19.375  0.00  0.00    +0.000 A 
ATOM     13  C   UNL     1       3.446   1.740  18.436  0.00  0.00    +0.000 A 
ATOM     14  C   UNL     1       2.566   2.391  17.574  0.00  0.00    +0.000 A 
ATOM     15  C   UNL     1       2.411   3.782  17.640  0.00  0.00    +0.000 A 
ENDBRANCH   8  10
BRANCH   7  16
ATOM     16  C   UNL     1       4.830   6.544  16.715  0.00  0.00    +0.000 C 
BRANCH  16  17
ATOM     17  C   UNL     1       6.159   6.046  17.320  0.00  0.00    +0.000 C 
ATOM     18  C   UNL     1       6.807   4.944  16.474  0.00  0.00    +0.000 C 
ATOM     19  C   UNL     1       7.157   7.207  17.425  0.00  0.00    +0.000 C 
ENDBRANCH  16  17
ENDBRANCH   7  16
ENDBRANCH   2   5
BRANCH   1  20
ATOM     20  C   UNL     1       0.160  11.071  19.361  0.00  0.00    +0.000 C 
BRANCH  20  24
ATOM     21  N   UNL     1      -0.251  15.333  20.109  0.00  0.00    +0.000 NA
ATOM     22  C   UNL     1      -0.281  14.900  18.710  0.00  0.00    +0.000 C 
ATOM     23  C   UNL     1      -0.318  13.388  18.451  0.00  0.00    +0.000 C 
ATOM     24  C   UNL     1       0.680  12.546  19.262  0.00  0.00    +0.000 C 
ATOM     25  C   UNL     1       0.859  13.080  20.704  0.00  0.00    +0.000 C 
ATOM     26  C   UNL     1       0.699  14.588  20.926  0.00  0.00    +0.000 C 
BRANCH  24  27
ATOM     27  C   UNL     1       1.996  12.542  18.593  0.00  0.00    +0.000 C 
ATOM     28  N   UNL     1       3.041  12.532  18.071  0.00  0.00    +0.000 NA
ENDBRANCH  24  27
BRANCH  21  29
ATOM     29  C   UNL     1      -1.612  15.492  20.630  0.00  0.00    +0.000 C 
BRANCH  29  35
ATOM     30  C   UNL     1      -2.000  14.778  23.004  0.00  0.00    +0.000 A 
ATOM     31  C   UNL     1      -2.503  13.901  23.964  0.00  0.00    +0.000 A 
ATOM     32  C   UNL     1      -3.126  12.707  23.552  0.00  0.00    +0.000 A 
ATOM     33  C   UNL     1      -3.199  12.370  22.198  0.00  0.00    +0.000 A 
ATOM     34  C   UNL     1      -2.685  13.248  21.235  0.00  0.00    +0.000 A 
ATOM     35  C   UNL     1      -2.127  14.470  21.632  0.00  0.00    +0.000 A 
BRANCH  30  37
ATOM     36  C   UNL     1      -0.538  16.520  24.040  0.00  0.00    +0.000 C 
ATOM     37  O   UNL     1      -1.559  16.046  23.194  0.00  0.00    +0.000 OA
ENDBRANCH  30  37
ENDBRANCH  29  35
ENDBRANCH  21  29
ENDBRANCH  20  24
ENDBRANCH   1  20
TORSDOF 10
ENDMDL
