MODEL 1
REMARK VINA RESULT:      -9.0      0.000      0.000
REMARK  Name = 
REMARK  8 active torsions:
REMARK  status: ('A' for Active; 'I' for Inactive)
REMARK    1  A    between atoms: C_2  and  C_16
REMARK    2  A    between atoms: N_3  and  C_4
REMARK    3  A    between atoms: C_4  and  C_5
REMARK    4  A    between atoms: C_5  and  C_6
REMARK    5  A    between atoms: C_9  and  C_10
REMARK    6  A    between atoms: N_21  and  C_22
REMARK    7  A    between atoms: C_22  and  C_23
REMARK    8  A    between atoms: C_23  and  C_24
REMARK                            x       y       z     vdW  Elec       q    Type
REMARK                         _______ _______ _______ _____ _____    ______ ____
ROOT
ATOM      1  O   UNL     1       4.658   4.998  19.974  0.00  0.00    +0.000 OA
ATOM      2  C   UNL     1       4.909   3.917  19.449  0.00  0.00    +0.000 C 
ATOM      3  N   UNL     1       6.019   3.729  18.657  0.00  0.00    +0.000 N 
ATOM      4  H   UNL     1       6.188   2.827  18.234  0.00  0.00    +0.000 HD
ENDROOT
BRANCH   2   5
ATOM      5  C   UNL     1       4.071   2.658  19.680  0.00  0.00    +0.000 C 
ATOM      6  C   UNL     1       3.727   1.879  18.418  0.00  0.00    +0.000 C 
ATOM      7  C   UNL     1       2.822   2.673  17.497  0.00  0.00    +0.000 C 
ATOM      8  C   UNL     1       1.785   3.575  18.146  0.00  0.00    +0.000 C 
ATOM      9  O   UNL     1       1.007   4.174  17.403  0.00  0.00    +0.000 OA
ATOM     10  N   UNL     1       1.806   3.723  19.523  0.00  0.00    +0.000 N 
ATOM     11  C   UNL     1       2.753   2.994  20.369  0.00  0.00    +0.000 C 
BRANCH  10  12
ATOM     12  C   UNL     1       1.078   4.818  20.185  0.00  0.00    +0.000 C 
BRANCH  12  13
ATOM     13  C   UNL     1       1.901   5.973  20.767  0.00  0.00    +0.000 C 
BRANCH  13  14
ATOM     14  C   UNL     1       1.864   7.186  19.866  0.00  0.00    +0.000 A 
ATOM     15  C   UNL     1       2.496   7.151  18.612  0.00  0.00    +0.000 A 
ATOM     16  C   UNL     1       2.485   8.270  17.776  0.00  0.00    +0.000 A 
ATOM     17  C   UNL     1       1.846   9.436  18.190  0.00  0.00    +0.000 A 
ATOM     18  C   UNL     1       1.223   9.473  19.432  0.00  0.00    +0.000 A 
ATOM     19  F   UNL     1       0.611  10.596  19.829  0.00  0.00    +0.000 F 
ATOM     20  C   UNL     1       1.226   8.365  20.272  0.00  0.00    +0.000 A 
ENDBRANCH  13  14
ENDBRANCH  12  13
ENDBRANCH  10  12
ENDBRANCH   2   5
BRANCH   3  21
ATOM     21  C   UNL     1       6.895   4.838  18.315  0.00  0.00    +0.000 C 
BRANCH  21  22
ATOM     22  C   UNL     1       6.262   5.741  17.259  0.00  0.00    +0.000 C 
BRANCH  22  23
ATOM     23  C   UNL     1       6.201   5.106  15.895  0.00  0.00    +0.000 A 
ATOM     24  C   UNL     1       7.293   5.195  15.022  0.00  0.00    +0.000 A 
ATOM     25  C   UNL     1       7.246   4.590  13.764  0.00  0.00    +0.000 A 
ATOM     26  C   UNL     1       6.104   3.890  13.352  0.00  0.00    +0.000 A 
ATOM     27  C   UNL     1       5.007   3.813  14.223  0.00  0.00    +0.000 A 
ATOM     28  C   UNL     1       5.054   4.418  15.481  0.00  0.00    +0.000 A 
BRANCH  26  29
ATOM     29  C   UNL     1       6.040   3.224  11.999  0.00  0.00    +0.000 C 
ATOM     30  F   UNL     1       5.274   3.896  11.094  0.00  0.00    +0.000 F 
ATOM     31  F   UNL     1       7.269   3.098  11.422  0.00  0.00    +0.000 F 
ATOM     32  F   UNL     1       5.527   1.964  12.060  0.00  0.00    +0.000 F 
ENDBRANCH  26  29
ENDBRANCH  22  23
ENDBRANCH  21  22
ENDBRANCH   3  21
TORSDOF 8
ENDMDL
MODEL 2
REMARK VINA RESULT:      -8.8      3.379      8.301
REMARK  Name = 
REMARK  8 active torsions:
REMARK  status: ('A' for Active; 'I' for Inactive)
REMARK    1  A    between atoms: C_2  and  C_16
REMARK    2  A    between atoms: N_3  and  C_4
REMARK    3  A    between atoms: C_4  and  C_5
REMARK    4  A    between atoms: C_5  and  C_6
REMARK    5  A    between atoms: C_9  and  C_10
REMARK    6  A    between atoms: N_21  and  C_22
REMARK    7  A    between atoms: C_22  and  C_23
REMARK    8  A    between atoms: C_23  and  C_24
REMARK                            x       y       z     vdW  Elec       q    Type
REMARK                         _______ _______ _______ _____ _____    ______ ____
ROOT
ATOM      1  O   UNL     1       2.146   5.717  20.942  0.00  0.00    +0.000 OA
ATOM      2  C   UNL     1       1.875   5.405  19.786  0.00  0.00    +0.000 C 
ATOM      3  N   UNL     1       2.143   6.238  18.723  0.00  0.00    +0.000 N 
ATOM      4  H   UNL     1       1.896   5.951  17.785  0.00  0.00    +0.000 HD
ENDROOT
BRANCH   2   5
ATOM      5  C   UNL     1       1.293   4.045  19.399  0.00  0.00    +0.000 C 
ATOM      6  C   UNL     1       1.311   3.003  20.509  0.00  0.00    +0.000 C 
ATOM      7  C   UNL     1       2.726   2.620  20.897  0.00  0.00    +0.000 C 
ATOM      8  C   UNL     1       3.765   2.577  19.789  0.00  0.00    +0.000 C 
ATOM      9  O   UNL     1       4.900   2.207  20.088  0.00  0.00    +0.000 OA
ATOM     10  N   UNL     1       3.402   3.009  18.523  0.00  0.00    +0.000 N 
ATOM     11  C   UNL     1       2.039   3.445  18.212  0.00  0.00    +0.000 C 
BRANCH  10  12
ATOM     12  C   UNL     1       4.416   3.318  17.502  0.00  0.00    +0.000 C 
BRANCH  12  13
ATOM     13  C   UNL     1       4.490   4.759  16.983  0.00  0.00    +0.000 C 
BRANCH  13  14
ATOM     14  C   UNL     1       5.718   5.470  17.503  0.00  0.00    +0.000 A 
ATOM     15  C   UNL     1       6.545   4.845  18.451  0.00  0.00    +0.000 A 
ATOM     16  C   UNL     1       7.673   5.497  18.954  0.00  0.00    +0.000 A 
ATOM     17  C   UNL     1       7.981   6.782  18.516  0.00  0.00    +0.000 A 
ATOM     18  C   UNL     1       7.162   7.403  17.580  0.00  0.00    +0.000 A 
ATOM     19  F   UNL     1       7.459   8.640  17.164  0.00  0.00    +0.000 F 
ATOM     20  C   UNL     1       6.037   6.763  17.073  0.00  0.00    +0.000 A 
ENDBRANCH  13  14
ENDBRANCH  12  13
ENDBRANCH  10  12
ENDBRANCH   2   5
BRANCH   3  21
ATOM     21  C   UNL     1       2.664   7.580  18.930  0.00  0.00    +0.000 C 
BRANCH  21  22
ATOM     22  C   UNL     1       1.722   8.636  18.356  0.00  0.00    +0.000 C 
BRANCH  22  23
ATOM     23  C   UNL     1       0.958   9.386  19.415  0.00  0.00    +0.000 A 
ATOM     24  C   UNL     1       0.266  10.561  19.092  0.00  0.00    +0.000 A 
ATOM     25  C   UNL     1      -0.460  11.248  20.068  0.00  0.00    +0.000 A 
ATOM     26  C   UNL     1      -0.504  10.777  21.387  0.00  0.00    +0.000 A 
ATOM     27  C   UNL     1       0.200   9.607  21.711  0.00  0.00    +0.000 A 
ATOM     28  C   UNL     1       0.926   8.920  20.735  0.00  0.00    +0.000 A 
BRANCH  26  29
ATOM     29  C   UNL     1      -1.290  11.503  22.452  0.00  0.00    +0.000 C 
ATOM     30  F   UNL     1      -2.487  11.985  22.015  0.00  0.00    +0.000 F 
ATOM     31  F   UNL     1      -1.579  10.706  23.520  0.00  0.00    +0.000 F 
ATOM     32  F   UNL     1      -0.618  12.575  22.957  0.00  0.00    +0.000 F 
ENDBRANCH  26  29
ENDBRANCH  22  23
ENDBRANCH  21  22
ENDBRANCH   3  21
TORSDOF 8
ENDMDL
MODEL 3
REMARK VINA RESULT:      -8.7      6.173      8.024
REMARK  Name = 
REMARK  8 active torsions:
REMARK  status: ('A' for Active; 'I' for Inactive)
REMARK    1  A    between atoms: C_2  and  C_16
REMARK    2  A    between atoms: N_3  and  C_4
REMARK    3  A    between atoms: C_4  and  C_5
REMARK    4  A    between atoms: C_5  and  C_6
REMARK    5  A    between atoms: C_9  and  C_10
REMARK    6  A    between atoms: N_21  and  C_22
REMARK    7  A    between atoms: C_22  and  C_23
REMARK    8  A    between atoms: C_23  and  C_24
REMARK                            x       y       z     vdW  Elec       q    Type
REMARK                         _______ _______ _______ _____ _____    ______ ____
ROOT
ATOM      1  O   UNL     1       7.768   7.210  16.709  0.00  0.00    +0.000 OA
ATOM      2  C   UNL     1       7.884   7.050  17.920  0.00  0.00    +0.000 C 
ATOM      3  N   UNL     1       8.240   8.079  18.763  0.00  0.00    +0.000 N 
ATOM      4  H   UNL     1       8.334   7.907  19.755  0.00  0.00    +0.000 HD
ENDROOT
BRANCH   2   5
ATOM      5  C   UNL     1       7.572   5.729  18.625  0.00  0.00    +0.000 C 
ATOM      6  C   UNL     1       7.842   4.482  17.794  0.00  0.00    +0.000 C 
ATOM      7  C   UNL     1       6.924   4.400  16.591  0.00  0.00    +0.000 C 
ATOM      8  C   UNL     1       5.505   4.914  16.760  0.00  0.00    +0.000 C 
ATOM      9  O   UNL     1       4.737   4.793  15.805  0.00  0.00    +0.000 OA
ATOM     10  N   UNL     1       5.165   5.542  17.948  0.00  0.00    +0.000 N 
ATOM     11  C   UNL     1       6.112   5.668  19.059  0.00  0.00    +0.000 C 
BRANCH  10  12
ATOM     12  C   UNL     1       3.944   6.356  18.060  0.00  0.00    +0.000 C 
BRANCH  12  13
ATOM     13  C   UNL     1       3.140   6.263  19.363  0.00  0.00    +0.000 C 
BRANCH  13  14
ATOM     14  C   UNL     1       2.345   4.980  19.429  0.00  0.00    +0.000 A 
ATOM     15  C   UNL     1       1.882   4.376  18.249  0.00  0.00    +0.000 A 
ATOM     16  C   UNL     1       1.131   3.199  18.296  0.00  0.00    +0.000 A 
ATOM     17  C   UNL     1       0.831   2.619  19.526  0.00  0.00    +0.000 A 
ATOM     18  C   UNL     1       1.286   3.217  20.695  0.00  0.00    +0.000 A 
ATOM     19  F   UNL     1       0.994   2.659  21.876  0.00  0.00    +0.000 F 
ATOM     20  C   UNL     1       2.035   4.388  20.660  0.00  0.00    +0.000 A 
ENDBRANCH  13  14
ENDBRANCH  12  13
ENDBRANCH  10  12
ENDBRANCH   2   5
BRANCH   3  21
ATOM     21  C   UNL     1       8.602   9.388  18.242  0.00  0.00    +0.000 C 
BRANCH  21  22
ATOM     22  C   UNL     1       9.426  10.180  19.254  0.00  0.00    +0.000 C 
BRANCH  22  23
ATOM     23  C   UNL     1       9.809  11.551  18.762  0.00  0.00    +0.000 A 
ATOM     24  C   UNL     1      11.039  11.759  18.125  0.00  0.00    +0.000 A 
ATOM     25  C   UNL     1      11.388  13.025  17.651  0.00  0.00    +0.000 A 
ATOM     26  C   UNL     1      10.517  14.111  17.811  0.00  0.00    +0.000 A 
ATOM     27  C   UNL     1       9.291  13.904  18.461  0.00  0.00    +0.000 A 
ATOM     28  C   UNL     1       8.942  12.637  18.935  0.00  0.00    +0.000 A 
BRANCH  26  29
ATOM     29  C   UNL     1      10.876  15.484  17.298  0.00  0.00    +0.000 C 
ATOM     30  F   UNL     1      12.015  15.993  17.846  0.00  0.00    +0.000 F 
ATOM     31  F   UNL     1      11.074  15.501  15.949  0.00  0.00    +0.000 F 
ATOM     32  F   UNL     1       9.902  16.405  17.543  0.00  0.00    +0.000 F 
ENDBRANCH  26  29
ENDBRANCH  22  23
ENDBRANCH  21  22
ENDBRANCH   3  21
TORSDOF 8
ENDMDL
MODEL 4
REMARK VINA RESULT:      -8.7      3.523      8.094
REMARK  Name = 
REMARK  8 active torsions:
REMARK  status: ('A' for Active; 'I' for Inactive)
REMARK    1  A    between atoms: C_2  and  C_16
REMARK    2  A    between atoms: N_3  and  C_4
REMARK    3  A    between atoms: C_4  and  C_5
REMARK    4  A    between atoms: C_5  and  C_6
REMARK    5  A    between atoms: C_9  and  C_10
REMARK    6  A    between atoms: N_21  and  C_22
REMARK    7  A    between atoms: C_22  and  C_23
REMARK    8  A    between atoms: C_23  and  C_24
REMARK                            x       y       z     vdW  Elec       q    Type
REMARK                         _______ _______ _______ _____ _____    ______ ____
ROOT
ATOM      1  O   UNL     1       2.043   5.708  21.005  0.00  0.00    +0.000 OA
ATOM      2  C   UNL     1       1.847   5.301  19.863  0.00  0.00    +0.000 C 
ATOM      3  N   UNL     1       2.179   6.046  18.754  0.00  0.00    +0.000 N 
ATOM      4  H   UNL     1       1.993   5.681  17.830  0.00  0.00    +0.000 HD
ENDROOT
BRANCH   2   5
ATOM      5  C   UNL     1       1.294   3.909  19.553  0.00  0.00    +0.000 C 
ATOM      6  C   UNL     1       1.343   2.928  20.716  0.00  0.00    +0.000 C 
ATOM      7  C   UNL     1       2.769   2.598  21.113  0.00  0.00    +0.000 C 
ATOM      8  C   UNL     1       3.801   2.520  20.002  0.00  0.00    +0.000 C 
ATOM      9  O   UNL     1       4.947   2.192  20.311  0.00  0.00    +0.000 OA
ATOM     10  N   UNL     1       3.420   2.876  18.717  0.00  0.00    +0.000 N 
ATOM     11  C   UNL     1       2.046   3.264  18.394  0.00  0.00    +0.000 C 
BRANCH  10  12
ATOM     12  C   UNL     1       4.420   3.154  17.674  0.00  0.00    +0.000 C 
BRANCH  12  13
ATOM     13  C   UNL     1       4.388   4.532  17.003  0.00  0.00    +0.000 C 
BRANCH  13  14
ATOM     14  C   UNL     1       5.563   5.381  17.432  0.00  0.00    +0.000 A 
ATOM     15  C   UNL     1       5.771   6.642  16.849  0.00  0.00    +0.000 A 
ATOM     16  C   UNL     1       6.861   7.430  17.223  0.00  0.00    +0.000 A 
ATOM     17  C   UNL     1       7.758   6.961  18.180  0.00  0.00    +0.000 A 
ATOM     18  C   UNL     1       7.555   5.712  18.755  0.00  0.00    +0.000 A 
ATOM     19  F   UNL     1       8.419   5.262  19.673  0.00  0.00    +0.000 F 
ATOM     20  C   UNL     1       6.472   4.920  18.392  0.00  0.00    +0.000 A 
ENDBRANCH  13  14
ENDBRANCH  12  13
ENDBRANCH  10  12
ENDBRANCH   2   5
BRANCH   3  21
ATOM     21  C   UNL     1       2.682   7.404  18.884  0.00  0.00    +0.000 C 
BRANCH  21  22
ATOM     22  C   UNL     1       1.924   8.366  17.972  0.00  0.00    +0.000 C 
BRANCH  22  23
ATOM     23  C   UNL     1       1.026   9.312  18.725  0.00  0.00    +0.000 A 
ATOM     24  C   UNL     1       0.103  10.112  18.039  0.00  0.00    +0.000 A 
ATOM     25  C   UNL     1      -0.745  10.975  18.736  0.00  0.00    +0.000 A 
ATOM     26  C   UNL     1      -0.682  11.061  20.134  0.00  0.00    +0.000 A 
ATOM     27  C   UNL     1       0.252  10.268  20.818  0.00  0.00    +0.000 A 
ATOM     28  C   UNL     1       1.100   9.405  20.120  0.00  0.00    +0.000 A 
BRANCH  26  29
ATOM     29  C   UNL     1      -1.596  11.983  20.903  0.00  0.00    +0.000 C 
ATOM     30  F   UNL     1      -1.833  11.577  22.182  0.00  0.00    +0.000 F 
ATOM     31  F   UNL     1      -1.096  13.247  21.003  0.00  0.00    +0.000 F 
ATOM     32  F   UNL     1      -2.820  12.111  20.321  0.00  0.00    +0.000 F 
ENDBRANCH  26  29
ENDBRANCH  22  23
ENDBRANCH  21  22
ENDBRANCH   3  21
TORSDOF 8
ENDMDL
MODEL 5
REMARK VINA RESULT:      -8.7      5.403      7.757
REMARK  Name = 
REMARK  8 active torsions:
REMARK  status: ('A' for Active; 'I' for Inactive)
REMARK    1  A    between atoms: C_2  and  C_16
REMARK    2  A    between atoms: N_3  and  C_4
REMARK    3  A    between atoms: C_4  and  C_5
REMARK    4  A    between atoms: C_5  and  C_6
REMARK    5  A    between atoms: C_9  and  C_10
REMARK    6  A    between atoms: N_21  and  C_22
REMARK    7  A    between atoms: C_22  and  C_23
REMARK    8  A    between atoms: C_23  and  C_24
REMARK                            x       y       z     vdW  Elec       q    Type
REMARK                         _______ _______ _______ _____ _____    ______ ____
ROOT
ATOM      1  O   UNL     1       7.202   5.587  19.977  0.00  0.00    +0.000 OA
ATOM      2  C   UNL     1       7.302   5.585  18.753  0.00  0.00    +0.000 C 
ATOM      3  N   UNL     1       7.900   6.619  18.067  0.00  0.00    +0.000 N 
ATOM      4  H   UNL     1       7.956   6.586  17.058  0.00  0.00    +0.000 HD
ENDROOT
BRANCH   2   5
ATOM      5  C   UNL     1       6.851   4.416  17.877  0.00  0.00    +0.000 C 
ATOM      6  C   UNL     1       7.369   4.453  16.446  0.00  0.00    +0.000 C 
ATOM      7  C   UNL     1       6.808   5.633  15.676  0.00  0.00    +0.000 C 
ATOM      8  C   UNL     1       5.381   6.051  15.985  0.00  0.00    +0.000 C 
ATOM      9  O   UNL     1       4.900   6.969  15.320  0.00  0.00    +0.000 OA
ATOM     10  N   UNL     1       4.718   5.427  17.030  0.00  0.00    +0.000 N 
ATOM     11  C   UNL     1       5.330   4.341  17.799  0.00  0.00    +0.000 C 
BRANCH  10  12
ATOM     12  C   UNL     1       3.489   5.996  17.604  0.00  0.00    +0.000 C 
BRANCH  12  13
ATOM     13  C   UNL     1       3.373   6.051  19.132  0.00  0.00    +0.000 C 
BRANCH  13  14
ATOM     14  C   UNL     1       2.557   4.895  19.664  0.00  0.00    +0.000 A 
ATOM     15  C   UNL     1       2.605   4.568  21.029  0.00  0.00    +0.000 A 
ATOM     16  C   UNL     1       1.870   3.492  21.532  0.00  0.00    +0.000 A 
ATOM     17  C   UNL     1       1.084   2.729  20.671  0.00  0.00    +0.000 A 
ATOM     18  C   UNL     1       1.039   3.050  19.319  0.00  0.00    +0.000 A 
ATOM     19  F   UNL     1       0.284   2.313  18.494  0.00  0.00    +0.000 F 
ATOM     20  C   UNL     1       1.765   4.120  18.809  0.00  0.00    +0.000 A 
ENDBRANCH  13  14
ENDBRANCH  12  13
ENDBRANCH  10  12
ENDBRANCH   2   5
BRANCH   3  21
ATOM     21  C   UNL     1       8.349   7.818  18.756  0.00  0.00    +0.000 C 
BRANCH  21  22
ATOM     22  C   UNL     1       8.249   9.046  17.854  0.00  0.00    +0.000 C 
BRANCH  22  23
ATOM     23  C   UNL     1       8.844  10.285  18.471  0.00  0.00    +0.000 A 
ATOM     24  C   UNL     1       8.807  11.507  17.787  0.00  0.00    +0.000 A 
ATOM     25  C   UNL     1       9.340  12.660  18.366  0.00  0.00    +0.000 A 
ATOM     26  C   UNL     1       9.926  12.614  19.638  0.00  0.00    +0.000 A 
ATOM     27  C   UNL     1       9.973  11.387  20.316  0.00  0.00    +0.000 A 
ATOM     28  C   UNL     1       9.440  10.233  19.737  0.00  0.00    +0.000 A 
BRANCH  26  29
ATOM     29  C   UNL     1      10.500  13.853  20.281  0.00  0.00    +0.000 C 
ATOM     30  F   UNL     1      10.388  13.867  21.639  0.00  0.00    +0.000 F 
ATOM     31  F   UNL     1      11.828  14.009  20.017  0.00  0.00    +0.000 F 
ATOM     32  F   UNL     1       9.898  14.994  19.846  0.00  0.00    +0.000 F 
ENDBRANCH  26  29
ENDBRANCH  22  23
ENDBRANCH  21  22
ENDBRANCH   3  21
TORSDOF 8
ENDMDL
MODEL 6
REMARK VINA RESULT:      -8.6      3.638      8.194
REMARK  Name = 
REMARK  8 active torsions:
REMARK  status: ('A' for Active; 'I' for Inactive)
REMARK    1  A    between atoms: C_2  and  C_16
REMARK    2  A    between atoms: N_3  and  C_4
REMARK    3  A    between atoms: C_4  and  C_5
REMARK    4  A    between atoms: C_5  and  C_6
REMARK    5  A    between atoms: C_9  and  C_10
REMARK    6  A    between atoms: N_21  and  C_22
REMARK    7  A    between atoms: C_22  and  C_23
REMARK    8  A    between atoms: C_23  and  C_24
REMARK                            x       y       z     vdW  Elec       q    Type
REMARK                         _______ _______ _______ _____ _____    ______ ____
ROOT
ATOM      1  O   UNL     1       2.151   5.766  21.118  0.00  0.00    +0.000 OA
ATOM      2  C   UNL     1       1.836   5.361  20.003  0.00  0.00    +0.000 C 
ATOM      3  N   UNL     1       2.088   6.090  18.862  0.00  0.00    +0.000 N 
ATOM      4  H   UNL     1       1.805   5.727  17.962  0.00  0.00    +0.000 HD
ENDROOT
BRANCH   2   5
ATOM      5  C   UNL     1       1.212   3.987  19.756  0.00  0.00    +0.000 C 
ATOM      6  C   UNL     1       1.282   3.031  20.939  0.00  0.00    +0.000 C 
ATOM      7  C   UNL     1       2.712   2.651  21.271  0.00  0.00    +0.000 C 
ATOM      8  C   UNL     1       3.681   2.505  20.110  0.00  0.00    +0.000 C 
ATOM      9  O   UNL     1       4.827   2.137  20.367  0.00  0.00    +0.000 OA
ATOM     10  N   UNL     1       3.248   2.847  18.838  0.00  0.00    +0.000 N 
ATOM     11  C   UNL     1       1.875   3.285  18.576  0.00  0.00    +0.000 C 
BRANCH  10  12
ATOM     12  C   UNL     1       4.203   3.060  17.738  0.00  0.00    +0.000 C 
BRANCH  12  13
ATOM     13  C   UNL     1       4.237   4.444  17.080  0.00  0.00    +0.000 C 
BRANCH  13  14
ATOM     14  C   UNL     1       5.449   5.233  17.521  0.00  0.00    +0.000 A 
ATOM     15  C   UNL     1       5.999   6.210  16.675  0.00  0.00    +0.000 A 
ATOM     16  C   UNL     1       7.129   6.934  17.061  0.00  0.00    +0.000 A 
ATOM     17  C   UNL     1       7.722   6.684  18.296  0.00  0.00    +0.000 A 
ATOM     18  C   UNL     1       7.180   5.715  19.133  0.00  0.00    +0.000 A 
ATOM     19  F   UNL     1       7.754   5.475  20.319  0.00  0.00    +0.000 F 
ATOM     20  C   UNL     1       6.055   4.989  18.759  0.00  0.00    +0.000 A 
ENDBRANCH  13  14
ENDBRANCH  12  13
ENDBRANCH  10  12
ENDBRANCH   2   5
BRANCH   3  21
ATOM     21  C   UNL     1       2.645   7.431  18.934  0.00  0.00    +0.000 C 
BRANCH  21  22
ATOM     22  C   UNL     1       1.781   8.433  18.171  0.00  0.00    +0.000 C 
BRANCH  22  23
ATOM     23  C   UNL     1       1.020   9.368  19.074  0.00  0.00    +0.000 A 
ATOM     24  C   UNL     1       1.040   9.187  20.463  0.00  0.00    +0.000 A 
ATOM     25  C   UNL     1       0.351  10.065  21.303  0.00  0.00    +0.000 A 
ATOM     26  C   UNL     1      -0.377  11.137  20.770  0.00  0.00    +0.000 A 
ATOM     27  C   UNL     1      -0.406  11.309  19.378  0.00  0.00    +0.000 A 
ATOM     28  C   UNL     1       0.283  10.431  18.538  0.00  0.00    +0.000 A 
BRANCH  26  29
ATOM     29  C   UNL     1      -1.121  12.099  21.664  0.00  0.00    +0.000 C 
ATOM     30  F   UNL     1      -0.466  12.384  22.825  0.00  0.00    +0.000 F 
ATOM     31  F   UNL     1      -1.348  13.300  21.062  0.00  0.00    +0.000 F 
ATOM     32  F   UNL     1      -2.345  11.630  22.033  0.00  0.00    +0.000 F 
ENDBRANCH  26  29
ENDBRANCH  22  23
ENDBRANCH  21  22
ENDBRANCH   3  21
TORSDOF 8
ENDMDL
MODEL 7
REMARK VINA RESULT:      -8.5      3.141      7.887
REMARK  Name = 
REMARK  8 active torsions:
REMARK  status: ('A' for Active; 'I' for Inactive)
REMARK    1  A    between atoms: C_2  and  C_16
REMARK    2  A    between atoms: N_3  and  C_4
REMARK    3  A    between atoms: C_4  and  C_5
REMARK    4  A    between atoms: C_5  and  C_6
REMARK    5  A    between atoms: C_9  and  C_10
REMARK    6  A    between atoms: N_21  and  C_22
REMARK    7  A    between atoms: C_22  and  C_23
REMARK    8  A    between atoms: C_23  and  C_24
REMARK                            x       y       z     vdW  Elec       q    Type
REMARK                         _______ _______ _______ _____ _____    ______ ____
ROOT
ATOM      1  O   UNL     1       1.711   5.106  18.383  0.00  0.00    +0.000 OA
ATOM      2  C   UNL     1       1.453   4.777  19.537  0.00  0.00    +0.000 C 
ATOM      3  N   UNL     1       1.537   5.664  20.587  0.00  0.00    +0.000 N 
ATOM      4  H   UNL     1       1.325   5.353  21.525  0.00  0.00    +0.000 HD
ENDROOT
BRANCH   2   5
ATOM      5  C   UNL     1       0.941   3.386  19.917  0.00  0.00    +0.000 C 
ATOM      6  C   UNL     1       1.291   2.941  21.331  0.00  0.00    +0.000 C 
ATOM      7  C   UNL     1       2.786   2.764  21.509  0.00  0.00    +0.000 C 
ATOM      8  C   UNL     1       3.572   2.234  20.322  0.00  0.00    +0.000 C 
ATOM      9  O   UNL     1       4.776   2.030  20.482  0.00  0.00    +0.000 OA
ATOM     10  N   UNL     1       2.914   2.064  19.115  0.00  0.00    +0.000 N 
ATOM     11  C   UNL     1       1.480   2.323  18.968  0.00  0.00    +0.000 C 
BRANCH  10  12
ATOM     12  C   UNL     1       3.659   1.889  17.857  0.00  0.00    +0.000 C 
BRANCH  12  13
ATOM     13  C   UNL     1       3.634   3.041  16.846  0.00  0.00    +0.000 C 
BRANCH  13  14
ATOM     14  C   UNL     1       4.902   3.861  16.914  0.00  0.00    +0.000 A 
ATOM     15  C   UNL     1       5.731   3.973  15.786  0.00  0.00    +0.000 A 
ATOM     16  C   UNL     1       6.914   4.713  15.839  0.00  0.00    +0.000 A 
ATOM     17  C   UNL     1       7.282   5.344  17.025  0.00  0.00    +0.000 A 
ATOM     18  C   UNL     1       6.464   5.231  18.144  0.00  0.00    +0.000 A 
ATOM     19  F   UNL     1       6.822   5.837  19.283  0.00  0.00    +0.000 F 
ATOM     20  C   UNL     1       5.283   4.498  18.101  0.00  0.00    +0.000 A 
ENDBRANCH  13  14
ENDBRANCH  12  13
ENDBRANCH  10  12
ENDBRANCH   2   5
BRANCH   3  21
ATOM     21  C   UNL     1       2.042   7.014  20.392  0.00  0.00    +0.000 C 
BRANCH  21  22
ATOM     22  C   UNL     1       1.343   8.007  21.318  0.00  0.00    +0.000 C 
BRANCH  22  23
ATOM     23  C   UNL     1       0.738   9.175  20.585  0.00  0.00    +0.000 A 
ATOM     24  C   UNL     1       1.115   9.458  19.265  0.00  0.00    +0.000 A 
ATOM     25  C   UNL     1       0.540  10.529  18.577  0.00  0.00    +0.000 A 
ATOM     26  C   UNL     1      -0.418  11.343  19.197  0.00  0.00    +0.000 A 
ATOM     27  C   UNL     1      -0.784  11.065  20.523  0.00  0.00    +0.000 A 
ATOM     28  C   UNL     1      -0.209   9.994  21.211  0.00  0.00    +0.000 A 
BRANCH  26  29
ATOM     29  C   UNL     1      -1.053  12.499  18.466  0.00  0.00    +0.000 C 
ATOM     30  F   UNL     1      -1.877  12.118  17.449  0.00  0.00    +0.000 F 
ATOM     31  F   UNL     1      -1.814  13.279  19.285  0.00  0.00    +0.000 F 
ATOM     32  F   UNL     1      -0.133  13.333  17.906  0.00  0.00    +0.000 F 
ENDBRANCH  26  29
ENDBRANCH  22  23
ENDBRANCH  21  22
ENDBRANCH   3  21
TORSDOF 8
ENDMDL
MODEL 8
REMARK VINA RESULT:      -8.5      1.188      1.793
REMARK  Name = 
REMARK  8 active torsions:
REMARK  status: ('A' for Active; 'I' for Inactive)
REMARK    1  A    between atoms: C_2  and  C_16
REMARK    2  A    between atoms: N_3  and  C_4
REMARK    3  A    between atoms: C_4  and  C_5
REMARK    4  A    between atoms: C_5  and  C_6
REMARK    5  A    between atoms: C_9  and  C_10
REMARK    6  A    between atoms: N_21  and  C_22
REMARK    7  A    between atoms: C_22  and  C_23
REMARK    8  A    between atoms: C_23  and  C_24
REMARK                            x       y       z     vdW  Elec       q    Type
REMARK                         _______ _______ _______ _____ _____    ______ ____
ROOT
ATOM      1  O   UNL     1       4.715   2.093  19.962  0.00  0.00    +0.000 OA
ATOM      2  C   UNL     1       4.186   3.192  20.097  0.00  0.00    +0.000 C 
ATOM      3  N   UNL     1       4.746   4.342  19.587  0.00  0.00    +0.000 N 
ATOM      4  H   UNL     1       4.285   5.231  19.727  0.00  0.00    +0.000 HD
ENDROOT
BRANCH   2   5
ATOM      5  C   UNL     1       2.826   3.391  20.769  0.00  0.00    +0.000 C 
ATOM      6  C   UNL     1       1.759   2.384  20.362  0.00  0.00    +0.000 C 
ATOM      7  C   UNL     1       1.388   2.519  18.899  0.00  0.00    +0.000 C 
ATOM      8  C   UNL     1       1.386   3.918  18.307  0.00  0.00    +0.000 C 
ATOM      9  O   UNL     1       1.026   4.041  17.135  0.00  0.00    +0.000 OA
ATOM     10  N   UNL     1       1.842   4.969  19.087  0.00  0.00    +0.000 N 
ATOM     11  C   UNL     1       2.265   4.778  20.476  0.00  0.00    +0.000 C 
BRANCH  10  12
ATOM     12  C   UNL     1       2.190   6.269  18.491  0.00  0.00    +0.000 C 
BRANCH  12  13
ATOM     13  C   UNL     1       2.727   7.361  19.423  0.00  0.00    +0.000 C 
BRANCH  13  14
ATOM     14  C   UNL     1       1.648   8.356  19.784  0.00  0.00    +0.000 A 
ATOM     15  C   UNL     1       1.010   8.281  21.033  0.00  0.00    +0.000 A 
ATOM     16  C   UNL     1      -0.001   9.183  21.374  0.00  0.00    +0.000 A 
ATOM     17  C   UNL     1      -0.386  10.165  20.465  0.00  0.00    +0.000 A 
ATOM     18  C   UNL     1       0.243  10.239  19.227  0.00  0.00    +0.000 A 
ATOM     19  F   UNL     1      -0.132  11.182  18.355  0.00  0.00    +0.000 F 
ATOM     20  C   UNL     1       1.250   9.347  18.878  0.00  0.00    +0.000 A 
ENDBRANCH  13  14
ENDBRANCH  12  13
ENDBRANCH  10  12
ENDBRANCH   2   5
BRANCH   3  21
ATOM     21  C   UNL     1       6.054   4.322  18.951  0.00  0.00    +0.000 C 
BRANCH  21  22
ATOM     22  C   UNL     1       6.192   5.449  17.931  0.00  0.00    +0.000 C 
BRANCH  22  23
ATOM     23  C   UNL     1       6.130   4.969  16.505  0.00  0.00    +0.000 A 
ATOM     24  C   UNL     1       7.151   5.291  15.601  0.00  0.00    +0.000 A 
ATOM     25  C   UNL     1       7.105   4.830  14.284  0.00  0.00    +0.000 A 
ATOM     26  C   UNL     1       6.033   4.043  13.841  0.00  0.00    +0.000 A 
ATOM     27  C   UNL     1       5.005   3.732  14.744  0.00  0.00    +0.000 A 
ATOM     28  C   UNL     1       5.051   4.193  16.062  0.00  0.00    +0.000 A 
BRANCH  26  29
ATOM     29  C   UNL     1       5.971   3.531  12.423  0.00  0.00    +0.000 C 
ATOM     30  F   UNL     1       4.801   3.818  11.788  0.00  0.00    +0.000 F 
ATOM     31  F   UNL     1       6.956   4.051  11.638  0.00  0.00    +0.000 F 
ATOM     32  F   UNL     1       6.112   2.178  12.350  0.00  0.00    +0.000 F 
ENDBRANCH  26  29
ENDBRANCH  22  23
ENDBRANCH  21  22
ENDBRANCH   3  21
TORSDOF 8
ENDMDL
MODEL 9
REMARK VINA RESULT:      -8.4      1.221      2.054
REMARK  Name = 
REMARK  8 active torsions:
REMARK  status: ('A' for Active; 'I' for Inactive)
REMARK    1  A    between atoms: C_2  and  C_16
REMARK    2  A    between atoms: N_3  and  C_4
REMARK    3  A    between atoms: C_4  and  C_5
REMARK    4  A    between atoms: C_5  and  C_6
REMARK    5  A    between atoms: C_9  and  C_10
REMARK    6  A    between atoms: N_21  and  C_22
REMARK    7  A    between atoms: C_22  and  C_23
REMARK    8  A    between atoms: C_23  and  C_24
REMARK                            x       y       z     vdW  Elec       q    Type
REMARK                         _______ _______ _______ _____ _____    ______ ____
ROOT
ATOM      1  O   UNL     1       4.756   2.296  20.037  0.00  0.00    +0.000 OA
ATOM      2  C   UNL     1       4.238   3.409  20.068  0.00  0.00    +0.000 C 
ATOM      3  N   UNL     1       4.801   4.495  19.436  0.00  0.00    +0.000 N 
ATOM      4  H   UNL     1       4.350   5.399  19.492  0.00  0.00    +0.000 HD
ENDROOT
BRANCH   2   5
ATOM      5  C   UNL     1       2.890   3.688  20.735  0.00  0.00    +0.000 C 
ATOM      6  C   UNL     1       1.809   2.655  20.448  0.00  0.00    +0.000 C 
ATOM      7  C   UNL     1       1.418   2.642  18.984  0.00  0.00    +0.000 C 
ATOM      8  C   UNL     1       1.418   3.973  18.251  0.00  0.00    +0.000 C 
ATOM      9  O   UNL     1       1.042   3.978  17.078  0.00  0.00    +0.000 OA
ATOM     10  N   UNL     1       1.893   5.094  18.913  0.00  0.00    +0.000 N 
ATOM     11  C   UNL     1       2.335   5.043  20.308  0.00  0.00    +0.000 C 
BRANCH  10  12
ATOM     12  C   UNL     1       2.243   6.323  18.181  0.00  0.00    +0.000 C 
BRANCH  12  13
ATOM     13  C   UNL     1       2.741   7.522  18.996  0.00  0.00    +0.000 C 
BRANCH  13  14
ATOM     14  C   UNL     1       1.628   8.510  19.260  0.00  0.00    +0.000 A 
ATOM     15  C   UNL     1       1.193   9.369  18.238  0.00  0.00    +0.000 A 
ATOM     16  C   UNL     1       0.178  10.299  18.471  0.00  0.00    +0.000 A 
ATOM     17  C   UNL     1      -0.408  10.382  19.732  0.00  0.00    +0.000 A 
ATOM     18  C   UNL     1       0.025   9.534  20.746  0.00  0.00    +0.000 A 
ATOM     19  F   UNL     1      -0.538   9.618  21.958  0.00  0.00    +0.000 F 
ATOM     20  C   UNL     1       1.034   8.604  20.524  0.00  0.00    +0.000 A 
ENDBRANCH  13  14
ENDBRANCH  12  13
ENDBRANCH  10  12
ENDBRANCH   2   5
BRANCH   3  21
ATOM     21  C   UNL     1       6.099   4.399  18.788  0.00  0.00    +0.000 C 
BRANCH  21  22
ATOM     22  C   UNL     1       6.287   5.506  17.754  0.00  0.00    +0.000 C 
BRANCH  22  23
ATOM     23  C   UNL     1       6.277   4.999  16.335  0.00  0.00    +0.000 A 
ATOM     24  C   UNL     1       5.150   4.342  15.824  0.00  0.00    +0.000 A 
ATOM     25  C   UNL     1       5.131   3.889  14.503  0.00  0.00    +0.000 A 
ATOM     26  C   UNL     1       6.242   4.078  13.669  0.00  0.00    +0.000 A 
ATOM     27  C   UNL     1       7.374   4.725  14.187  0.00  0.00    +0.000 A 
ATOM     28  C   UNL     1       7.393   5.178  15.508  0.00  0.00    +0.000 A 
BRANCH  26  29
ATOM     29  C   UNL     1       6.235   3.601  12.237  0.00  0.00    +0.000 C 
ATOM     30  F   UNL     1       6.689   2.326  12.083  0.00  0.00    +0.000 F 
ATOM     31  F   UNL     1       4.987   3.619  11.689  0.00  0.00    +0.000 F 
ATOM     32  F   UNL     1       7.009   4.373  11.426  0.00  0.00    +0.000 F 
ENDBRANCH  26  29
ENDBRANCH  22  23
ENDBRANCH  21  22
ENDBRANCH   3  21
TORSDOF 8
ENDMDL
