MODEL 1
REMARK VINA RESULT:      -8.9      0.000      0.000
REMARK  Name = 
REMARK  6 active torsions:
REMARK  status: ('A' for Active; 'I' for Inactive)
REMARK    1  A    between atoms: C_1  and  N_2
REMARK    2  A    between atoms: C_4  and  C_5
REMARK    3  A    between atoms: C_9  and  C_10
REMARK    4  A    between atoms: N_12  and  C_13
REMARK    5  A    between atoms: C_21  and  O_22
REMARK    6  A    between atoms: O_22  and  C_23
REMARK                            x       y       z     vdW  Elec       q    Type
REMARK                         _______ _______ _______ _____ _____    ______ ____
ROOT
ATOM      1  C   UNL     1       5.372   1.337  20.472  0.00  0.00    +0.000 C 
ATOM      2  N   UNL     1       4.327   2.294  20.185  0.00  0.00    +0.000 N 
ATOM      3  N   UNL     1       3.110   2.066  20.701  0.00  0.00    +0.000 NA
ATOM      4  C   UNL     1       2.375   3.123  20.309  0.00  0.00    +0.000 A 
ATOM      5  C   UNL     1       3.142   3.998  19.469  0.00  0.00    +0.000 A 
ATOM      6  C   UNL     1       4.431   3.473  19.481  0.00  0.00    +0.000 A 
ENDROOT
BRANCH   4   7
ATOM      7  C   UNL     1       0.933   3.307  20.718  0.00  0.00    +0.000 C 
ATOM      8  F   UNL     1       0.058   2.800  19.804  0.00  0.00    +0.000 F 
ATOM      9  F   UNL     1       0.642   2.690  21.892  0.00  0.00    +0.000 F 
ATOM     10  F   UNL     1       0.613   4.623  20.856  0.00  0.00    +0.000 F 
ENDBRANCH   4   7
BRANCH   5  11
ATOM     11  C   UNL     1       2.614   5.221  18.894  0.00  0.00    +0.000 C 
ATOM     12  O   UNL     1       2.127   5.182  17.771  0.00  0.00    +0.000 OA
ATOM     13  N   UNL     1       2.747   6.376  19.643  0.00  0.00    +0.000 N 
ATOM     14  H   UNL     1       3.337   6.348  20.470  0.00  0.00    +0.000 HD
BRANCH  13  15
ATOM     15  C   UNL     1       2.213   7.640  19.294  0.00  0.00    +0.000 A 
ATOM     16  C   UNL     1       2.439   8.251  18.053  0.00  0.00    +0.000 A 
ATOM     17  C   UNL     1       1.944   9.530  17.790  0.00  0.00    +0.000 A 
ATOM     18  C   UNL     1       1.209  10.196  18.761  0.00  0.00    +0.000 A 
ATOM     19  F   UNL     1       0.768  11.435  18.514  0.00  0.00    +0.000 F 
ATOM     20  C   UNL     1       0.926   9.593  19.978  0.00  0.00    +0.000 A 
ATOM     21  C   UNL     1       1.418   8.315  20.229  0.00  0.00    +0.000 A 
ATOM     22  F   UNL     1       1.149   7.735  21.409  0.00  0.00    +0.000 F 
ENDBRANCH  13  15
ENDBRANCH   5  11
BRANCH   6  23
ATOM     23  O   UNL     1       5.626   3.861  19.011  0.00  0.00    +0.000 OA
BRANCH  23  24
ATOM     24  C   UNL     1       5.748   4.675  17.908  0.00  0.00    +0.000 A 
ATOM     25  C   UNL     1       5.970   6.053  17.998  0.00  0.00    +0.000 A 
ATOM     26  C   UNL     1       5.960   6.840  16.845  0.00  0.00    +0.000 A 
ATOM     27  C   UNL     1       5.799   6.243  15.596  0.00  0.00    +0.000 A 
ATOM     28  C   UNL     1       5.666   4.858  15.505  0.00  0.00    +0.000 A 
ATOM     29 CL   UNL     1       5.508   4.121  13.958  0.00  0.00    +0.000 Cl
ATOM     30  C   UNL     1       5.641   4.068  16.655  0.00  0.00    +0.000 A 
ENDBRANCH  23  24
ENDBRANCH   6  23
TORSDOF 5
ENDMDL
MODEL 2
REMARK VINA RESULT:      -8.9      1.134      1.433
REMARK  Name = 
REMARK  6 active torsions:
REMARK  status: ('A' for Active; 'I' for Inactive)
REMARK    1  A    between atoms: C_1  and  N_2
REMARK    2  A    between atoms: C_4  and  C_5
REMARK    3  A    between atoms: C_9  and  C_10
REMARK    4  A    between atoms: N_12  and  C_13
REMARK    5  A    between atoms: C_21  and  O_22
REMARK    6  A    between atoms: O_22  and  C_23
REMARK                            x       y       z     vdW  Elec       q    Type
REMARK                         _______ _______ _______ _____ _____    ______ ____
ROOT
ATOM      1  C   UNL     1       5.412   1.339  20.790  0.00  0.00    +0.000 C 
ATOM      2  N   UNL     1       4.387   2.284  20.406  0.00  0.00    +0.000 N 
ATOM      3  N   UNL     1       3.131   2.044  20.809  0.00  0.00    +0.000 NA
ATOM      4  C   UNL     1       2.424   3.093  20.349  0.00  0.00    +0.000 A 
ATOM      5  C   UNL     1       3.255   3.974  19.580  0.00  0.00    +0.000 A 
ATOM      6  C   UNL     1       4.542   3.462  19.711  0.00  0.00    +0.000 A 
ENDROOT
BRANCH   4   7
ATOM      7  C   UNL     1       0.948   3.263  20.624  0.00  0.00    +0.000 C 
ATOM      8  F   UNL     1       0.167   2.769  19.624  0.00  0.00    +0.000 F 
ATOM      9  F   UNL     1       0.553   2.622  21.755  0.00  0.00    +0.000 F 
ATOM     10  F   UNL     1       0.609   4.574  20.756  0.00  0.00    +0.000 F 
ENDBRANCH   4   7
BRANCH   5  11
ATOM     11  C   UNL     1       2.769   5.191  18.956  0.00  0.00    +0.000 C 
ATOM     12  O   UNL     1       2.396   5.146  17.790  0.00  0.00    +0.000 OA
ATOM     13  N   UNL     1       2.811   6.346  19.715  0.00  0.00    +0.000 N 
ATOM     14  H   UNL     1       3.316   6.325  20.596  0.00  0.00    +0.000 HD
BRANCH  13  15
ATOM     15  C   UNL     1       2.296   7.603  19.315  0.00  0.00    +0.000 A 
ATOM     16  C   UNL     1       2.587   8.190  18.076  0.00  0.00    +0.000 A 
ATOM     17  C   UNL     1       2.107   9.464  17.763  0.00  0.00    +0.000 A 
ATOM     18  C   UNL     1       1.322  10.147  18.682  0.00  0.00    +0.000 A 
ATOM     19  F   UNL     1       0.895  11.382  18.390  0.00  0.00    +0.000 F 
ATOM     20  C   UNL     1       0.976   9.568  19.895  0.00  0.00    +0.000 A 
ATOM     21  C   UNL     1       1.454   8.295  20.194  0.00  0.00    +0.000 A 
ATOM     22  F   UNL     1       1.123   7.737  21.370  0.00  0.00    +0.000 F 
ENDBRANCH  13  15
ENDBRANCH   5  11
BRANCH   6  23
ATOM     23  O   UNL     1       5.772   3.862  19.351  0.00  0.00    +0.000 OA
BRANCH  23  24
ATOM     24  C   UNL     1       5.993   4.614  18.219  0.00  0.00    +0.000 A 
ATOM     25  C   UNL     1       5.631   4.188  16.938  0.00  0.00    +0.000 A 
ATOM     26  C   UNL     1       5.994   4.942  15.821  0.00  0.00    +0.000 A 
ATOM     27  C   UNL     1       6.658   6.157  15.988  0.00  0.00    +0.000 A 
ATOM     28  C   UNL     1       6.939   6.620  17.272  0.00  0.00    +0.000 A 
ATOM     29 CL   UNL     1       7.722   8.139  17.474  0.00  0.00    +0.000 Cl
ATOM     30  C   UNL     1       6.608   5.856  18.392  0.00  0.00    +0.000 A 
ENDBRANCH  23  24
ENDBRANCH   6  23
TORSDOF 5
ENDMDL
MODEL 3
REMARK VINA RESULT:      -8.6      1.424      2.009
REMARK  Name = 
REMARK  6 active torsions:
REMARK  status: ('A' for Active; 'I' for Inactive)
REMARK    1  A    between atoms: C_1  and  N_2
REMARK    2  A    between atoms: C_4  and  C_5
REMARK    3  A    between atoms: C_9  and  C_10
REMARK    4  A    between atoms: N_12  and  C_13
REMARK    5  A    between atoms: C_21  and  O_22
REMARK    6  A    between atoms: O_22  and  C_23
REMARK                            x       y       z     vdW  Elec       q    Type
REMARK                         _______ _______ _______ _____ _____    ______ ____
ROOT
ATOM      1  C   UNL     1       5.405   1.338  20.670  0.00  0.00    +0.000 C 
ATOM      2  N   UNL     1       4.347   2.264  20.333  0.00  0.00    +0.000 N 
ATOM      3  N   UNL     1       3.100   1.959  20.722  0.00  0.00    +0.000 NA
ATOM      4  C   UNL     1       2.356   3.004  20.314  0.00  0.00    +0.000 A 
ATOM      5  C   UNL     1       3.155   3.952  19.592  0.00  0.00    +0.000 A 
ATOM      6  C   UNL     1       4.460   3.480  19.698  0.00  0.00    +0.000 A 
ENDROOT
BRANCH   4   7
ATOM      7  C   UNL     1       0.876   3.107  20.596  0.00  0.00    +0.000 C 
ATOM      8  F   UNL     1       0.436   4.396  20.633  0.00  0.00    +0.000 F 
ATOM      9  F   UNL     1       0.122   2.484  19.654  0.00  0.00    +0.000 F 
ATOM     10  F   UNL     1       0.555   2.565  21.803  0.00  0.00    +0.000 F 
ENDBRANCH   4   7
BRANCH   5  11
ATOM     11  C   UNL     1       2.625   5.180  19.029  0.00  0.00    +0.000 C 
ATOM     12  O   UNL     1       2.086   5.140  17.930  0.00  0.00    +0.000 OA
ATOM     13  N   UNL     1       2.817   6.339  19.759  0.00  0.00    +0.000 N 
ATOM     14  H   UNL     1       3.443   6.307  20.557  0.00  0.00    +0.000 HD
BRANCH  13  15
ATOM     15  C   UNL     1       2.293   7.610  19.421  0.00  0.00    +0.000 A 
ATOM     16  C   UNL     1       1.401   8.313  20.243  0.00  0.00    +0.000 A 
ATOM     17  C   UNL     1       0.862   9.533  19.827  0.00  0.00    +0.000 A 
ATOM     18  C   UNL     1       1.224  10.060  18.595  0.00  0.00    +0.000 A 
ATOM     19  F   UNL     1       0.676  11.211  18.187  0.00  0.00    +0.000 F 
ATOM     20  C   UNL     1       2.145   9.410  17.785  0.00  0.00    +0.000 A 
ATOM     21  C   UNL     1       2.682   8.199  18.212  0.00  0.00    +0.000 A 
ATOM     22  F   UNL     1       3.569   7.568  17.425  0.00  0.00    +0.000 F 
ENDBRANCH  13  15
ENDBRANCH   5  11
BRANCH   6  23
ATOM     23  O   UNL     1       5.674   3.941  19.360  0.00  0.00    +0.000 OA
BRANCH  23  24
ATOM     24  C   UNL     1       5.879   4.696  18.227  0.00  0.00    +0.000 A 
ATOM     25  C   UNL     1       5.422   4.312  16.962  0.00  0.00    +0.000 A 
ATOM     26  C   UNL     1       5.770   5.059  15.836  0.00  0.00    +0.000 A 
ATOM     27  C   UNL     1       6.515   6.228  15.980  0.00  0.00    +0.000 A 
ATOM     28  C   UNL     1       6.894   6.654  17.252  0.00  0.00    +0.000 A 
ATOM     29 CL   UNL     1       7.778   8.119  17.429  0.00  0.00    +0.000 Cl
ATOM     30  C   UNL     1       6.578   5.895  18.379  0.00  0.00    +0.000 A 
ENDBRANCH  23  24
ENDBRANCH   6  23
TORSDOF 5
ENDMDL
MODEL 4
REMARK VINA RESULT:      -8.5      1.548      1.817
REMARK  Name = 
REMARK  6 active torsions:
REMARK  status: ('A' for Active; 'I' for Inactive)
REMARK    1  A    between atoms: C_1  and  N_2
REMARK    2  A    between atoms: C_4  and  C_5
REMARK    3  A    between atoms: C_9  and  C_10
REMARK    4  A    between atoms: N_12  and  C_13
REMARK    5  A    between atoms: C_21  and  O_22
REMARK    6  A    between atoms: O_22  and  C_23
REMARK                            x       y       z     vdW  Elec       q    Type
REMARK                         _______ _______ _______ _____ _____    ______ ____
ROOT
ATOM      1  C   UNL     1       4.406   0.766  18.488  0.00  0.00    +0.000 C 
ATOM      2  N   UNL     1       3.620   1.947  18.769  0.00  0.00    +0.000 N 
ATOM      3  N   UNL     1       3.001   2.019  19.956  0.00  0.00    +0.000 NA
ATOM      4  C   UNL     1       2.397   3.222  19.948  0.00  0.00    +0.000 A 
ATOM      5  C   UNL     1       2.594   3.886  18.691  0.00  0.00    +0.000 A 
ATOM      6  C   UNL     1       3.465   3.065  17.982  0.00  0.00    +0.000 A 
ENDROOT
BRANCH   4   7
ATOM      7  C   UNL     1       1.618   3.749  21.130  0.00  0.00    +0.000 C 
ATOM      8  F   UNL     1       0.492   4.421  20.759  0.00  0.00    +0.000 F 
ATOM      9  F   UNL     1       1.203   2.760  21.962  0.00  0.00    +0.000 F 
ATOM     10  F   UNL     1       2.354   4.624  21.868  0.00  0.00    +0.000 F 
ENDBRANCH   4   7
BRANCH   5  11
ATOM     11  C   UNL     1       2.058   5.200  18.388  0.00  0.00    +0.000 C 
ATOM     12  O   UNL     1       1.192   5.300  17.528  0.00  0.00    +0.000 OA
ATOM     13  N   UNL     1       2.609   6.274  19.064  0.00  0.00    +0.000 N 
ATOM     14  H   UNL     1       3.451   6.118  19.610  0.00  0.00    +0.000 HD
BRANCH  13  15
ATOM     15  C   UNL     1       2.156   7.613  18.974  0.00  0.00    +0.000 A 
ATOM     16  C   UNL     1       2.370   8.419  17.847  0.00  0.00    +0.000 A 
ATOM     17  C   UNL     1       1.961   9.754  17.842  0.00  0.00    +0.000 A 
ATOM     18  C   UNL     1       1.325  10.283  18.956  0.00  0.00    +0.000 A 
ATOM     19  F   UNL     1       0.968  11.573  18.957  0.00  0.00    +0.000 F 
ATOM     20  C   UNL     1       1.055   9.493  20.065  0.00  0.00    +0.000 A 
ATOM     21  C   UNL     1       1.459   8.161  20.058  0.00  0.00    +0.000 A 
ATOM     22  F   UNL     1       1.202   7.398  21.133  0.00  0.00    +0.000 F 
ENDBRANCH  13  15
ENDBRANCH   5  11
BRANCH   6  23
ATOM     23  O   UNL     1       4.127   3.154  16.818  0.00  0.00    +0.000 OA
BRANCH  23  24
ATOM     24  C   UNL     1       5.177   4.027  16.638  0.00  0.00    +0.000 A 
ATOM     25  C   UNL     1       5.633   4.422  15.377  0.00  0.00    +0.000 A 
ATOM     26  C   UNL     1       6.778   5.211  15.263  0.00  0.00    +0.000 A 
ATOM     27  C   UNL     1       7.427   5.666  16.410  0.00  0.00    +0.000 A 
ATOM     28  C   UNL     1       6.917   5.342  17.666  0.00  0.00    +0.000 A 
ATOM     29 CL   UNL     1       7.698   5.939  19.078  0.00  0.00    +0.000 Cl
ATOM     30  C   UNL     1       5.792   4.526  17.788  0.00  0.00    +0.000 A 
ENDBRANCH  23  24
ENDBRANCH   6  23
TORSDOF 5
ENDMDL
MODEL 5
REMARK VINA RESULT:      -8.5      1.044      1.203
REMARK  Name = 
REMARK  6 active torsions:
REMARK  status: ('A' for Active; 'I' for Inactive)
REMARK    1  A    between atoms: C_1  and  N_2
REMARK    2  A    between atoms: C_4  and  C_5
REMARK    3  A    between atoms: C_9  and  C_10
REMARK    4  A    between atoms: N_12  and  C_13
REMARK    5  A    between atoms: C_21  and  O_22
REMARK    6  A    between atoms: O_22  and  C_23
REMARK                            x       y       z     vdW  Elec       q    Type
REMARK                         _______ _______ _______ _____ _____    ______ ____
ROOT
ATOM      1  C   UNL     1       5.135   1.253  20.190  0.00  0.00    +0.000 C 
ATOM      2  N   UNL     1       4.250   2.301  19.733  0.00  0.00    +0.000 N 
ATOM      3  N   UNL     1       2.941   2.023  19.644  0.00  0.00    +0.000 NA
ATOM      4  C   UNL     1       2.378   3.177  19.243  0.00  0.00    +0.000 A 
ATOM      5  C   UNL     1       3.375   4.182  19.013  0.00  0.00    +0.000 A 
ATOM      6  C   UNL     1       4.572   3.604  19.424  0.00  0.00    +0.000 A 
ENDROOT
BRANCH   4   7
ATOM      7  C   UNL     1       0.886   3.335  19.064  0.00  0.00    +0.000 C 
ATOM      8  F   UNL     1       0.561   3.992  17.916  0.00  0.00    +0.000 F 
ATOM      9  F   UNL     1       0.240   2.141  19.004  0.00  0.00    +0.000 F 
ATOM     10  F   UNL     1       0.331   4.051  20.079  0.00  0.00    +0.000 F 
ENDBRANCH   4   7
BRANCH   5  11
ATOM     11  C   UNL     1       3.067   5.530  18.572  0.00  0.00    +0.000 C 
ATOM     12  O   UNL     1       3.326   5.846  17.417  0.00  0.00    +0.000 OA
ATOM     13  N   UNL     1       2.542   6.395  19.515  0.00  0.00    +0.000 N 
ATOM     14  H   UNL     1       2.547   6.104  20.489  0.00  0.00    +0.000 HD
BRANCH  13  15
ATOM     15  C   UNL     1       2.092   7.711  19.253  0.00  0.00    +0.000 A 
ATOM     16  C   UNL     1       2.318   8.369  18.036  0.00  0.00    +0.000 A 
ATOM     17  C   UNL     1       1.911   9.693  17.858  0.00  0.00    +0.000 A 
ATOM     18  C   UNL     1       1.265  10.358  18.891  0.00  0.00    +0.000 A 
ATOM     19  F   UNL     1       0.910  11.638  18.726  0.00  0.00    +0.000 F 
ATOM     20  C   UNL     1       0.983   9.714  20.087  0.00  0.00    +0.000 A 
ATOM     21  C   UNL     1       1.386   8.392  20.252  0.00  0.00    +0.000 A 
ATOM     22  F   UNL     1       1.118   7.771  21.412  0.00  0.00    +0.000 F 
ENDBRANCH  13  15
ENDBRANCH   5  11
BRANCH   6  23
ATOM     23  O   UNL     1       5.836   4.029  19.581  0.00  0.00    +0.000 OA
BRANCH  23  24
ATOM     24  C   UNL     1       6.452   4.845  18.659  0.00  0.00    +0.000 A 
ATOM     25  C   UNL     1       7.110   6.028  19.008  0.00  0.00    +0.000 A 
ATOM     26  C   UNL     1       7.607   6.872  18.014  0.00  0.00    +0.000 A 
ATOM     27  C   UNL     1       7.509   6.500  16.673  0.00  0.00    +0.000 A 
ATOM     28  C   UNL     1       6.930   5.278  16.336  0.00  0.00    +0.000 A 
ATOM     29 CL   UNL     1       6.848   4.805  14.684  0.00  0.00    +0.000 Cl
ATOM     30  C   UNL     1       6.402   4.445  17.323  0.00  0.00    +0.000 A 
ENDBRANCH  23  24
ENDBRANCH   6  23
TORSDOF 5
ENDMDL
MODEL 6
REMARK VINA RESULT:      -8.4      0.885      1.442
REMARK  Name = 
REMARK  6 active torsions:
REMARK  status: ('A' for Active; 'I' for Inactive)
REMARK    1  A    between atoms: C_1  and  N_2
REMARK    2  A    between atoms: C_4  and  C_5
REMARK    3  A    between atoms: C_9  and  C_10
REMARK    4  A    between atoms: N_12  and  C_13
REMARK    5  A    between atoms: C_21  and  O_22
REMARK    6  A    between atoms: O_22  and  C_23
REMARK                            x       y       z     vdW  Elec       q    Type
REMARK                         _______ _______ _______ _____ _____    ______ ____
ROOT
ATOM      1  C   UNL     1       5.380   1.432  20.523  0.00  0.00    +0.000 C 
ATOM      2  N   UNL     1       4.316   2.360  20.213  0.00  0.00    +0.000 N 
ATOM      3  N   UNL     1       3.074   2.044  20.608  0.00  0.00    +0.000 NA
ATOM      4  C   UNL     1       2.323   3.093  20.226  0.00  0.00    +0.000 A 
ATOM      5  C   UNL     1       3.111   4.057  19.514  0.00  0.00    +0.000 A 
ATOM      6  C   UNL     1       4.419   3.589  19.600  0.00  0.00    +0.000 A 
ENDROOT
BRANCH   4   7
ATOM      7  C   UNL     1       0.845   3.186  20.524  0.00  0.00    +0.000 C 
ATOM      8  F   UNL     1       0.505   2.572  21.692  0.00  0.00    +0.000 F 
ATOM      9  F   UNL     1       0.417   4.470  20.642  0.00  0.00    +0.000 F 
ATOM     10  F   UNL     1       0.098   2.592  19.554  0.00  0.00    +0.000 F 
ENDBRANCH   4   7
BRANCH   5  11
ATOM     11  C   UNL     1       2.572   5.294  18.979  0.00  0.00    +0.000 C 
ATOM     12  O   UNL     1       2.036   5.275  17.877  0.00  0.00    +0.000 OA
ATOM     13  N   UNL     1       2.751   6.437  19.736  0.00  0.00    +0.000 N 
ATOM     14  H   UNL     1       3.375   6.391  20.536  0.00  0.00    +0.000 HD
BRANCH  13  15
ATOM     15  C   UNL     1       2.216   7.711  19.427  0.00  0.00    +0.000 A 
ATOM     16  C   UNL     1       1.363   8.413  20.290  0.00  0.00    +0.000 A 
ATOM     17  C   UNL     1       0.810   9.635  19.903  0.00  0.00    +0.000 A 
ATOM     18  C   UNL     1       1.120  10.167  18.658  0.00  0.00    +0.000 A 
ATOM     19  F   UNL     1       0.558  11.321  18.280  0.00  0.00    +0.000 F 
ATOM     20  C   UNL     1       2.002   9.518  17.806  0.00  0.00    +0.000 A 
ATOM     21  C   UNL     1       2.555   8.303  18.204  0.00  0.00    +0.000 A 
ATOM     22  F   UNL     1       3.404   7.673  17.377  0.00  0.00    +0.000 F 
ENDBRANCH  13  15
ENDBRANCH   5  11
BRANCH   6  23
ATOM     23  O   UNL     1       5.628   4.060  19.259  0.00  0.00    +0.000 OA
BRANCH  23  24
ATOM     24  C   UNL     1       5.828   4.797  18.113  0.00  0.00    +0.000 A 
ATOM     25  C   UNL     1       6.259   6.127  18.128  0.00  0.00    +0.000 A 
ATOM     26  C   UNL     1       6.324   6.855  16.939  0.00  0.00    +0.000 A 
ATOM     27  C   UNL     1       6.025   6.235  15.727  0.00  0.00    +0.000 A 
ATOM     28  C   UNL     1       5.681   4.884  15.708  0.00  0.00    +0.000 A 
ATOM     29 CL   UNL     1       5.353   4.113  14.205  0.00  0.00    +0.000 Cl
ATOM     30  C   UNL     1       5.582   4.159  16.896  0.00  0.00    +0.000 A 
ENDBRANCH  23  24
ENDBRANCH   6  23
TORSDOF 5
ENDMDL
MODEL 7
REMARK VINA RESULT:      -8.3      1.174      1.377
REMARK  Name = 
REMARK  6 active torsions:
REMARK  status: ('A' for Active; 'I' for Inactive)
REMARK    1  A    between atoms: C_1  and  N_2
REMARK    2  A    between atoms: C_4  and  C_5
REMARK    3  A    between atoms: C_9  and  C_10
REMARK    4  A    between atoms: N_12  and  C_13
REMARK    5  A    between atoms: C_21  and  O_22
REMARK    6  A    between atoms: O_22  and  C_23
REMARK                            x       y       z     vdW  Elec       q    Type
REMARK                         _______ _______ _______ _____ _____    ______ ____
ROOT
ATOM      1  C   UNL     1       4.428   0.736  18.491  0.00  0.00    +0.000 C 
ATOM      2  N   UNL     1       3.641   1.916  18.771  0.00  0.00    +0.000 N 
ATOM      3  N   UNL     1       3.026   1.990  19.960  0.00  0.00    +0.000 NA
ATOM      4  C   UNL     1       2.420   3.192  19.951  0.00  0.00    +0.000 A 
ATOM      5  C   UNL     1       2.611   3.853  18.692  0.00  0.00    +0.000 A 
ATOM      6  C   UNL     1       3.482   3.032  17.981  0.00  0.00    +0.000 A 
ENDROOT
BRANCH   4   7
ATOM      7  C   UNL     1       1.644   3.721  21.134  0.00  0.00    +0.000 C 
ATOM      8  F   UNL     1       1.243   2.733  21.983  0.00  0.00    +0.000 F 
ATOM      9  F   UNL     1       2.370   4.586  21.888  0.00  0.00    +0.000 F 
ATOM     10  F   UNL     1       0.511   4.366  20.744  0.00  0.00    +0.000 F 
ENDBRANCH   4   7
BRANCH   5  11
ATOM     11  C   UNL     1       2.073   5.166  18.387  0.00  0.00    +0.000 C 
ATOM     12  O   UNL     1       1.202   5.261  17.531  0.00  0.00    +0.000 OA
ATOM     13  N   UNL     1       2.625   6.242  19.058  0.00  0.00    +0.000 N 
ATOM     14  H   UNL     1       3.470   6.089  19.600  0.00  0.00    +0.000 HD
BRANCH  13  15
ATOM     15  C   UNL     1       2.170   7.580  18.965  0.00  0.00    +0.000 A 
ATOM     16  C   UNL     1       2.361   8.377  17.828  0.00  0.00    +0.000 A 
ATOM     17  C   UNL     1       1.952   9.712  17.820  0.00  0.00    +0.000 A 
ATOM     18  C   UNL     1       1.338  10.250  18.943  0.00  0.00    +0.000 A 
ATOM     19  F   UNL     1       0.981  11.540  18.940  0.00  0.00    +0.000 F 
ATOM     20  C   UNL     1       1.090   9.468  20.062  0.00  0.00    +0.000 A 
ATOM     21  C   UNL     1       1.494   8.136  20.058  0.00  0.00    +0.000 A 
ATOM     22  F   UNL     1       1.259   7.383  21.144  0.00  0.00    +0.000 F 
ENDBRANCH  13  15
ENDBRANCH   5  11
BRANCH   6  23
ATOM     23  O   UNL     1       4.140   3.118  16.815  0.00  0.00    +0.000 OA
BRANCH  23  24
ATOM     24  C   UNL     1       5.235   3.938  16.653  0.00  0.00    +0.000 A 
ATOM     25  C   UNL     1       5.825   4.639  17.709  0.00  0.00    +0.000 A 
ATOM     26  C   UNL     1       6.854   5.547  17.457  0.00  0.00    +0.000 A 
ATOM     27  C   UNL     1       7.341   5.705  16.160  0.00  0.00    +0.000 A 
ATOM     28  C   UNL     1       6.808   4.938  15.125  0.00  0.00    +0.000 A 
ATOM     29 CL   UNL     1       7.441   5.105  13.533  0.00  0.00    +0.000 Cl
ATOM     30  C   UNL     1       5.758   4.052  15.363  0.00  0.00    +0.000 A 
ENDBRANCH  23  24
ENDBRANCH   6  23
TORSDOF 5
ENDMDL
MODEL 8
REMARK VINA RESULT:      -8.1      1.785      2.369
REMARK  Name = 
REMARK  6 active torsions:
REMARK  status: ('A' for Active; 'I' for Inactive)
REMARK    1  A    between atoms: C_1  and  N_2
REMARK    2  A    between atoms: C_4  and  C_5
REMARK    3  A    between atoms: C_9  and  C_10
REMARK    4  A    between atoms: N_12  and  C_13
REMARK    5  A    between atoms: C_21  and  O_22
REMARK    6  A    between atoms: O_22  and  C_23
REMARK                            x       y       z     vdW  Elec       q    Type
REMARK                         _______ _______ _______ _____ _____    ______ ____
ROOT
ATOM      1  C   UNL     1       4.174   0.823  18.223  0.00  0.00    +0.000 C 
ATOM      2  N   UNL     1       3.446   2.020  18.580  0.00  0.00    +0.000 N 
ATOM      3  N   UNL     1       2.894   2.077  19.801  0.00  0.00    +0.000 NA
ATOM      4  C   UNL     1       2.333   3.299  19.860  0.00  0.00    +0.000 A 
ATOM      5  C   UNL     1       2.485   3.994  18.615  0.00  0.00    +0.000 A 
ATOM      6  C   UNL     1       3.288   3.167  17.835  0.00  0.00    +0.000 A 
ENDROOT
BRANCH   4   7
ATOM      7  C   UNL     1       1.637   3.815  21.098  0.00  0.00    +0.000 C 
ATOM      8  F   UNL     1       2.402   4.696  21.802  0.00  0.00    +0.000 F 
ATOM      9  F   UNL     1       0.484   4.472  20.810  0.00  0.00    +0.000 F 
ATOM     10  F   UNL     1       1.332   2.807  21.960  0.00  0.00    +0.000 F 
ENDBRANCH   4   7
BRANCH   5  11
ATOM     11  C   UNL     1       1.980   5.334  18.379  0.00  0.00    +0.000 C 
ATOM     12  O   UNL     1       1.113   5.496  17.529  0.00  0.00    +0.000 OA
ATOM     13  N   UNL     1       2.559   6.360  19.105  0.00  0.00    +0.000 N 
ATOM     14  H   UNL     1       3.399   6.157  19.638  0.00  0.00    +0.000 HD
BRANCH  13  15
ATOM     15  C   UNL     1       2.137   7.711  19.083  0.00  0.00    +0.000 A 
ATOM     16  C   UNL     1       1.381   8.294  20.109  0.00  0.00    +0.000 A 
ATOM     17  C   UNL     1       0.935   9.613  20.000  0.00  0.00    +0.000 A 
ATOM     18  C   UNL     1       1.255  10.357  18.873  0.00  0.00    +0.000 A 
ATOM     19  F   UNL     1       0.794  11.609  18.761  0.00  0.00    +0.000 F 
ATOM     20  C   UNL     1       2.046   9.821  17.867  0.00  0.00    +0.000 A 
ATOM     21  C   UNL     1       2.493   8.508  17.987  0.00  0.00    +0.000 A 
ATOM     22  F   UNL     1       3.253   7.989  17.010  0.00  0.00    +0.000 F 
ENDBRANCH  13  15
ENDBRANCH   5  11
BRANCH   6  23
ATOM     23  O   UNL     1       3.890   3.269  16.640  0.00  0.00    +0.000 OA
BRANCH  23  24
ATOM     24  C   UNL     1       5.041   4.003  16.461  0.00  0.00    +0.000 A 
ATOM     25  C   UNL     1       5.613   4.229  15.206  0.00  0.00    +0.000 A 
ATOM     26  C   UNL     1       6.846   4.876  15.105  0.00  0.00    +0.000 A 
ATOM     27  C   UNL     1       7.474   5.359  16.253  0.00  0.00    +0.000 A 
ATOM     28  C   UNL     1       6.856   5.208  17.493  0.00  0.00    +0.000 A 
ATOM     29 CL   UNL     1       7.615   5.842  18.902  0.00  0.00    +0.000 Cl
ATOM     30  C   UNL     1       5.640   4.534  17.605  0.00  0.00    +0.000 A 
ENDBRANCH  23  24
ENDBRANCH   6  23
TORSDOF 5
ENDMDL
MODEL 9
REMARK VINA RESULT:      -7.6      1.711      2.013
REMARK  Name = 
REMARK  6 active torsions:
REMARK  status: ('A' for Active; 'I' for Inactive)
REMARK    1  A    between atoms: C_1  and  N_2
REMARK    2  A    between atoms: C_4  and  C_5
REMARK    3  A    between atoms: C_9  and  C_10
REMARK    4  A    between atoms: N_12  and  C_13
REMARK    5  A    between atoms: C_21  and  O_22
REMARK    6  A    between atoms: O_22  and  C_23
REMARK                            x       y       z     vdW  Elec       q    Type
REMARK                         _______ _______ _______ _____ _____    ______ ____
ROOT
ATOM      1  C   UNL     1       4.559   1.167  17.876  0.00  0.00    +0.000 C 
ATOM      2  N   UNL     1       3.617   2.220  18.182  0.00  0.00    +0.000 N 
ATOM      3  N   UNL     1       2.691   1.979  19.121  0.00  0.00    +0.000 NA
ATOM      4  C   UNL     1       2.001   3.131  19.216  0.00  0.00    +0.000 A 
ATOM      5  C   UNL     1       2.471   4.092  18.260  0.00  0.00    +0.000 A 
ATOM      6  C   UNL     1       3.579   3.495  17.664  0.00  0.00    +0.000 A 
ENDROOT
BRANCH   4   7
ATOM      7  C   UNL     1       0.879   3.327  20.209  0.00  0.00    +0.000 C 
ATOM      8  F   UNL     1       1.020   2.552  21.320  0.00  0.00    +0.000 F 
ATOM      9  F   UNL     1       0.799   4.607  20.656  0.00  0.00    +0.000 F 
ATOM     10  F   UNL     1      -0.329   3.003  19.673  0.00  0.00    +0.000 F 
ENDBRANCH   4   7
BRANCH   5  11
ATOM     11  C   UNL     1       1.917   5.426  18.127  0.00  0.00    +0.000 C 
ATOM     12  O   UNL     1       0.932   5.587  17.417  0.00  0.00    +0.000 OA
ATOM     13  N   UNL     1       2.582   6.450  18.778  0.00  0.00    +0.000 N 
ATOM     14  H   UNL     1       3.494   6.253  19.178  0.00  0.00    +0.000 HD
BRANCH  13  15
ATOM     15  C   UNL     1       2.142   7.794  18.844  0.00  0.00    +0.000 A 
ATOM     16  C   UNL     1       2.321   8.710  17.799  0.00  0.00    +0.000 A 
ATOM     17  C   UNL     1       1.928  10.042  17.947  0.00  0.00    +0.000 A 
ATOM     18  C   UNL     1       1.343  10.459  19.134  0.00  0.00    +0.000 A 
ATOM     19  F   UNL     1       1.002  11.745  19.282  0.00  0.00    +0.000 F 
ATOM     20  C   UNL     1       1.107   9.561  20.166  0.00  0.00    +0.000 A 
ATOM     21  C   UNL     1       1.494   8.233  20.006  0.00  0.00    +0.000 A 
ATOM     22  F   UNL     1       1.271   7.366  21.007  0.00  0.00    +0.000 F 
ENDBRANCH  13  15
ENDBRANCH   5  11
BRANCH   6  23
ATOM     23  O   UNL     1       4.525   3.887  16.797  0.00  0.00    +0.000 OA
BRANCH  23  24
ATOM     24  C   UNL     1       5.415   4.895  17.092  0.00  0.00    +0.000 A 
ATOM     25  C   UNL     1       5.498   6.079  16.353  0.00  0.00    +0.000 A 
ATOM     26  C   UNL     1       6.505   7.006  16.628  0.00  0.00    +0.000 A 
ATOM     27  C   UNL     1       7.385   6.784  17.687  0.00  0.00    +0.000 A 
ATOM     28  C   UNL     1       7.242   5.644  18.476  0.00  0.00    +0.000 A 
ATOM     29 CL   UNL     1       8.305   5.394  19.806  0.00  0.00    +0.000 Cl
ATOM     30  C   UNL     1       6.260   4.697  18.186  0.00  0.00    +0.000 A 
ENDBRANCH  23  24
ENDBRANCH   6  23
TORSDOF 5
ENDMDL
