MODEL 1
REMARK VINA RESULT:      -7.7      0.000      0.000
REMARK  Name = 
REMARK  5 active torsions:
REMARK  status: ('A' for Active; 'I' for Inactive)
REMARK    1  A    between atoms: C_1  and  C_2
REMARK    2  A    between atoms: C_2  and  O_3
REMARK    3  A    between atoms: O_3  and  C_4
REMARK    4  A    between atoms: C_9  and  C_10
REMARK    5  A    between atoms: C_21  and  N_22
REMARK                            x       y       z     vdW  Elec       q    Type
REMARK                         _______ _______ _______ _____ _____    ______ ____
ROOT
ATOM      1  C   UNL     1       0.756  11.669  19.693  0.00  0.00    +0.000 A 
ATOM      2  C   UNL     1       1.199  11.575  18.371  0.00  0.00    +0.000 A 
ATOM      3  C   UNL     1       1.663  10.355  17.861  0.00  0.00    +0.000 A 
ATOM      4  C   UNL     1       1.695   9.219  18.669  0.00  0.00    +0.000 A 
ATOM      5  O   UNL     1       2.142   8.050  18.102  0.00  0.00    +0.000 OA
ATOM      6  C   UNL     1       2.283   6.933  18.915  0.00  0.00    +0.000 A 
ATOM      7  C   UNL     1       1.978   6.885  20.229  0.00  0.00    +0.000 A 
ATOM      8  C   UNL     1       1.378   8.120  20.840  0.00  0.00    +0.000 A 
ATOM      9  O   UNL     1       0.998   8.128  22.009  0.00  0.00    +0.000 OA
ATOM     10  C   UNL     1       1.285   9.316  19.992  0.00  0.00    +0.000 A 
ATOM     11  C   UNL     1       0.813  10.533  20.507  0.00  0.00    +0.000 A 
ENDROOT
BRANCH   6  12
ATOM     12  C   UNL     1       3.043   5.832  18.282  0.00  0.00    +0.000 A 
ATOM     13  C   UNL     1       4.295   6.181  17.744  0.00  0.00    +0.000 A 
ATOM     14  C   UNL     1       5.140   5.206  17.223  0.00  0.00    +0.000 A 
ATOM     15 BR   UNL     1       6.843   5.698  16.568  0.00  0.00    +0.000 Br
ATOM     16  C   UNL     1       4.751   3.871  17.213  0.00  0.00    +0.000 A 
ATOM     17  C   UNL     1       3.513   3.499  17.748  0.00  0.00    +0.000 A 
ATOM     18  C   UNL     1       2.650   4.478  18.272  0.00  0.00    +0.000 A 
ATOM     19  O   UNL     1       1.443   4.132  18.825  0.00  0.00    +0.000 OA
ATOM     20  C   UNL     1       1.078   2.761  18.626  0.00  0.00    +0.000 C 
ATOM     21  O   UNL     1       2.151   1.842  18.788  0.00  0.00    +0.000 OA
ATOM     22  C   UNL     1       3.110   2.057  17.763  0.00  0.00    +0.000 C 
ENDBRANCH   6  12
BRANCH   7  23
ATOM     23  N   UNL     1       2.204   5.826  21.100  0.00  0.00    +0.000 N 
ATOM     24  H   UNL     1       1.631   5.013  20.896  0.00  0.00    +0.000 HD
ATOM     25  H   UNL     1       2.125   6.139  22.072  0.00  0.00    +0.000 HD
ENDBRANCH   7  23
BRANCH   1  26
ATOM     26  O   UNL     1       0.259  12.795  20.292  0.00  0.00    +0.000 OA
BRANCH  26  28
ATOM     27  C   UNL     1      -2.110  12.698  19.886  0.00  0.00    +0.000 C 
ATOM     28  C   UNL     1      -0.820  13.459  19.628  0.00  0.00    +0.000 C 
ENDBRANCH  26  28
ENDBRANCH   1  26
TORSDOF 4
ENDMDL
MODEL 2
REMARK VINA RESULT:      -7.3      2.658      3.758
REMARK  Name = 
REMARK  5 active torsions:
REMARK  status: ('A' for Active; 'I' for Inactive)
REMARK    1  A    between atoms: C_1  and  C_2
REMARK    2  A    between atoms: C_2  and  O_3
REMARK    3  A    between atoms: O_3  and  C_4
REMARK    4  A    between atoms: C_9  and  C_10
REMARK    5  A    between atoms: C_21  and  N_22
REMARK                            x       y       z     vdW  Elec       q    Type
REMARK                         _______ _______ _______ _____ _____    ______ ____
ROOT
ATOM      1  C   UNL     1      -0.867  11.283  22.106  0.00  0.00    +0.000 A 
ATOM      2  C   UNL     1      -0.538  10.351  23.095  0.00  0.00    +0.000 A 
ATOM      3  C   UNL     1       0.268   9.246  22.791  0.00  0.00    +0.000 A 
ATOM      4  C   UNL     1       0.749   9.058  21.496  0.00  0.00    +0.000 A 
ATOM      5  O   UNL     1       1.550   7.965  21.270  0.00  0.00    +0.000 OA
ATOM      6  C   UNL     1       1.952   7.699  19.967  0.00  0.00    +0.000 A 
ATOM      7  C   UNL     1       1.649   8.455  18.891  0.00  0.00    +0.000 A 
ATOM      8  C   UNL     1       0.871   9.717  19.135  0.00  0.00    +0.000 A 
ATOM      9  O   UNL     1       0.628  10.499  18.219  0.00  0.00    +0.000 OA
ATOM     10  C   UNL     1       0.399   9.964  20.504  0.00  0.00    +0.000 A 
ATOM     11  C   UNL     1      -0.403  11.076  20.803  0.00  0.00    +0.000 A 
ENDROOT
BRANCH   6  12
ATOM     12  C   UNL     1       2.551   6.357  19.795  0.00  0.00    +0.000 A 
ATOM     13  C   UNL     1       1.951   5.318  20.532  0.00  0.00    +0.000 A 
ATOM     14  C   UNL     1       2.363   4.000  20.364  0.00  0.00    +0.000 A 
ATOM     15 BR   UNL     1       1.492   2.621  21.318  0.00  0.00    +0.000 Br
ATOM     16  C   UNL     1       3.385   3.691  19.474  0.00  0.00    +0.000 A 
ATOM     17  C   UNL     1       3.993   4.704  18.726  0.00  0.00    +0.000 A 
ATOM     18  C   UNL     1       3.587   6.041  18.893  0.00  0.00    +0.000 A 
ATOM     19  O   UNL     1       4.151   7.048  18.151  0.00  0.00    +0.000 OA
ATOM     20  C   UNL     1       5.291   6.642  17.383  0.00  0.00    +0.000 C 
ATOM     21  O   UNL     1       5.149   5.376  16.753  0.00  0.00    +0.000 OA
ATOM     22  C   UNL     1       5.073   4.365  17.746  0.00  0.00    +0.000 C 
ENDBRANCH   6  12
BRANCH   7  23
ATOM     23  N   UNL     1       1.938   8.168  17.562  0.00  0.00    +0.000 N 
ATOM     24  H   UNL     1       2.916   8.313  17.327  0.00  0.00    +0.000 HD
ATOM     25  H   UNL     1       1.297   8.670  16.941  0.00  0.00    +0.000 HD
ENDBRANCH   7  23
BRANCH   1  26
ATOM     26  O   UNL     1      -1.622  12.411  22.288  0.00  0.00    +0.000 OA
BRANCH  26  28
ATOM     27  C   UNL     1      -3.980  12.788  22.574  0.00  0.00    +0.000 C 
ATOM     28  C   UNL     1      -2.691  12.328  23.234  0.00  0.00    +0.000 C 
ENDBRANCH  26  28
ENDBRANCH   1  26
TORSDOF 4
ENDMDL
MODEL 3
REMARK VINA RESULT:      -7.3      2.003      2.671
REMARK  Name = 
REMARK  5 active torsions:
REMARK  status: ('A' for Active; 'I' for Inactive)
REMARK    1  A    between atoms: C_1  and  C_2
REMARK    2  A    between atoms: C_2  and  O_3
REMARK    3  A    between atoms: O_3  and  C_4
REMARK    4  A    between atoms: C_9  and  C_10
REMARK    5  A    between atoms: C_21  and  N_22
REMARK                            x       y       z     vdW  Elec       q    Type
REMARK                         _______ _______ _______ _____ _____    ______ ____
ROOT
ATOM      1  C   UNL     1      -0.617  10.639  21.571  0.00  0.00    +0.000 A 
ATOM      2  C   UNL     1      -0.353   9.652  22.526  0.00  0.00    +0.000 A 
ATOM      3  C   UNL     1       0.516   8.594  22.233  0.00  0.00    +0.000 A 
ATOM      4  C   UNL     1       1.125   8.506  20.982  0.00  0.00    +0.000 A 
ATOM      5  O   UNL     1       1.982   7.454  20.767  0.00  0.00    +0.000 OA
ATOM      6  C   UNL     1       2.517   7.287  19.495  0.00  0.00    +0.000 A 
ATOM      7  C   UNL     1       2.293   8.105  18.445  0.00  0.00    +0.000 A 
ATOM      8  C   UNL     1       1.452   9.325  18.691  0.00  0.00    +0.000 A 
ATOM      9  O   UNL     1       1.272  10.159  17.808  0.00  0.00    +0.000 OA
ATOM     10  C   UNL     1       0.842   9.467  20.021  0.00  0.00    +0.000 A 
ATOM     11  C   UNL     1      -0.023  10.533  20.309  0.00  0.00    +0.000 A 
ENDROOT
BRANCH   6  12
ATOM     12  C   UNL     1       3.175   5.977  19.298  0.00  0.00    +0.000 A 
ATOM     13  C   UNL     1       4.514   6.022  18.866  0.00  0.00    +0.000 A 
ATOM     14  C   UNL     1       5.262   4.854  18.752  0.00  0.00    +0.000 A 
ATOM     15 BR   UNL     1       7.076   4.955  18.233  0.00  0.00    +0.000 Br
ATOM     16  C   UNL     1       4.692   3.622  19.051  0.00  0.00    +0.000 A 
ATOM     17  C   UNL     1       3.365   3.552  19.487  0.00  0.00    +0.000 A 
ATOM     18  C   UNL     1       2.599   4.726  19.600  0.00  0.00    +0.000 A 
ATOM     19  O   UNL     1       1.304   4.684  20.052  0.00  0.00    +0.000 OA
ATOM     20  C   UNL     1       0.772   3.359  20.183  0.00  0.00    +0.000 C 
ATOM     21  O   UNL     1       1.681   2.417  20.736  0.00  0.00    +0.000 OA
ATOM     22  C   UNL     1       2.763   2.226  19.837  0.00  0.00    +0.000 C 
ENDBRANCH   6  12
BRANCH   7  23
ATOM     23  N   UNL     1       2.718   7.916  17.135  0.00  0.00    +0.000 N 
ATOM     24  H   UNL     1       2.657   8.759  16.571  0.00  0.00    +0.000 HD
ATOM     25  H   UNL     1       2.236   7.116  16.715  0.00  0.00    +0.000 HD
ENDBRANCH   7  23
BRANCH   1  26
ATOM     26  O   UNL     1      -1.424  11.731  21.750  0.00  0.00    +0.000 OA
BRANCH  26  28
ATOM     27  C   UNL     1      -3.078  12.263  23.414  0.00  0.00    +0.000 C 
ATOM     28  C   UNL     1      -1.594  12.197  23.091  0.00  0.00    +0.000 C 
ENDBRANCH  26  28
ENDBRANCH   1  26
TORSDOF 4
ENDMDL
MODEL 4
REMARK VINA RESULT:      -7.2      2.600      3.716
REMARK  Name = 
REMARK  5 active torsions:
REMARK  status: ('A' for Active; 'I' for Inactive)
REMARK    1  A    between atoms: C_1  and  C_2
REMARK    2  A    between atoms: C_2  and  O_3
REMARK    3  A    between atoms: O_3  and  C_4
REMARK    4  A    between atoms: C_9  and  C_10
REMARK    5  A    between atoms: C_21  and  N_22
REMARK                            x       y       z     vdW  Elec       q    Type
REMARK                         _______ _______ _______ _____ _____    ______ ____
ROOT
ATOM      1  C   UNL     1      -0.440  10.781  22.398  0.00  0.00    +0.000 A 
ATOM      2  C   UNL     1      -0.224   9.595  23.106  0.00  0.00    +0.000 A 
ATOM      3  C   UNL     1       0.485   8.537  22.522  0.00  0.00    +0.000 A 
ATOM      4  C   UNL     1       0.980   8.650  21.224  0.00  0.00    +0.000 A 
ATOM      5  O   UNL     1       1.683   7.584  20.718  0.00  0.00    +0.000 OA
ATOM      6  C   UNL     1       2.093   7.632  19.392  0.00  0.00    +0.000 A 
ATOM      7  C   UNL     1       1.890   8.670  18.553  0.00  0.00    +0.000 A 
ATOM      8  C   UNL     1       1.225   9.892  19.121  0.00  0.00    +0.000 A 
ATOM      9  O   UNL     1       1.079  10.906  18.443  0.00  0.00    +0.000 OA
ATOM     10  C   UNL     1       0.741   9.815  20.506  0.00  0.00    +0.000 A 
ATOM     11  C   UNL     1       0.037  10.881  21.086  0.00  0.00    +0.000 A 
ENDROOT
BRANCH   6  12
ATOM     12  C   UNL     1       2.570   6.332  18.872  0.00  0.00    +0.000 A 
ATOM     13  C   UNL     1       1.746   5.224  19.142  0.00  0.00    +0.000 A 
ATOM     14  C   UNL     1       2.042   3.973  18.609  0.00  0.00    +0.000 A 
ATOM     15 BR   UNL     1       0.879   2.520  18.936  0.00  0.00    +0.000 Br
ATOM     16  C   UNL     1       3.167   3.797  17.812  0.00  0.00    +0.000 A 
ATOM     17  C   UNL     1       3.998   4.884  17.524  0.00  0.00    +0.000 A 
ATOM     18  C   UNL     1       3.711   6.151  18.063  0.00  0.00    +0.000 A 
ATOM     19  O   UNL     1       4.497   7.237  17.772  0.00  0.00    +0.000 OA
ATOM     20  C   UNL     1       5.706   6.915  17.073  0.00  0.00    +0.000 C 
ATOM     21  O   UNL     1       5.547   5.940  16.051  0.00  0.00    +0.000 OA
ATOM     22  C   UNL     1       5.192   4.698  16.640  0.00  0.00    +0.000 C 
ENDBRANCH   6  12
BRANCH   7  23
ATOM     23  N   UNL     1       2.185   8.716  17.196  0.00  0.00    +0.000 N 
ATOM     24  H   UNL     1       2.457   9.643  16.879  0.00  0.00    +0.000 HD
ATOM     25  H   UNL     1       1.419   8.314  16.649  0.00  0.00    +0.000 HD
ENDBRANCH   7  23
BRANCH   1  26
ATOM     26  O   UNL     1      -1.092  11.888  22.870  0.00  0.00    +0.000 OA
BRANCH  26  28
ATOM     27  C   UNL     1      -0.639  14.249  22.784  0.00  0.00    +0.000 C 
ATOM     28  C   UNL     1      -1.128  13.034  22.014  0.00  0.00    +0.000 C 
ENDBRANCH  26  28
ENDBRANCH   1  26
TORSDOF 4
ENDMDL
MODEL 5
REMARK VINA RESULT:      -7.0      2.830      7.869
REMARK  Name = 
REMARK  5 active torsions:
REMARK  status: ('A' for Active; 'I' for Inactive)
REMARK    1  A    between atoms: C_1  and  C_2
REMARK    2  A    between atoms: C_2  and  O_3
REMARK    3  A    between atoms: O_3  and  C_4
REMARK    4  A    between atoms: C_9  and  C_10
REMARK    5  A    between atoms: C_21  and  N_22
REMARK                            x       y       z     vdW  Elec       q    Type
REMARK                         _______ _______ _______ _____ _____    ______ ____
ROOT
ATOM      1  C   UNL     1       4.256   5.295  18.365  0.00  0.00    +0.000 A 
ATOM      2  C   UNL     1       4.330   6.077  17.208  0.00  0.00    +0.000 A 
ATOM      3  C   UNL     1       3.612   7.276  17.114  0.00  0.00    +0.000 A 
ATOM      4  C   UNL     1       2.808   7.703  18.169  0.00  0.00    +0.000 A 
ATOM      5  O   UNL     1       2.146   8.897  18.020  0.00  0.00    +0.000 OA
ATOM      6  C   UNL     1       1.257   9.289  19.012  0.00  0.00    +0.000 A 
ATOM      7  C   UNL     1       1.012   8.604  20.149  0.00  0.00    +0.000 A 
ATOM      8  C   UNL     1       1.812   7.355  20.385  0.00  0.00    +0.000 A 
ATOM      9  O   UNL     1       1.705   6.723  21.433  0.00  0.00    +0.000 OA
ATOM     10  C   UNL     1       2.707   6.913  19.307  0.00  0.00    +0.000 A 
ATOM     11  C   UNL     1       3.428   5.715  19.412  0.00  0.00    +0.000 A 
ENDROOT
BRANCH   6  12
ATOM     12  C   UNL     1       0.389  10.421  18.617  0.00  0.00    +0.000 A 
ATOM     13  C   UNL     1      -0.827  10.075  18.000  0.00  0.00    +0.000 A 
ATOM     14  C   UNL     1      -1.766  11.053  17.686  0.00  0.00    +0.000 A 
ATOM     15 BR   UNL     1      -3.417  10.548  16.917  0.00  0.00    +0.000 Br
ATOM     16  C   UNL     1      -1.509  12.390  17.966  0.00  0.00    +0.000 A 
ATOM     17  C   UNL     1      -0.311  12.758  18.585  0.00  0.00    +0.000 A 
ATOM     18  C   UNL     1       0.648  11.778  18.901  0.00  0.00    +0.000 A 
ATOM     19  O   UNL     1       1.819  12.113  19.533  0.00  0.00    +0.000 OA
ATOM     20  C   UNL     1       2.046  13.524  19.635  0.00  0.00    +0.000 C 
ATOM     21  O   UNL     1       0.890  14.279  19.973  0.00  0.00    +0.000 OA
ATOM     22  C   UNL     1      -0.050  14.195  18.913  0.00  0.00    +0.000 C 
ENDBRANCH   6  12
BRANCH   7  23
ATOM     23  N   UNL     1       0.056   8.903  21.113  0.00  0.00    +0.000 N 
ATOM     24  H   UNL     1      -0.742   8.274  21.091  0.00  0.00    +0.000 HD
ATOM     25  H   UNL     1      -0.210   9.890  21.060  0.00  0.00    +0.000 HD
ENDBRANCH   7  23
BRANCH   1  26
ATOM     26  O   UNL     1       4.930   4.123  18.583  0.00  0.00    +0.000 OA
BRANCH  26  28
ATOM     27  C   UNL     1       3.506   2.236  18.141  0.00  0.00    +0.000 C 
ATOM     28  C   UNL     1       4.200   3.064  19.209  0.00  0.00    +0.000 C 
ENDBRANCH  26  28
ENDBRANCH   1  26
TORSDOF 4
ENDMDL
MODEL 6
REMARK VINA RESULT:      -7.0      2.162      2.948
REMARK  Name = 
REMARK  5 active torsions:
REMARK  status: ('A' for Active; 'I' for Inactive)
REMARK    1  A    between atoms: C_1  and  C_2
REMARK    2  A    between atoms: C_2  and  O_3
REMARK    3  A    between atoms: O_3  and  C_4
REMARK    4  A    between atoms: C_9  and  C_10
REMARK    5  A    between atoms: C_21  and  N_22
REMARK                            x       y       z     vdW  Elec       q    Type
REMARK                         _______ _______ _______ _____ _____    ______ ____
ROOT
ATOM      1  C   UNL     1      -0.857  10.949  22.677  0.00  0.00    +0.000 A 
ATOM      2  C   UNL     1      -0.366   9.845  23.380  0.00  0.00    +0.000 A 
ATOM      3  C   UNL     1       0.461   8.908  22.747  0.00  0.00    +0.000 A 
ATOM      4  C   UNL     1       0.802   9.060  21.404  0.00  0.00    +0.000 A 
ATOM      5  O   UNL     1       1.632   8.117  20.850  0.00  0.00    +0.000 OA
ATOM      6  C   UNL     1       1.899   8.190  19.488  0.00  0.00    +0.000 A 
ATOM      7  C   UNL     1       1.434   9.145  18.656  0.00  0.00    +0.000 A 
ATOM      8  C   UNL     1       0.619  10.250  19.265  0.00  0.00    +0.000 A 
ATOM      9  O   UNL     1       0.230  11.199  18.588  0.00  0.00    +0.000 OA
ATOM     10  C   UNL     1       0.291  10.138  20.693  0.00  0.00    +0.000 A 
ATOM     11  C   UNL     1      -0.533  11.084  21.323  0.00  0.00    +0.000 A 
ENDROOT
BRANCH   6  12
ATOM     12  C   UNL     1       2.548   6.976  18.947  0.00  0.00    +0.000 A 
ATOM     13  C   UNL     1       3.473   7.187  17.908  0.00  0.00    +0.000 A 
ATOM     14  C   UNL     1       4.221   6.130  17.398  0.00  0.00    +0.000 A 
ATOM     15 BR   UNL     1       5.502   6.458  16.048  0.00  0.00    +0.000 Br
ATOM     16  C   UNL     1       4.055   4.844  17.901  0.00  0.00    +0.000 A 
ATOM     17  C   UNL     1       3.146   4.610  18.938  0.00  0.00    +0.000 A 
ATOM     18  C   UNL     1       2.381   5.671  19.455  0.00  0.00    +0.000 A 
ATOM     19  O   UNL     1       1.503   5.470  20.491  0.00  0.00    +0.000 OA
ATOM     20  C   UNL     1       1.300   4.091  20.826  0.00  0.00    +0.000 C 
ATOM     21  O   UNL     1       2.486   3.308  20.823  0.00  0.00    +0.000 OA
ATOM     22  C   UNL     1       2.991   3.230  19.499  0.00  0.00    +0.000 C 
ENDBRANCH   6  12
BRANCH   7  23
ATOM     23  N   UNL     1       1.585   9.195  17.275  0.00  0.00    +0.000 N 
ATOM     24  H   UNL     1       2.226   9.923  16.971  0.00  0.00    +0.000 HD
ATOM     25  H   UNL     1       0.671   9.247  16.817  0.00  0.00    +0.000 HD
ENDBRANCH   7  23
BRANCH   1  26
ATOM     26  O   UNL     1      -1.648  11.940  23.193  0.00  0.00    +0.000 OA
BRANCH  26  28
ATOM     27  C   UNL     1      -3.807  12.674  22.428  0.00  0.00    +0.000 C 
ATOM     28  C   UNL     1      -2.303  12.799  22.256  0.00  0.00    +0.000 C 
ENDBRANCH  26  28
ENDBRANCH   1  26
TORSDOF 4
ENDMDL
MODEL 7
REMARK VINA RESULT:      -6.9      2.806      7.433
REMARK  Name = 
REMARK  5 active torsions:
REMARK  status: ('A' for Active; 'I' for Inactive)
REMARK    1  A    between atoms: C_1  and  C_2
REMARK    2  A    between atoms: C_2  and  O_3
REMARK    3  A    between atoms: O_3  and  C_4
REMARK    4  A    between atoms: C_9  and  C_10
REMARK    5  A    between atoms: C_21  and  N_22
REMARK                            x       y       z     vdW  Elec       q    Type
REMARK                         _______ _______ _______ _____ _____    ______ ____
ROOT
ATOM      1  C   UNL     1       5.371   5.100  16.208  0.00  0.00    +0.000 A 
ATOM      2  C   UNL     1       5.216   6.370  15.645  0.00  0.00    +0.000 A 
ATOM      3  C   UNL     1       4.418   7.334  16.276  0.00  0.00    +0.000 A 
ATOM      4  C   UNL     1       3.762   7.038  17.470  0.00  0.00    +0.000 A 
ATOM      5  O   UNL     1       3.013   8.034  18.046  0.00  0.00    +0.000 OA
ATOM      6  C   UNL     1       2.266   7.729  19.177  0.00  0.00    +0.000 A 
ATOM      7  C   UNL     1       2.244   6.527  19.792  0.00  0.00    +0.000 A 
ATOM      8  C   UNL     1       3.147   5.458  19.245  0.00  0.00    +0.000 A 
ATOM      9  O   UNL     1       3.243   4.366  19.799  0.00  0.00    +0.000 OA
ATOM     10  C   UNL     1       3.889   5.767  18.015  0.00  0.00    +0.000 A 
ATOM     11  C   UNL     1       4.692   4.799  17.393  0.00  0.00    +0.000 A 
ENDROOT
BRANCH   6  12
ATOM     12  C   UNL     1       1.279   8.772  19.534  0.00  0.00    +0.000 A 
ATOM     13  C   UNL     1       0.458   9.225  18.484  0.00  0.00    +0.000 A 
ATOM     14  C   UNL     1      -0.575  10.124  18.729  0.00  0.00    +0.000 A 
ATOM     15 BR   UNL     1      -1.700  10.662  17.309  0.00  0.00    +0.000 Br
ATOM     16  C   UNL     1      -0.804  10.598  20.015  0.00  0.00    +0.000 A 
ATOM     17  C   UNL     1      -0.006  10.158  21.076  0.00  0.00    +0.000 A 
ATOM     18  C   UNL     1       1.045   9.254  20.838  0.00  0.00    +0.000 A 
ATOM     19  O   UNL     1       1.823   8.788  21.868  0.00  0.00    +0.000 OA
ATOM     20  C   UNL     1       1.602   9.455  23.117  0.00  0.00    +0.000 C 
ATOM     21  O   UNL     1       0.234   9.714  23.406  0.00  0.00    +0.000 OA
ATOM     22  C   UNL     1      -0.274  10.648  22.466  0.00  0.00    +0.000 C 
ENDBRANCH   6  12
BRANCH   7  23
ATOM     23  N   UNL     1       1.432   6.150  20.855  0.00  0.00    +0.000 N 
ATOM     24  H   UNL     1       0.635   6.766  20.986  0.00  0.00    +0.000 HD
ATOM     25  H   UNL     1       1.990   6.029  21.706  0.00  0.00    +0.000 HD
ENDBRANCH   7  23
BRANCH   1  26
ATOM     26  O   UNL     1       6.142   4.089  15.700  0.00  0.00    +0.000 OA
BRANCH  26  28
ATOM     27  C   UNL     1       5.958   3.619  13.348  0.00  0.00    +0.000 C 
ATOM     28  C   UNL     1       6.760   4.321  14.431  0.00  0.00    +0.000 C 
ENDBRANCH  26  28
ENDBRANCH   1  26
TORSDOF 4
ENDMDL
MODEL 8
REMARK VINA RESULT:      -6.9      2.687      3.681
REMARK  Name = 
REMARK  5 active torsions:
REMARK  status: ('A' for Active; 'I' for Inactive)
REMARK    1  A    between atoms: C_1  and  C_2
REMARK    2  A    between atoms: C_2  and  O_3
REMARK    3  A    between atoms: O_3  and  C_4
REMARK    4  A    between atoms: C_9  and  C_10
REMARK    5  A    between atoms: C_21  and  N_22
REMARK                            x       y       z     vdW  Elec       q    Type
REMARK                         _______ _______ _______ _____ _____    ______ ____
ROOT
ATOM      1  C   UNL     1      -0.743  11.391  21.618  0.00  0.00    +0.000 A 
ATOM      2  C   UNL     1      -0.453  10.539  22.687  0.00  0.00    +0.000 A 
ATOM      3  C   UNL     1       0.353   9.409  22.498  0.00  0.00    +0.000 A 
ATOM      4  C   UNL     1       0.873   9.115  21.238  0.00  0.00    +0.000 A 
ATOM      5  O   UNL     1       1.672   8.004  21.125  0.00  0.00    +0.000 OA
ATOM      6  C   UNL     1       2.113   7.633  19.861  0.00  0.00    +0.000 A 
ATOM      7  C   UNL     1       1.850   8.303  18.719  0.00  0.00    +0.000 A 
ATOM      8  C   UNL     1       1.075   9.585  18.837  0.00  0.00    +0.000 A 
ATOM      9  O   UNL     1       0.868  10.293  17.855  0.00  0.00    +0.000 OA
ATOM     10  C   UNL     1       0.562   9.942  20.167  0.00  0.00    +0.000 A 
ATOM     11  C   UNL     1      -0.239  11.079  20.351  0.00  0.00    +0.000 A 
ENDROOT
BRANCH   6  12
ATOM     12  C   UNL     1       2.705   6.278  19.815  0.00  0.00    +0.000 A 
ATOM     13  C   UNL     1       2.001   5.276  20.508  0.00  0.00    +0.000 A 
ATOM     14  C   UNL     1       2.408   3.947  20.441  0.00  0.00    +0.000 A 
ATOM     15 BR   UNL     1       1.402   2.617  21.329  0.00  0.00    +0.000 Br
ATOM     16  C   UNL     1       3.528   3.592  19.698  0.00  0.00    +0.000 A 
ATOM     17  C   UNL     1       4.241   4.568  18.996  0.00  0.00    +0.000 A 
ATOM     18  C   UNL     1       3.841   5.915  19.062  0.00  0.00    +0.000 A 
ATOM     19  O   UNL     1       4.510   6.886  18.360  0.00  0.00    +0.000 OA
ATOM     20  C   UNL     1       5.730   6.436  17.756  0.00  0.00    +0.000 C 
ATOM     21  O   UNL     1       5.647   5.149  17.160  0.00  0.00    +0.000 OA
ATOM     22  C   UNL     1       5.429   4.177  18.173  0.00  0.00    +0.000 C 
ENDBRANCH   6  12
BRANCH   7  23
ATOM     23  N   UNL     1       2.178   7.910  17.427  0.00  0.00    +0.000 N 
ATOM     24  H   UNL     1       3.113   8.197  17.149  0.00  0.00    +0.000 HD
ATOM     25  H   UNL     1       1.454   8.209  16.768  0.00  0.00    +0.000 HD
ENDBRANCH   7  23
BRANCH   1  26
ATOM     26  O   UNL     1      -1.493  12.534  21.686  0.00  0.00    +0.000 OA
BRANCH  26  28
ATOM     27  C   UNL     1       0.079  14.268  22.242  0.00  0.00    +0.000 C 
ATOM     28  C   UNL     1      -1.139  13.482  22.697  0.00  0.00    +0.000 C 
ENDBRANCH  26  28
ENDBRANCH   1  26
TORSDOF 4
ENDMDL
MODEL 9
REMARK VINA RESULT:      -6.8      4.960     10.001
REMARK  Name = 
REMARK  5 active torsions:
REMARK  status: ('A' for Active; 'I' for Inactive)
REMARK    1  A    between atoms: C_1  and  C_2
REMARK    2  A    between atoms: C_2  and  O_3
REMARK    3  A    between atoms: O_3  and  C_4
REMARK    4  A    between atoms: C_9  and  C_10
REMARK    5  A    between atoms: C_21  and  N_22
REMARK                            x       y       z     vdW  Elec       q    Type
REMARK                         _______ _______ _______ _____ _____    ______ ____
ROOT
ATOM      1  C   UNL     1       1.300   8.666  20.485  0.00  0.00    +0.000 A 
ATOM      2  C   UNL     1       1.160   8.562  21.872  0.00  0.00    +0.000 A 
ATOM      3  C   UNL     1       0.264   9.391  22.560  0.00  0.00    +0.000 A 
ATOM      4  C   UNL     1      -0.496  10.335  21.872  0.00  0.00    +0.000 A 
ATOM      5  O   UNL     1      -1.370  11.102  22.604  0.00  0.00    +0.000 OA
ATOM      6  C   UNL     1      -2.058  12.120  21.956  0.00  0.00    +0.000 A 
ATOM      7  C   UNL     1      -1.969  12.401  20.639  0.00  0.00    +0.000 A 
ATOM      8  C   UNL     1      -1.108  11.500  19.800  0.00  0.00    +0.000 A 
ATOM      9  O   UNL     1      -1.042  11.641  18.581  0.00  0.00    +0.000 OA
ATOM     10  C   UNL     1      -0.337  10.462  20.498  0.00  0.00    +0.000 A 
ATOM     11  C   UNL     1       0.553   9.631  19.802  0.00  0.00    +0.000 A 
ENDROOT
BRANCH   6  12
ATOM     12  C   UNL     1      -2.732  13.060  22.879  0.00  0.00    +0.000 A 
ATOM     13  C   UNL     1      -1.884  13.826  23.700  0.00  0.00    +0.000 A 
ATOM     14  C   UNL     1      -2.404  14.817  24.527  0.00  0.00    +0.000 A 
ATOM     15 BR   UNL     1      -1.234  15.873  25.568  0.00  0.00    +0.000 Br
ATOM     16  C   UNL     1      -3.773  15.055  24.564  0.00  0.00    +0.000 A 
ATOM     17  C   UNL     1      -4.635  14.310  23.753  0.00  0.00    +0.000 A 
ATOM     18  C   UNL     1      -4.120  13.302  22.918  0.00  0.00    +0.000 A 
ATOM     19  O   UNL     1      -4.944  12.578  22.094  0.00  0.00    +0.000 OA
ATOM     20  C   UNL     1      -6.342  12.797  22.323  0.00  0.00    +0.000 C 
ATOM     21  O   UNL     1      -6.689  14.156  22.552  0.00  0.00    +0.000 OA
ATOM     22  C   UNL     1      -6.107  14.589  23.772  0.00  0.00    +0.000 C 
ENDBRANCH   6  12
BRANCH   7  23
ATOM     23  N   UNL     1      -2.553  13.472  19.974  0.00  0.00    +0.000 N 
ATOM     24  H   UNL     1      -3.563  13.390  19.897  0.00  0.00    +0.000 HD
ATOM     25  H   UNL     1      -2.094  13.627  19.072  0.00  0.00    +0.000 HD
ENDBRANCH   7  23
BRANCH   1  26
ATOM     26  O   UNL     1       2.120   7.896  19.704  0.00  0.00    +0.000 OA
BRANCH  26  28
ATOM     27  C   UNL     1       3.328   7.460  17.670  0.00  0.00    +0.000 C 
ATOM     28  C   UNL     1       2.182   8.223  18.313  0.00  0.00    +0.000 C 
ENDBRANCH  26  28
ENDBRANCH   1  26
TORSDOF 4
ENDMDL
