MODEL 1
REMARK VINA RESULT:      -6.1      0.000      0.000
REMARK  Name = 
REMARK  1 active torsions:
REMARK  status: ('A' for Active; 'I' for Inactive)
REMARK    1  A    between atoms: C_1  and  C_2
REMARK                            x       y       z     vdW  Elec       q    Type
REMARK                         _______ _______ _______ _____ _____    ______ ____
ROOT
ATOM      1  C   UNL     1       2.548   8.667  17.880  0.00  0.00    +0.000 C 
ATOM      2  C   UNL     1       2.745   7.153  18.011  0.00  0.00    +0.000 C 
ATOM      3  C   UNL     1       4.247   6.812  17.871  0.00  0.00    +0.000 C 
ATOM      4  C   UNL     1       4.738   6.939  16.419  0.00  0.00    +0.000 C 
ATOM      5  C   UNL     1       5.566   5.743  15.924  0.00  0.00    +0.000 C 
ATOM      6  C   UNL     1       4.746   4.445  15.805  0.00  0.00    +0.000 C 
ATOM      7  C   UNL     1       5.125   3.407  16.865  0.00  0.00    +0.000 C 
ATOM      8  C   UNL     1       4.052   2.325  17.066  0.00  0.00    +0.000 C 
ATOM      9  C   UNL     1       3.658   2.104  18.522  0.00  0.00    +0.000 C 
ATOM     10  N   UNL     1       2.614   3.007  19.085  0.00  0.00    +0.000 N 
ATOM     11  C   UNL     1       2.514   4.276  18.738  0.00  0.00    +0.000 C 
ATOM     12  N   UNL     1       2.195   5.221  19.605  0.00  0.00    +0.000 N 
ATOM     13  C   UNL     1       2.125   4.796  21.020  0.00  0.00    +0.000 C 
ATOM     14  C   UNL     1       1.229   3.576  21.089  0.00  0.00    +0.000 C 
ATOM     15  C   UNL     1       1.863   2.486  20.260  0.00  0.00    +0.000 C 
ATOM     16  C   UNL     1       2.145   6.689  19.346  0.00  0.00    +0.000 C 
ENDROOT
TORSDOF 0
ENDMDL
MODEL 2
REMARK VINA RESULT:      -5.5      1.549      5.614
REMARK  Name = 
REMARK  1 active torsions:
REMARK  status: ('A' for Active; 'I' for Inactive)
REMARK    1  A    between atoms: C_1  and  C_2
REMARK                            x       y       z     vdW  Elec       q    Type
REMARK                         _______ _______ _______ _____ _____    ______ ____
ROOT
ATOM      1  C   UNL     1       3.646   0.900  18.733  0.00  0.00    +0.000 C 
ATOM      2  C   UNL     1       3.627   2.409  18.467  0.00  0.00    +0.000 C 
ATOM      3  C   UNL     1       3.778   3.174  19.802  0.00  0.00    +0.000 C 
ATOM      4  C   UNL     1       2.495   3.119  20.649  0.00  0.00    +0.000 C 
ATOM      5  C   UNL     1       2.049   4.478  21.210  0.00  0.00    +0.000 C 
ATOM      6  C   UNL     1       1.593   5.464  20.120  0.00  0.00    +0.000 C 
ATOM      7  C   UNL     1       2.573   6.624  19.925  0.00  0.00    +0.000 C 
ATOM      8  C   UNL     1       2.398   7.348  18.579  0.00  0.00    +0.000 C 
ATOM      9  C   UNL     1       3.695   7.521  17.795  0.00  0.00    +0.000 C 
ATOM     10  N   UNL     1       4.123   6.380  16.936  0.00  0.00    +0.000 N 
ATOM     11  C   UNL     1       3.924   5.122  17.279  0.00  0.00    +0.000 C 
ATOM     12  N   UNL     1       4.810   4.174  17.031  0.00  0.00    +0.000 N 
ATOM     13  C   UNL     1       6.111   4.636  16.501  0.00  0.00    +0.000 C 
ATOM     14  C   UNL     1       5.831   5.535  15.314  0.00  0.00    +0.000 C 
ATOM     15  C   UNL     1       5.032   6.718  15.806  0.00  0.00    +0.000 C 
ATOM     16  C   UNL     1       4.730   2.745  17.453  0.00  0.00    +0.000 C 
ENDROOT
TORSDOF 0
ENDMDL
MODEL 3
REMARK VINA RESULT:      -5.5     10.117     12.428
REMARK  Name = 
REMARK  1 active torsions:
REMARK  status: ('A' for Active; 'I' for Inactive)
REMARK    1  A    between atoms: C_1  and  C_2
REMARK                            x       y       z     vdW  Elec       q    Type
REMARK                         _______ _______ _______ _____ _____    ______ ____
ROOT
ATOM      1  C   UNL     1       8.757  14.947  22.962  0.00  0.00    +0.000 C 
ATOM      2  C   UNL     1       9.378  14.681  21.586  0.00  0.00    +0.000 C 
ATOM      3  C   UNL     1       8.698  13.452  20.939  0.00  0.00    +0.000 C 
ATOM      4  C   UNL     1       9.136  12.133  21.600  0.00  0.00    +0.000 C 
ATOM      5  C   UNL     1       9.539  11.032  20.607  0.00  0.00    +0.000 C 
ATOM      6  C   UNL     1      10.822  11.363  19.822  0.00  0.00    +0.000 C 
ATOM      7  C   UNL     1      10.551  11.661  18.345  0.00  0.00    +0.000 C 
ATOM      8  C   UNL     1      11.697  12.422  17.658  0.00  0.00    +0.000 C 
ATOM      9  C   UNL     1      11.247  13.660  16.891  0.00  0.00    +0.000 C 
ATOM     10  N   UNL     1      11.099  14.922  17.670  0.00  0.00    +0.000 N 
ATOM     11  C   UNL     1      10.670  14.937  18.918  0.00  0.00    +0.000 C 
ATOM     12  N   UNL     1       9.874  15.886  19.378  0.00  0.00    +0.000 N 
ATOM     13  C   UNL     1       9.354  16.833  18.368  0.00  0.00    +0.000 C 
ATOM     14  C   UNL     1      10.537  17.359  17.580  0.00  0.00    +0.000 C 
ATOM     15  C   UNL     1      11.193  16.187  16.890  0.00  0.00    +0.000 C 
ATOM     16  C   UNL     1       9.257  15.953  20.735  0.00  0.00    +0.000 C 
ENDROOT
TORSDOF 0
ENDMDL
MODEL 4
REMARK VINA RESULT:      -5.3      9.862     12.629
REMARK  Name = 
REMARK  1 active torsions:
REMARK  status: ('A' for Active; 'I' for Inactive)
REMARK    1  A    between atoms: C_1  and  C_2
REMARK                            x       y       z     vdW  Elec       q    Type
REMARK                         _______ _______ _______ _____ _____    ______ ____
ROOT
ATOM      1  C   UNL     1       9.099  10.329  18.385  0.00  0.00    +0.000 C 
ATOM      2  C   UNL     1       9.339  11.782  18.807  0.00  0.00    +0.000 C 
ATOM      3  C   UNL     1      10.036  11.814  20.187  0.00  0.00    +0.000 C 
ATOM      4  C   UNL     1       9.075  11.445  21.330  0.00  0.00    +0.000 C 
ATOM      5  C   UNL     1       9.124  12.403  22.531  0.00  0.00    +0.000 C 
ATOM      6  C   UNL     1       8.602  13.813  22.203  0.00  0.00    +0.000 C 
ATOM      7  C   UNL     1       9.716  14.864  22.178  0.00  0.00    +0.000 C 
ATOM      8  C   UNL     1       9.324  16.147  21.426  0.00  0.00    +0.000 C 
ATOM      9  C   UNL     1      10.343  16.588  20.381  0.00  0.00    +0.000 C 
ATOM     10  N   UNL     1      10.239  15.966  19.031  0.00  0.00    +0.000 N 
ATOM     11  C   UNL     1       9.874  14.710  18.857  0.00  0.00    +0.000 C 
ATOM     12  N   UNL     1      10.417  13.939  17.931  0.00  0.00    +0.000 N 
ATOM     13  C   UNL     1      11.577  14.514  17.218  0.00  0.00    +0.000 C 
ATOM     14  C   UNL     1      11.172  15.882  16.710  0.00  0.00    +0.000 C 
ATOM     15  C   UNL     1      10.833  16.739  17.906  0.00  0.00    +0.000 C 
ATOM     16  C   UNL     1      10.147  12.488  17.709  0.00  0.00    +0.000 C 
ENDROOT
TORSDOF 0
ENDMDL
MODEL 5
REMARK VINA RESULT:      -5.2      1.476      4.281
REMARK  Name = 
REMARK  1 active torsions:
REMARK  status: ('A' for Active; 'I' for Inactive)
REMARK    1  A    between atoms: C_1  and  C_2
REMARK                            x       y       z     vdW  Elec       q    Type
REMARK                         _______ _______ _______ _____ _____    ______ ____
ROOT
ATOM      1  C   UNL     1       1.859   7.513  20.586  0.00  0.00    +0.000 C 
ATOM      2  C   UNL     1       2.519   6.370  19.807  0.00  0.00    +0.000 C 
ATOM      3  C   UNL     1       1.431   5.410  19.274  0.00  0.00    +0.000 C 
ATOM      4  C   UNL     1       0.820   4.547  20.391  0.00  0.00    +0.000 C 
ATOM      5  C   UNL     1       0.724   3.051  20.053  0.00  0.00    +0.000 C 
ATOM      6  C   UNL     1       2.097   2.368  19.925  0.00  0.00    +0.000 C 
ATOM      7  C   UNL     1       2.433   1.984  18.481  0.00  0.00    +0.000 C 
ATOM      8  C   UNL     1       3.933   1.734  18.252  0.00  0.00    +0.000 C 
ATOM      9  C   UNL     1       4.513   2.489  17.060  0.00  0.00    +0.000 C 
ATOM     10  N   UNL     1       4.954   3.893  17.299  0.00  0.00    +0.000 N 
ATOM     11  C   UNL     1       4.324   4.701  18.130  0.00  0.00    +0.000 C 
ATOM     12  N   UNL     1       4.162   5.987  17.876  0.00  0.00    +0.000 N 
ATOM     13  C   UNL     1       4.576   6.432  16.528  0.00  0.00    +0.000 C 
ATOM     14  C   UNL     1       5.990   5.938  16.296  0.00  0.00    +0.000 C 
ATOM     15  C   UNL     1       5.969   4.430  16.351  0.00  0.00    +0.000 C 
ATOM     16  C   UNL     1       3.392   6.968  18.695  0.00  0.00    +0.000 C 
ENDROOT
TORSDOF 0
ENDMDL
MODEL 6
REMARK VINA RESULT:      -5.2     10.459     12.693
REMARK  Name = 
REMARK  1 active torsions:
REMARK  status: ('A' for Active; 'I' for Inactive)
REMARK    1  A    between atoms: C_1  and  C_2
REMARK                            x       y       z     vdW  Elec       q    Type
REMARK                         _______ _______ _______ _____ _____    ______ ____
ROOT
ATOM      1  C   UNL     1       9.055  12.389  22.636  0.00  0.00    +0.000 C 
ATOM      2  C   UNL     1       9.801  13.034  21.463  0.00  0.00    +0.000 C 
ATOM      3  C   UNL     1       9.085  12.685  20.138  0.00  0.00    +0.000 C 
ATOM      4  C   UNL     1       9.315  11.221  19.723  0.00  0.00    +0.000 C 
ATOM      5  C   UNL     1       9.723  11.037  18.253  0.00  0.00    +0.000 C 
ATOM      6  C   UNL     1      11.113  11.616  17.932  0.00  0.00    +0.000 C 
ATOM      7  C   UNL     1      11.043  12.869  17.055  0.00  0.00    +0.000 C 
ATOM      8  C   UNL     1      12.328  13.712  17.097  0.00  0.00    +0.000 C 
ATOM      9  C   UNL     1      12.090  15.192  17.379  0.00  0.00    +0.000 C 
ATOM     10  N   UNL     1      11.976  15.599  18.808  0.00  0.00    +0.000 N 
ATOM     11  C   UNL     1      11.409  14.830  19.719  0.00  0.00    +0.000 C 
ATOM     12  N   UNL     1      10.661  15.323  20.690  0.00  0.00    +0.000 N 
ATOM     13  C   UNL     1      10.354  16.766  20.594  0.00  0.00    +0.000 C 
ATOM     14  C   UNL     1      11.664  17.502  20.402  0.00  0.00    +0.000 C 
ATOM     15  C   UNL     1      12.280  17.025  19.109  0.00  0.00    +0.000 C 
ATOM     16  C   UNL     1       9.901  14.545  21.713  0.00  0.00    +0.000 C 
ENDROOT
TORSDOF 0
ENDMDL
MODEL 7
REMARK VINA RESULT:      -5.2      7.181      9.895
REMARK  Name = 
REMARK  1 active torsions:
REMARK  status: ('A' for Active; 'I' for Inactive)
REMARK    1  A    between atoms: C_1  and  C_2
REMARK                            x       y       z     vdW  Elec       q    Type
REMARK                         _______ _______ _______ _____ _____    ______ ____
ROOT
ATOM      1  C   UNL     1       0.983  10.671  18.600  0.00  0.00    +0.000 C 
ATOM      2  C   UNL     1      -0.399  11.158  19.048  0.00  0.00    +0.000 C 
ATOM      3  C   UNL     1      -1.463  10.094  18.692  0.00  0.00    +0.000 C 
ATOM      4  C   UNL     1      -1.760  10.053  17.183  0.00  0.00    +0.000 C 
ATOM      5  C   UNL     1      -3.256  10.049  16.833  0.00  0.00    +0.000 C 
ATOM      6  C   UNL     1      -3.968  11.365  17.198  0.00  0.00    +0.000 C 
ATOM      7  C   UNL     1      -4.932  11.207  18.377  0.00  0.00    +0.000 C 
ATOM      8  C   UNL     1      -5.297  12.543  19.046  0.00  0.00    +0.000 C 
ATOM      9  C   UNL     1      -5.128  12.544  20.562  0.00  0.00    +0.000 C 
ATOM     10  N   UNL     1      -3.767  12.843  21.091  0.00  0.00    +0.000 N 
ATOM     11  C   UNL     1      -2.667  12.449  20.477  0.00  0.00    +0.000 C 
ATOM     12  N   UNL     1      -1.602  12.031  21.137  0.00  0.00    +0.000 N 
ATOM     13  C   UNL     1      -1.777  11.866  22.596  0.00  0.00    +0.000 C 
ATOM     14  C   UNL     1      -2.362  13.154  23.137  0.00  0.00    +0.000 C 
ATOM     15  C   UNL     1      -3.706  13.364  22.484  0.00  0.00    +0.000 C 
ATOM     16  C   UNL     1      -0.347  11.479  20.548  0.00  0.00    +0.000 C 
ENDROOT
TORSDOF 0
ENDMDL
MODEL 8
REMARK VINA RESULT:      -5.2     10.369     12.422
REMARK  Name = 
REMARK  1 active torsions:
REMARK  status: ('A' for Active; 'I' for Inactive)
REMARK    1  A    between atoms: C_1  and  C_2
REMARK                            x       y       z     vdW  Elec       q    Type
REMARK                         _______ _______ _______ _____ _____    ______ ____
ROOT
ATOM      1  C   UNL     1       8.980  12.132  21.923  0.00  0.00    +0.000 C 
ATOM      2  C   UNL     1       9.341  13.136  20.823  0.00  0.00    +0.000 C 
ATOM      3  C   UNL     1       9.445  12.403  19.465  0.00  0.00    +0.000 C 
ATOM      4  C   UNL     1      10.721  11.548  19.364  0.00  0.00    +0.000 C 
ATOM      5  C   UNL     1      11.504  11.734  18.056  0.00  0.00    +0.000 C 
ATOM      6  C   UNL     1      12.124  13.136  17.914  0.00  0.00    +0.000 C 
ATOM      7  C   UNL     1      11.438  13.979  16.835  0.00  0.00    +0.000 C 
ATOM      8  C   UNL     1      11.709  15.486  16.978  0.00  0.00    +0.000 C 
ATOM      9  C   UNL     1      10.452  16.348  16.946  0.00  0.00    +0.000 C 
ATOM     10  N   UNL     1       9.722  16.528  18.233  0.00  0.00    +0.000 N 
ATOM     11  C   UNL     1       9.635  15.571  19.137  0.00  0.00    +0.000 C 
ATOM     12  N   UNL     1       8.538  15.366  19.844  0.00  0.00    +0.000 N 
ATOM     13  C   UNL     1       7.358  16.160  19.441  0.00  0.00    +0.000 C 
ATOM     14  C   UNL     1       7.782  17.613  19.380  0.00  0.00    +0.000 C 
ATOM     15  C   UNL     1       8.862  17.739  18.334  0.00  0.00    +0.000 C 
ATOM     16  C   UNL     1       8.299  14.262  20.820  0.00  0.00    +0.000 C 
ENDROOT
TORSDOF 0
ENDMDL
MODEL 9
REMARK VINA RESULT:      -5.1      7.253     10.224
REMARK  Name = 
REMARK  1 active torsions:
REMARK  status: ('A' for Active; 'I' for Inactive)
REMARK    1  A    between atoms: C_1  and  C_2
REMARK                            x       y       z     vdW  Elec       q    Type
REMARK                         _______ _______ _______ _____ _____    ______ ____
ROOT
ATOM      1  C   UNL     1      -2.942  10.499  15.597  0.00  0.00    +0.000 C 
ATOM      2  C   UNL     1      -2.851  11.000  17.042  0.00  0.00    +0.000 C 
ATOM      3  C   UNL     1      -4.129  10.597  17.813  0.00  0.00    +0.000 C 
ATOM      4  C   UNL     1      -5.346  11.442  17.400  0.00  0.00    +0.000 C 
ATOM      5  C   UNL     1      -6.158  12.000  18.579  0.00  0.00    +0.000 C 
ATOM      6  C   UNL     1      -5.388  13.048  19.403  0.00  0.00    +0.000 C 
ATOM      7  C   UNL     1      -4.994  12.534  20.792  0.00  0.00    +0.000 C 
ATOM      8  C   UNL     1      -3.865  13.349  21.443  0.00  0.00    +0.000 C 
ATOM      9  C   UNL     1      -2.714  12.501  21.973  0.00  0.00    +0.000 C 
ATOM     10  N   UNL     1      -1.651  12.119  21.001  0.00  0.00    +0.000 N 
ATOM     11  C   UNL     1      -1.913  11.852  19.735  0.00  0.00    +0.000 C 
ATOM     12  N   UNL     1      -1.288  10.895  19.072  0.00  0.00    +0.000 N 
ATOM     13  C   UNL     1      -0.403  10.028  19.880  0.00  0.00    +0.000 C 
ATOM     14  C   UNL     1       0.525  10.929  20.671  0.00  0.00    +0.000 C 
ATOM     15  C   UNL     1      -0.322  11.783  21.582  0.00  0.00    +0.000 C 
ATOM     16  C   UNL     1      -1.566  10.448  17.676  0.00  0.00    +0.000 C 
ENDROOT
TORSDOF 0
ENDMDL
