MODEL 1
REMARK VINA RESULT:      -8.1      0.000      0.000
REMARK  Name = 
REMARK  2 active torsions:
REMARK  status: ('A' for Active; 'I' for Inactive)
REMARK    1  A    between atoms: C_2  and  C_3
REMARK    2  A    between atoms: C_5  and  C_6
REMARK                            x       y       z     vdW  Elec       q    Type
REMARK                         _______ _______ _______ _____ _____    ______ ____
ROOT
ATOM      1  C   UNL     1       3.243   5.694  18.345  0.00  0.00    +0.000 A 
ATOM      2  C   UNL     1       2.728   6.972  18.405  0.00  0.00    +0.000 A 
ATOM      3  C   UNL     1       2.162   7.124  19.698  0.00  0.00    +0.000 A 
ATOM      4  N   UNL     1       2.395   6.021  20.430  0.00  0.00    +0.000 NA
ATOM      5  N   UNL     1       3.084   5.209  19.611  0.00  0.00    +0.000 N 
ATOM      6  H   UNL     1       3.421   4.325  19.980  0.00  0.00    +0.000 HD
ENDROOT
BRANCH   3   7
ATOM      7  C   UNL     1       1.471   8.288  20.263  0.00  0.00    +0.000 A 
ATOM      8  C   UNL     1       1.206   8.300  21.647  0.00  0.00    +0.000 A 
ATOM      9  C   UNL     1       0.600   9.401  22.247  0.00  0.00    +0.000 A 
ATOM     10  F   UNL     1       0.371   9.372  23.568  0.00  0.00    +0.000 F 
ATOM     11  C   UNL     1       0.244  10.512  21.492  0.00  0.00    +0.000 A 
ATOM     12 CL   UNL     1      -0.487  11.885  22.228  0.00  0.00    +0.000 Cl
ATOM     13  C   UNL     1       0.474  10.516  20.120  0.00  0.00    +0.000 A 
ATOM     14  C   UNL     1       1.067   9.405  19.501  0.00  0.00    +0.000 A 
ATOM     15 CL   UNL     1       1.212   9.493  17.778  0.00  0.00    +0.000 Cl
ENDBRANCH   3   7
BRANCH   1  17
ATOM     16  O   UNL     1       3.650   3.898  16.927  0.00  0.00    +0.000 OA
ATOM     17  C   UNL     1       3.926   5.052  17.249  0.00  0.00    +0.000 C 
ATOM     18  N   UNL     1       4.888   5.779  16.552  0.00  0.00    +0.000 N 
ATOM     19  C   UNL     1       5.440   5.215  15.314  0.00  0.00    +0.000 C 
ATOM     20  C   UNL     1       6.917   4.845  15.477  0.00  0.00    +0.000 C 
ATOM     21  O   UNL     1       7.675   5.974  15.945  0.00  0.00    +0.000 OA
ATOM     22  C   UNL     1       7.185   6.413  17.219  0.00  0.00    +0.000 C 
ATOM     23  C   UNL     1       5.717   6.850  17.126  0.00  0.00    +0.000 C 
ENDBRANCH   1  17
TORSDOF 2
ENDMDL
MODEL 2
REMARK VINA RESULT:      -7.8      4.357      7.893
REMARK  Name = 
REMARK  2 active torsions:
REMARK  status: ('A' for Active; 'I' for Inactive)
REMARK    1  A    between atoms: C_2  and  C_3
REMARK    2  A    between atoms: C_5  and  C_6
REMARK                            x       y       z     vdW  Elec       q    Type
REMARK                         _______ _______ _______ _____ _____    ______ ____
ROOT
ATOM      1  C   UNL     1       1.613   8.656  19.703  0.00  0.00    +0.000 A 
ATOM      2  C   UNL     1       2.209   8.225  18.536  0.00  0.00    +0.000 A 
ATOM      3  C   UNL     1       2.776   6.954  18.812  0.00  0.00    +0.000 A 
ATOM      4  N   UNL     1       2.467   6.579  20.065  0.00  0.00    +0.000 NA
ATOM      5  N   UNL     1       1.732   7.593  20.552  0.00  0.00    +0.000 N 
ATOM      6  H   UNL     1       1.336   7.497  21.482  0.00  0.00    +0.000 HD
ENDROOT
BRANCH   3   7
ATOM      7  C   UNL     1       3.538   6.077  17.915  0.00  0.00    +0.000 A 
ATOM      8  C   UNL     1       4.771   6.542  17.418  0.00  0.00    +0.000 A 
ATOM      9  C   UNL     1       5.562   5.733  16.605  0.00  0.00    +0.000 A 
ATOM     10  F   UNL     1       6.732   6.214  16.158  0.00  0.00    +0.000 F 
ATOM     11  C   UNL     1       5.151   4.449  16.268  0.00  0.00    +0.000 A 
ATOM     12 CL   UNL     1       6.130   3.436  15.282  0.00  0.00    +0.000 Cl
ATOM     13  C   UNL     1       3.926   3.976  16.729  0.00  0.00    +0.000 A 
ATOM     14  C   UNL     1       3.113   4.787  17.532  0.00  0.00    +0.000 A 
ATOM     15 CL   UNL     1       1.573   4.120  17.960  0.00  0.00    +0.000 Cl
ENDBRANCH   3   7
BRANCH   1  17
ATOM     16  O   UNL     1       1.206  10.917  19.356  0.00  0.00    +0.000 OA
ATOM     17  C   UNL     1       0.895   9.883  19.945  0.00  0.00    +0.000 C 
ATOM     18  N   UNL     1      -0.169   9.861  20.843  0.00  0.00    +0.000 N 
ATOM     19  C   UNL     1      -1.032  11.045  20.942  0.00  0.00    +0.000 C 
ATOM     20  C   UNL     1      -0.878  11.739  22.299  0.00  0.00    +0.000 C 
ATOM     21  O   UNL     1      -1.103  10.810  23.373  0.00  0.00    +0.000 OA
ATOM     22  C   UNL     1      -0.154   9.736  23.314  0.00  0.00    +0.000 C 
ATOM     23  C   UNL     1      -0.282   8.958  21.997  0.00  0.00    +0.000 C 
ENDBRANCH   1  17
TORSDOF 2
ENDMDL
MODEL 3
REMARK VINA RESULT:      -7.7      4.527      7.728
REMARK  Name = 
REMARK  2 active torsions:
REMARK  status: ('A' for Active; 'I' for Inactive)
REMARK    1  A    between atoms: C_2  and  C_3
REMARK    2  A    between atoms: C_5  and  C_6
REMARK                            x       y       z     vdW  Elec       q    Type
REMARK                         _______ _______ _______ _____ _____    ______ ____
ROOT
ATOM      1  C   UNL     1       1.347   9.088  19.497  0.00  0.00    +0.000 A 
ATOM      2  C   UNL     1       1.996   8.572  18.394  0.00  0.00    +0.000 A 
ATOM      3  C   UNL     1       2.495   7.298  18.772  0.00  0.00    +0.000 A 
ATOM      4  N   UNL     1       2.097   7.005  20.022  0.00  0.00    +0.000 NA
ATOM      5  N   UNL     1       1.374   8.070  20.407  0.00  0.00    +0.000 N 
ATOM      6  H   UNL     1       0.919   8.041  21.314  0.00  0.00    +0.000 HD
ENDROOT
BRANCH   3   7
ATOM      7  C   UNL     1       3.276   6.347  17.973  0.00  0.00    +0.000 A 
ATOM      8  C   UNL     1       4.450   6.808  17.346  0.00  0.00    +0.000 A 
ATOM      9  C   UNL     1       5.258   5.938  16.618  0.00  0.00    +0.000 A 
ATOM     10  F   UNL     1       6.370   6.419  16.041  0.00  0.00    +0.000 F 
ATOM     11  C   UNL     1       4.923   4.595  16.497  0.00  0.00    +0.000 A 
ATOM     12 CL   UNL     1       5.926   3.508  15.618  0.00  0.00    +0.000 Cl
ATOM     13  C   UNL     1       3.757   4.119  17.089  0.00  0.00    +0.000 A 
ATOM     14  C   UNL     1       2.926   4.990  17.809  0.00  0.00    +0.000 A 
ATOM     15 CL   UNL     1       1.458   4.299  18.414  0.00  0.00    +0.000 Cl
ENDBRANCH   3   7
BRANCH   1  17
ATOM     16  O   UNL     1       0.840  11.059  20.617  0.00  0.00    +0.000 OA
ATOM     17  C   UNL     1       0.665  10.351  19.627  0.00  0.00    +0.000 C 
ATOM     18  N   UNL     1      -0.178  10.757  18.596  0.00  0.00    +0.000 N 
ATOM     19  C   UNL     1      -0.713  12.125  18.619  0.00  0.00    +0.000 C 
ATOM     20  C   UNL     1      -2.227  12.129  18.851  0.00  0.00    +0.000 C 
ATOM     21  O   UNL     1      -2.891  11.301  17.880  0.00  0.00    +0.000 OA
ATOM     22  C   UNL     1      -2.432   9.946  17.980  0.00  0.00    +0.000 C 
ATOM     23  C   UNL     1      -0.924   9.853  17.709  0.00  0.00    +0.000 C 
ENDBRANCH   1  17
TORSDOF 2
ENDMDL
MODEL 4
REMARK VINA RESULT:      -7.7      1.437      1.557
REMARK  Name = 
REMARK  2 active torsions:
REMARK  status: ('A' for Active; 'I' for Inactive)
REMARK    1  A    between atoms: C_2  and  C_3
REMARK    2  A    between atoms: C_5  and  C_6
REMARK                            x       y       z     vdW  Elec       q    Type
REMARK                         _______ _______ _______ _____ _____    ______ ____
ROOT
ATOM      1  C   UNL     1       3.065   6.876  18.229  0.00  0.00    +0.000 A 
ATOM      2  C   UNL     1       2.285   7.085  19.347  0.00  0.00    +0.000 A 
ATOM      3  C   UNL     1       1.787   8.411  19.255  0.00  0.00    +0.000 A 
ATOM      4  N   UNL     1       2.171   8.964  18.091  0.00  0.00    +0.000 NA
ATOM      5  N   UNL     1       2.889   8.005  17.482  0.00  0.00    +0.000 N 
ATOM      6  H   UNL     1       3.237   8.187  16.545  0.00  0.00    +0.000 HD
ENDROOT
BRANCH   3   7
ATOM      7  C   UNL     1       0.926   9.133  20.199  0.00  0.00    +0.000 A 
ATOM      8  C   UNL     1       1.126   8.925  21.578  0.00  0.00    +0.000 A 
ATOM      9  C   UNL     1       0.373   9.622  22.520  0.00  0.00    +0.000 A 
ATOM     10  F   UNL     1       0.599   9.396  23.823  0.00  0.00    +0.000 F 
ATOM     11  C   UNL     1      -0.591  10.539  22.119  0.00  0.00    +0.000 A 
ATOM     12 CL   UNL     1      -1.511  11.419  23.276  0.00  0.00    +0.000 Cl
ATOM     13  C   UNL     1      -0.823  10.746  20.762  0.00  0.00    +0.000 A 
ATOM     14  C   UNL     1      -0.084  10.036  19.805  0.00  0.00    +0.000 A 
ATOM     15 CL   UNL     1      -0.532  10.311  18.155  0.00  0.00    +0.000 Cl
ENDBRANCH   3   7
BRANCH   1  17
ATOM     16  O   UNL     1       3.403   4.577  18.207  0.00  0.00    +0.000 OA
ATOM     17  C   UNL     1       3.789   5.688  17.849  0.00  0.00    +0.000 C 
ATOM     18  N   UNL     1       4.920   5.830  17.049  0.00  0.00    +0.000 N 
ATOM     19  C   UNL     1       5.542   4.625  16.487  0.00  0.00    +0.000 C 
ATOM     20  C   UNL     1       6.924   4.372  17.098  0.00  0.00    +0.000 C 
ATOM     21  O   UNL     1       7.761   5.532  16.958  0.00  0.00    +0.000 OA
ATOM     22  C   UNL     1       7.178   6.655  17.632  0.00  0.00    +0.000 C 
ATOM     23  C   UNL     1       5.806   7.003  17.040  0.00  0.00    +0.000 C 
ENDBRANCH   1  17
TORSDOF 2
ENDMDL
MODEL 5
REMARK VINA RESULT:      -7.6      2.119      3.300
REMARK  Name = 
REMARK  2 active torsions:
REMARK  status: ('A' for Active; 'I' for Inactive)
REMARK    1  A    between atoms: C_2  and  C_3
REMARK    2  A    between atoms: C_5  and  C_6
REMARK                            x       y       z     vdW  Elec       q    Type
REMARK                         _______ _______ _______ _____ _____    ______ ____
ROOT
ATOM      1  C   UNL     1       3.071   6.528  18.738  0.00  0.00    +0.000 A 
ATOM      2  C   UNL     1       2.252   6.857  19.798  0.00  0.00    +0.000 A 
ATOM      3  C   UNL     1       1.805   8.184  19.572  0.00  0.00    +0.000 A 
ATOM      4  N   UNL     1       2.256   8.622  18.384  0.00  0.00    +0.000 NA
ATOM      5  N   UNL     1       2.966   7.593  17.891  0.00  0.00    +0.000 N 
ATOM      6  H   UNL     1       3.359   7.681  16.959  0.00  0.00    +0.000 HD
ENDROOT
BRANCH   3   7
ATOM      7  C   UNL     1       0.929   9.010  20.411  0.00  0.00    +0.000 A 
ATOM      8  C   UNL     1       0.993   8.843  21.809  0.00  0.00    +0.000 A 
ATOM      9  C   UNL     1       0.224   9.637  22.657  0.00  0.00    +0.000 A 
ATOM     10  F   UNL     1       0.319   9.447  23.982  0.00  0.00    +0.000 F 
ATOM     11  C   UNL     1      -0.622  10.611  22.142  0.00  0.00    +0.000 A 
ATOM     12 CL   UNL     1      -1.560  11.609  23.182  0.00  0.00    +0.000 Cl
ATOM     13  C   UNL     1      -0.719  10.781  20.764  0.00  0.00    +0.000 A 
ATOM     14  C   UNL     1       0.036   9.976  19.899  0.00  0.00    +0.000 A 
ATOM     15 CL   UNL     1      -0.245  10.218  18.208  0.00  0.00    +0.000 Cl
ENDBRANCH   3   7
BRANCH   1  17
ATOM     16  O   UNL     1       4.737   5.255  17.735  0.00  0.00    +0.000 OA
ATOM     17  C   UNL     1       3.769   5.290  18.494  0.00  0.00    +0.000 C 
ATOM     18  N   UNL     1       3.335   4.144  19.154  0.00  0.00    +0.000 N 
ATOM     19  C   UNL     1       4.157   2.930  19.076  0.00  0.00    +0.000 C 
ATOM     20  C   UNL     1       3.455   1.828  18.276  0.00  0.00    +0.000 C 
ATOM     21  O   UNL     1       2.148   1.566  18.812  0.00  0.00    +0.000 OA
ATOM     22  C   UNL     1       1.334   2.745  18.750  0.00  0.00    +0.000 C 
ATOM     23  C   UNL     1       1.950   3.884  19.574  0.00  0.00    +0.000 C 
ENDBRANCH   1  17
TORSDOF 2
ENDMDL
MODEL 6
REMARK VINA RESULT:      -7.6      2.004      2.331
REMARK  Name = 
REMARK  2 active torsions:
REMARK  status: ('A' for Active; 'I' for Inactive)
REMARK    1  A    between atoms: C_2  and  C_3
REMARK    2  A    between atoms: C_5  and  C_6
REMARK                            x       y       z     vdW  Elec       q    Type
REMARK                         _______ _______ _______ _____ _____    ______ ____
ROOT
ATOM      1  C   UNL     1       2.989   6.471  18.413  0.00  0.00    +0.000 A 
ATOM      2  C   UNL     1       2.391   7.670  18.088  0.00  0.00    +0.000 A 
ATOM      3  C   UNL     1       1.868   8.206  19.293  0.00  0.00    +0.000 A 
ATOM      4  N   UNL     1       2.206   7.417  20.328  0.00  0.00    +0.000 NA
ATOM      5  N   UNL     1       2.915   6.418  19.775  0.00  0.00    +0.000 N 
ATOM      6  H   UNL     1       3.327   5.723  20.390  0.00  0.00    +0.000 HD
ENDROOT
BRANCH   3   7
ATOM      7  C   UNL     1       1.121   9.453  19.492  0.00  0.00    +0.000 A 
ATOM      8  C   UNL     1       1.472  10.573  18.712  0.00  0.00    +0.000 A 
ATOM      9  C   UNL     1       0.763  11.767  18.821  0.00  0.00    +0.000 A 
ATOM     10  F   UNL     1       1.127  12.806  18.055  0.00  0.00    +0.000 F 
ATOM     11  C   UNL     1      -0.306  11.879  19.702  0.00  0.00    +0.000 A 
ATOM     12 CL   UNL     1      -1.199  13.344  19.828  0.00  0.00    +0.000 Cl
ATOM     13  C   UNL     1      -0.657  10.794  20.500  0.00  0.00    +0.000 A 
ATOM     14  C   UNL     1       0.060   9.593  20.412  0.00  0.00    +0.000 A 
ATOM     15 CL   UNL     1      -0.412   8.353  21.524  0.00  0.00    +0.000 Cl
ENDBRANCH   3   7
BRANCH   1  17
ATOM     16  O   UNL     1       3.326   4.364  17.492  0.00  0.00    +0.000 OA
ATOM     17  C   UNL     1       3.671   5.543  17.545  0.00  0.00    +0.000 C 
ATOM     18  N   UNL     1       4.712   6.021  16.753  0.00  0.00    +0.000 N 
ATOM     19  C   UNL     1       5.274   5.141  15.720  0.00  0.00    +0.000 C 
ATOM     20  C   UNL     1       6.712   4.734  16.053  0.00  0.00    +0.000 C 
ATOM     21  O   UNL     1       7.529   5.895  16.281  0.00  0.00    +0.000 OA
ATOM     22  C   UNL     1       7.018   6.658  17.383  0.00  0.00    +0.000 C 
ATOM     23  C   UNL     1       5.590   7.147  17.102  0.00  0.00    +0.000 C 
ENDBRANCH   1  17
TORSDOF 2
ENDMDL
MODEL 7
REMARK VINA RESULT:      -7.5      4.591      7.520
REMARK  Name = 
REMARK  2 active torsions:
REMARK  status: ('A' for Active; 'I' for Inactive)
REMARK    1  A    between atoms: C_2  and  C_3
REMARK    2  A    between atoms: C_5  and  C_6
REMARK                            x       y       z     vdW  Elec       q    Type
REMARK                         _______ _______ _______ _____ _____    ______ ____
ROOT
ATOM      1  C   UNL     1       0.994   9.283  19.066  0.00  0.00    +0.000 A 
ATOM      2  C   UNL     1       1.600   8.628  18.014  0.00  0.00    +0.000 A 
ATOM      3  C   UNL     1       2.393   7.595  18.579  0.00  0.00    +0.000 A 
ATOM      4  N   UNL     1       2.214   7.559  19.911  0.00  0.00    +0.000 NA
ATOM      5  N   UNL     1       1.337   8.546  20.162  0.00  0.00    +0.000 N 
ATOM      6  H   UNL     1       1.008   8.666  21.115  0.00  0.00    +0.000 HD
ENDROOT
BRANCH   3   7
ATOM      7  C   UNL     1       3.253   6.623  17.894  0.00  0.00    +0.000 A 
ATOM      8  C   UNL     1       4.454   7.083  17.321  0.00  0.00    +0.000 A 
ATOM      9  C   UNL     1       5.335   6.197  16.704  0.00  0.00    +0.000 A 
ATOM     10  F   UNL     1       6.470   6.678  16.175  0.00  0.00    +0.000 F 
ATOM     11  C   UNL     1       5.046   4.839  16.643  0.00  0.00    +0.000 A 
ATOM     12 CL   UNL     1       6.137   3.735  15.902  0.00  0.00    +0.000 Cl
ATOM     13  C   UNL     1       3.855   4.363  17.183  0.00  0.00    +0.000 A 
ATOM     14  C   UNL     1       2.953   5.248  17.790  0.00  0.00    +0.000 A 
ATOM     15 CL   UNL     1       1.466   4.548  18.336  0.00  0.00    +0.000 Cl
ENDBRANCH   3   7
BRANCH   1  17
ATOM     16  O   UNL     1      -1.079  10.251  18.656  0.00  0.00    +0.000 OA
ATOM     17  C   UNL     1       0.086  10.403  19.022  0.00  0.00    +0.000 C 
ATOM     18  N   UNL     1       0.554  11.651  19.425  0.00  0.00    +0.000 N 
ATOM     19  C   UNL     1      -0.409  12.748  19.582  0.00  0.00    +0.000 C 
ATOM     20  C   UNL     1      -0.191  13.839  18.528  0.00  0.00    +0.000 C 
ATOM     21  O   UNL     1       1.170  14.302  18.551  0.00  0.00    +0.000 OA
ATOM     22  C   UNL     1       2.071  13.223  18.264  0.00  0.00    +0.000 C 
ATOM     23  C   UNL     1       1.947  12.107  19.310  0.00  0.00    +0.000 C 
ENDBRANCH   1  17
TORSDOF 2
ENDMDL
MODEL 8
REMARK VINA RESULT:      -7.4      3.028      3.984
REMARK  Name = 
REMARK  2 active torsions:
REMARK  status: ('A' for Active; 'I' for Inactive)
REMARK    1  A    between atoms: C_2  and  C_3
REMARK    2  A    between atoms: C_5  and  C_6
REMARK                            x       y       z     vdW  Elec       q    Type
REMARK                         _______ _______ _______ _____ _____    ______ ____
ROOT
ATOM      1  C   UNL     1       3.095   6.639  19.082  0.00  0.00    +0.000 A 
ATOM      2  C   UNL     1       2.140   7.302  19.824  0.00  0.00    +0.000 A 
ATOM      3  C   UNL     1       1.765   8.449  19.077  0.00  0.00    +0.000 A 
ATOM      4  N   UNL     1       2.396   8.447  17.890  0.00  0.00    +0.000 NA
ATOM      5  N   UNL     1       3.142   7.329  17.905  0.00  0.00    +0.000 N 
ATOM      6  H   UNL     1       3.668   7.091  17.069  0.00  0.00    +0.000 HD
ENDROOT
BRANCH   3   7
ATOM      7  C   UNL     1       0.800   9.496  19.430  0.00  0.00    +0.000 A 
ATOM      8  C   UNL     1       0.111  10.147  18.388  0.00  0.00    +0.000 A 
ATOM      9  C   UNL     1      -0.855  11.112  18.667  0.00  0.00    +0.000 A 
ATOM     10  F   UNL     1      -1.490  11.704  17.644  0.00  0.00    +0.000 F 
ATOM     11  C   UNL     1      -1.159  11.451  19.979  0.00  0.00    +0.000 A 
ATOM     12 CL   UNL     1      -2.365  12.627  20.333  0.00  0.00    +0.000 Cl
ATOM     13  C   UNL     1      -0.477  10.838  21.025  0.00  0.00    +0.000 A 
ATOM     14  C   UNL     1       0.510   9.879  20.757  0.00  0.00    +0.000 A 
ATOM     15 CL   UNL     1       1.353   9.261  22.138  0.00  0.00    +0.000 Cl
ENDBRANCH   3   7
BRANCH   1  17
ATOM     16  O   UNL     1       5.006   5.412  19.577  0.00  0.00    +0.000 OA
ATOM     17  C   UNL     1       3.789   5.415  19.398  0.00  0.00    +0.000 C 
ATOM     18  N   UNL     1       3.044   4.245  19.519  0.00  0.00    +0.000 N 
ATOM     19  C   UNL     1       3.702   3.041  20.041  0.00  0.00    +0.000 C 
ATOM     20  C   UNL     1       3.830   1.961  18.962  0.00  0.00    +0.000 C 
ATOM     21  O   UNL     1       2.548   1.671  18.378  0.00  0.00    +0.000 OA
ATOM     22  C   UNL     1       1.999   2.846  17.766  0.00  0.00    +0.000 C 
ATOM     23  C   UNL     1       1.794   3.962  18.799  0.00  0.00    +0.000 C 
ENDBRANCH   1  17
TORSDOF 2
ENDMDL
MODEL 9
REMARK VINA RESULT:      -7.4      4.598      7.513
REMARK  Name = 
REMARK  2 active torsions:
REMARK  status: ('A' for Active; 'I' for Inactive)
REMARK    1  A    between atoms: C_2  and  C_3
REMARK    2  A    between atoms: C_5  and  C_6
REMARK                            x       y       z     vdW  Elec       q    Type
REMARK                         _______ _______ _______ _____ _____    ______ ____
ROOT
ATOM      1  C   UNL     1       0.996   9.708  18.623  0.00  0.00    +0.000 A 
ATOM      2  C   UNL     1       1.278   8.557  19.330  0.00  0.00    +0.000 A 
ATOM      3  C   UNL     1       2.238   7.837  18.572  0.00  0.00    +0.000 A 
ATOM      4  N   UNL     1       2.597   8.553  17.492  0.00  0.00    +0.000 NA
ATOM      5  N   UNL     1       1.876   9.683  17.580  0.00  0.00    +0.000 N 
ATOM      6  H   UNL     1       2.031  10.408  16.886  0.00  0.00    +0.000 HD
ENDROOT
BRANCH   3   7
ATOM      7  C   UNL     1       2.854   6.539  18.871  0.00  0.00    +0.000 A 
ATOM      8  C   UNL     1       2.369   5.809  19.974  0.00  0.00    +0.000 A 
ATOM      9  C   UNL     1       2.880   4.548  20.274  0.00  0.00    +0.000 A 
ATOM     10  F   UNL     1       2.386   3.886  21.331  0.00  0.00    +0.000 F 
ATOM     11  C   UNL     1       3.878   3.983  19.490  0.00  0.00    +0.000 A 
ATOM     12 CL   UNL     1       4.501   2.418  19.840  0.00  0.00    +0.000 Cl
ATOM     13  C   UNL     1       4.389   4.694  18.407  0.00  0.00    +0.000 A 
ATOM     14  C   UNL     1       3.895   5.972  18.107  0.00  0.00    +0.000 A 
ATOM     15 CL   UNL     1       4.678   6.791  16.797  0.00  0.00    +0.000 Cl
ENDBRANCH   3   7
BRANCH   1  17
ATOM     16  O   UNL     1       0.276  11.452  19.979  0.00  0.00    +0.000 OA
ATOM     17  C   UNL     1       0.090  10.774  18.970  0.00  0.00    +0.000 C 
ATOM     18  N   UNL     1      -0.985  11.030  18.122  0.00  0.00    +0.000 N 
ATOM     19  C   UNL     1      -1.791  12.237  18.350  0.00  0.00    +0.000 C 
ATOM     20  C   UNL     1      -3.207  11.884  18.814  0.00  0.00    +0.000 C 
ATOM     21  O   UNL     1      -3.834  10.978  17.891  0.00  0.00    +0.000 OA
ATOM     22  C   UNL     1      -3.083   9.760  17.797  0.00  0.00    +0.000 C 
ATOM     23  C   UNL     1      -1.660  10.026  17.287  0.00  0.00    +0.000 C 
ENDBRANCH   1  17
TORSDOF 2
ENDMDL
