MODEL 1
REMARK VINA RESULT:      -7.5      0.000      0.000
REMARK  Name = 
REMARK  6 active torsions:
REMARK  status: ('A' for Active; 'I' for Inactive)
REMARK    1  A    between atoms: C_1  and  C_2
REMARK    2  A    between atoms: C_6  and  C_7
REMARK    3  A    between atoms: C_12  and  C_13
REMARK    4  A    between atoms: C_13  and  N_14
REMARK    5  A    between atoms: N_14  and  C_15
REMARK    6  A    between atoms: N_14  and  C_16
REMARK                            x       y       z     vdW  Elec       q    Type
REMARK                         _______ _______ _______ _____ _____    ______ ____
ROOT
ATOM      1  C   UNL     1       6.051   4.590  17.923  0.00  0.00    +0.000 C 
ATOM      2  O   UNL     1       7.024   4.216  18.568  0.00  0.00    +0.000 OA
ATOM      3  N   UNL     1       6.127   5.073  16.628  0.00  0.00    +0.000 N 
ATOM      4  C   UNL     1       7.423   5.215  15.964  0.00  0.00    +0.000 C 
ATOM      5  C   UNL     1       7.098   5.136  14.499  0.00  0.00    +0.000 C 
ATOM      6  C   UNL     1       6.393   3.912  13.938  0.00  0.00    +0.000 C 
ATOM      7  C   UNL     1       5.616   5.142  14.355  0.00  0.00    +0.000 C 
ATOM      8  C   UNL     1       5.002   5.224  15.705  0.00  0.00    +0.000 C 
ENDROOT
BRANCH   1  14
ATOM      9  C   UNL     1       0.782   4.193  20.348  0.00  0.00    +0.000 C 
ATOM     10  C   UNL     1       2.151   4.320  19.730  0.00  0.00    +0.000 A 
ATOM     11  C   UNL     1       2.839   5.543  19.683  0.00  0.00    +0.000 A 
ATOM     12 CL   UNL     1       2.163   7.020  20.275  0.00  0.00    +0.000 Cl
ATOM     13  C   UNL     1       4.119   5.627  19.127  0.00  0.00    +0.000 A 
ATOM     14  C   UNL     1       4.714   4.500  18.561  0.00  0.00    +0.000 A 
ATOM     15  C   UNL     1       4.063   3.269  18.614  0.00  0.00    +0.000 A 
ATOM     16  C   UNL     1       2.794   3.184  19.195  0.00  0.00    +0.000 A 
ATOM     17 CL   UNL     1       2.040   1.626  19.218  0.00  0.00    +0.000 Cl
ENDBRANCH   1  14
BRANCH   6  18
ATOM     18  C   UNL     1       6.409   3.529  12.494  0.00  0.00    +0.000 C 
BRANCH  18  19
ATOM     19  N   UNL     1       5.334   2.598  12.133  0.00  0.00    +0.000 NA
ATOM     20  C   UNL     1       4.256   3.252  11.389  0.00  0.00    +0.000 C 
ATOM     21  C   UNL     1       5.900   1.514  11.320  0.00  0.00    +0.000 C 
ENDBRANCH  18  19
ENDBRANCH   6  18
TORSDOF 3
ENDMDL
MODEL 2
REMARK VINA RESULT:      -7.4      0.057      1.997
REMARK  Name = 
REMARK  6 active torsions:
REMARK  status: ('A' for Active; 'I' for Inactive)
REMARK    1  A    between atoms: C_1  and  C_2
REMARK    2  A    between atoms: C_6  and  C_7
REMARK    3  A    between atoms: C_12  and  C_13
REMARK    4  A    between atoms: C_13  and  N_14
REMARK    5  A    between atoms: N_14  and  C_15
REMARK    6  A    between atoms: N_14  and  C_16
REMARK                            x       y       z     vdW  Elec       q    Type
REMARK                         _______ _______ _______ _____ _____    ______ ____
ROOT
ATOM      1  C   UNL     1       6.003   4.592  17.910  0.00  0.00    +0.000 C 
ATOM      2  O   UNL     1       6.969   4.222  18.569  0.00  0.00    +0.000 OA
ATOM      3  N   UNL     1       6.096   5.069  16.613  0.00  0.00    +0.000 N 
ATOM      4  C   UNL     1       7.400   5.209  15.966  0.00  0.00    +0.000 C 
ATOM      5  C   UNL     1       7.094   5.124  14.497  0.00  0.00    +0.000 C 
ATOM      6  C   UNL     1       6.398   3.896  13.933  0.00  0.00    +0.000 C 
ATOM      7  C   UNL     1       5.614   5.127  14.334  0.00  0.00    +0.000 C 
ATOM      8  C   UNL     1       4.983   5.215  15.676  0.00  0.00    +0.000 C 
ENDROOT
BRANCH   1  14
ATOM      9  C   UNL     1       0.767   4.292  20.418  0.00  0.00    +0.000 C 
ATOM     10  C   UNL     1       2.121   4.345  19.758  0.00  0.00    +0.000 A 
ATOM     11  C   UNL     1       2.729   3.206  19.206  0.00  0.00    +0.000 A 
ATOM     12 CL   UNL     1       2.013   1.635  19.282  0.00  0.00    +0.000 Cl
ATOM     13  C   UNL     1       3.974   3.290  18.576  0.00  0.00    +0.000 A 
ATOM     14  C   UNL     1       4.658   4.504  18.531  0.00  0.00    +0.000 A 
ATOM     15  C   UNL     1       4.068   5.654  19.050  0.00  0.00    +0.000 A 
ATOM     16  C   UNL     1       2.811   5.571  19.656  0.00  0.00    +0.000 A 
ATOM     17 CL   UNL     1       2.142   7.038  20.288  0.00  0.00    +0.000 Cl
ENDBRANCH   1  14
BRANCH   6  18
ATOM     18  C   UNL     1       6.433   3.507  12.490  0.00  0.00    +0.000 C 
BRANCH  18  19
ATOM     19  N   UNL     1       5.357   2.582  12.117  0.00  0.00    +0.000 NA
ATOM     20  C   UNL     1       4.285   3.244  11.373  0.00  0.00    +0.000 C 
ATOM     21  C   UNL     1       5.925   1.502  11.301  0.00  0.00    +0.000 C 
ENDBRANCH  18  19
ENDBRANCH   6  18
TORSDOF 3
ENDMDL
MODEL 3
REMARK VINA RESULT:      -6.1      9.485     11.455
REMARK  Name = 
REMARK  6 active torsions:
REMARK  status: ('A' for Active; 'I' for Inactive)
REMARK    1  A    between atoms: C_1  and  C_2
REMARK    2  A    between atoms: C_6  and  C_7
REMARK    3  A    between atoms: C_12  and  C_13
REMARK    4  A    between atoms: C_13  and  N_14
REMARK    5  A    between atoms: N_14  and  C_15
REMARK    6  A    between atoms: N_14  and  C_16
REMARK                            x       y       z     vdW  Elec       q    Type
REMARK                         _______ _______ _______ _____ _____    ______ ____
ROOT
ATOM      1  C   UNL     1      -0.661  11.138  22.125  0.00  0.00    +0.000 C 
ATOM      2  O   UNL     1      -0.272  10.184  22.791  0.00  0.00    +0.000 OA
ATOM      3  N   UNL     1      -0.451  11.259  20.762  0.00  0.00    +0.000 N 
ATOM      4  C   UNL     1       0.317  10.246  20.037  0.00  0.00    +0.000 C 
ATOM      5  C   UNL     1      -0.182  10.348  18.623  0.00  0.00    +0.000 C 
ATOM      6  C   UNL     1      -1.658  10.153  18.319  0.00  0.00    +0.000 C 
ATOM      7  C   UNL     1      -1.078  11.534  18.534  0.00  0.00    +0.000 C 
ATOM      8  C   UNL     1      -1.150  12.182  19.869  0.00  0.00    +0.000 C 
ENDROOT
BRANCH   1  14
ATOM      9  C   UNL     1      -3.545  15.358  24.894  0.00  0.00    +0.000 C 
ATOM     10  C   UNL     1      -2.820  14.251  24.173  0.00  0.00    +0.000 A 
ATOM     11  C   UNL     1      -3.413  13.001  23.934  0.00  0.00    +0.000 A 
ATOM     12 CL   UNL     1      -5.000  12.598  24.488  0.00  0.00    +0.000 Cl
ATOM     13  C   UNL     1      -2.727  12.000  23.240  0.00  0.00    +0.000 A 
ATOM     14  C   UNL     1      -1.416  12.212  22.817  0.00  0.00    +0.000 A 
ATOM     15  C   UNL     1      -0.810  13.450  23.022  0.00  0.00    +0.000 A 
ATOM     16  C   UNL     1      -1.510  14.457  23.693  0.00  0.00    +0.000 A 
ATOM     17 CL   UNL     1      -0.694  15.967  23.921  0.00  0.00    +0.000 Cl
ENDBRANCH   1  14
BRANCH   6  18
ATOM     18  C   UNL     1      -2.192   9.803  16.967  0.00  0.00    +0.000 C 
BRANCH  18  19
ATOM     19  N   UNL     1      -2.958  10.891  16.350  0.00  0.00    +0.000 NA
ATOM     20  C   UNL     1      -3.207  10.661  14.926  0.00  0.00    +0.000 C 
ATOM     21  C   UNL     1      -4.239  11.027  17.055  0.00  0.00    +0.000 C 
ENDBRANCH  18  19
ENDBRANCH   6  18
TORSDOF 3
ENDMDL
MODEL 4
REMARK VINA RESULT:      -6.1      3.155      5.064
REMARK  Name = 
REMARK  6 active torsions:
REMARK  status: ('A' for Active; 'I' for Inactive)
REMARK    1  A    between atoms: C_1  and  C_2
REMARK    2  A    between atoms: C_6  and  C_7
REMARK    3  A    between atoms: C_12  and  C_13
REMARK    4  A    between atoms: C_13  and  N_14
REMARK    5  A    between atoms: N_14  and  C_15
REMARK    6  A    between atoms: N_14  and  C_16
REMARK                            x       y       z     vdW  Elec       q    Type
REMARK                         _______ _______ _______ _____ _____    ______ ____
ROOT
ATOM      1  C   UNL     1       1.965   5.415  20.206  0.00  0.00    +0.000 C 
ATOM      2  O   UNL     1       1.050   4.625  20.411  0.00  0.00    +0.000 OA
ATOM      3  N   UNL     1       3.258   5.029  19.896  0.00  0.00    +0.000 N 
ATOM      4  C   UNL     1       3.617   3.612  19.850  0.00  0.00    +0.000 C 
ATOM      5  C   UNL     1       4.800   3.561  18.923  0.00  0.00    +0.000 C 
ATOM      6  C   UNL     1       4.677   4.080  17.501  0.00  0.00    +0.000 C 
ATOM      7  C   UNL     1       5.203   4.960  18.614  0.00  0.00    +0.000 C 
ATOM      8  C   UNL     1       4.294   5.892  19.331  0.00  0.00    +0.000 C 
ENDROOT
BRANCH   1  14
ATOM      9  C   UNL     1       0.696  11.081  20.504  0.00  0.00    +0.000 C 
ATOM     10  C   UNL     1       1.039   9.616  20.404  0.00  0.00    +0.000 A 
ATOM     11  C   UNL     1       1.595   9.056  19.243  0.00  0.00    +0.000 A 
ATOM     12 CL   UNL     1       1.886   9.975  17.808  0.00  0.00    +0.000 Cl
ATOM     13  C   UNL     1       1.928   7.700  19.188  0.00  0.00    +0.000 A 
ATOM     14  C   UNL     1       1.663   6.867  20.273  0.00  0.00    +0.000 A 
ATOM     15  C   UNL     1       1.132   7.400  21.446  0.00  0.00    +0.000 A 
ATOM     16  C   UNL     1       0.825   8.763  21.507  0.00  0.00    +0.000 A 
ATOM     17 CL   UNL     1       0.160   9.356  22.991  0.00  0.00    +0.000 Cl
ENDBRANCH   1  14
BRANCH   6  18
ATOM     18  C   UNL     1       5.602   3.699  16.391  0.00  0.00    +0.000 C 
BRANCH  18  19
ATOM     19  N   UNL     1       5.325   4.411  15.138  0.00  0.00    +0.000 NA
ATOM     20  C   UNL     1       5.429   5.864  15.289  0.00  0.00    +0.000 C 
ATOM     21  C   UNL     1       6.273   3.956  14.115  0.00  0.00    +0.000 C 
ENDBRANCH  18  19
ENDBRANCH   6  18
TORSDOF 3
ENDMDL
MODEL 5
REMARK VINA RESULT:      -6.1      9.595     11.375
REMARK  Name = 
REMARK  6 active torsions:
REMARK  status: ('A' for Active; 'I' for Inactive)
REMARK    1  A    between atoms: C_1  and  C_2
REMARK    2  A    between atoms: C_6  and  C_7
REMARK    3  A    between atoms: C_12  and  C_13
REMARK    4  A    between atoms: C_13  and  N_14
REMARK    5  A    between atoms: N_14  and  C_15
REMARK    6  A    between atoms: N_14  and  C_16
REMARK                            x       y       z     vdW  Elec       q    Type
REMARK                         _______ _______ _______ _____ _____    ______ ____
ROOT
ATOM      1  C   UNL     1      -0.443  11.392  21.870  0.00  0.00    +0.000 C 
ATOM      2  O   UNL     1       0.166  10.512  22.469  0.00  0.00    +0.000 OA
ATOM      3  N   UNL     1      -0.481  11.496  20.490  0.00  0.00    +0.000 N 
ATOM      4  C   UNL     1       0.272  10.559  19.655  0.00  0.00    +0.000 C 
ATOM      5  C   UNL     1      -0.466  10.557  18.345  0.00  0.00    +0.000 C 
ATOM      6  C   UNL     1      -1.937  10.179  18.299  0.00  0.00    +0.000 C 
ATOM      7  C   UNL     1      -1.502  11.625  18.399  0.00  0.00    +0.000 C 
ATOM      8  C   UNL     1      -1.429  12.301  19.720  0.00  0.00    +0.000 C 
ENDROOT
BRANCH   1  14
ATOM      9  C   UNL     1      -3.472  15.279  24.954  0.00  0.00    +0.000 C 
ATOM     10  C   UNL     1      -2.665  14.287  24.156  0.00  0.00    +0.000 A 
ATOM     11  C   UNL     1      -1.422  14.616  23.593  0.00  0.00    +0.000 A 
ATOM     12 CL   UNL     1      -0.728  16.195  23.714  0.00  0.00    +0.000 Cl
ATOM     13  C   UNL     1      -0.682  13.668  22.879  0.00  0.00    +0.000 A 
ATOM     14  C   UNL     1      -1.196  12.389  22.670  0.00  0.00    +0.000 A 
ATOM     15  C   UNL     1      -2.418  12.030  23.236  0.00  0.00    +0.000 A 
ATOM     16  C   UNL     1      -3.142  12.972  23.972  0.00  0.00    +0.000 A 
ATOM     17 CL   UNL     1      -4.655  12.460  24.639  0.00  0.00    +0.000 Cl
ENDBRANCH   1  14
BRANCH   6  18
ATOM     18  C   UNL     1      -2.643   9.726  17.062  0.00  0.00    +0.000 C 
BRANCH  18  19
ATOM     19  N   UNL     1      -3.125  10.838  16.234  0.00  0.00    +0.000 NA
ATOM     20  C   UNL     1      -3.129  10.509  14.808  0.00  0.00    +0.000 C 
ATOM     21  C   UNL     1      -4.485  11.190  16.659  0.00  0.00    +0.000 C 
ENDBRANCH  18  19
ENDBRANCH   6  18
TORSDOF 3
ENDMDL
MODEL 6
REMARK VINA RESULT:      -5.9      3.144      5.106
REMARK  Name = 
REMARK  6 active torsions:
REMARK  status: ('A' for Active; 'I' for Inactive)
REMARK    1  A    between atoms: C_1  and  C_2
REMARK    2  A    between atoms: C_6  and  C_7
REMARK    3  A    between atoms: C_12  and  C_13
REMARK    4  A    between atoms: C_13  and  N_14
REMARK    5  A    between atoms: N_14  and  C_15
REMARK    6  A    between atoms: N_14  and  C_16
REMARK                            x       y       z     vdW  Elec       q    Type
REMARK                         _______ _______ _______ _____ _____    ______ ____
ROOT
ATOM      1  C   UNL     1       1.900   5.371  20.262  0.00  0.00    +0.000 C 
ATOM      2  O   UNL     1       0.986   4.588  20.502  0.00  0.00    +0.000 OA
ATOM      3  N   UNL     1       3.184   4.974  19.930  0.00  0.00    +0.000 N 
ATOM      4  C   UNL     1       3.537   3.555  19.902  0.00  0.00    +0.000 C 
ATOM      5  C   UNL     1       4.698   3.483  18.950  0.00  0.00    +0.000 C 
ATOM      6  C   UNL     1       4.545   3.977  17.521  0.00  0.00    +0.000 C 
ATOM      7  C   UNL     1       5.099   4.875  18.606  0.00  0.00    +0.000 C 
ATOM      8  C   UNL     1       4.211   5.823  19.326  0.00  0.00    +0.000 C 
ENDROOT
BRANCH   1  14
ATOM      9  C   UNL     1       0.829  11.083  20.419  0.00  0.00    +0.000 C 
ATOM     10  C   UNL     1       1.092   9.599  20.400  0.00  0.00    +0.000 A 
ATOM     11  C   UNL     1       0.821   8.778  21.506  0.00  0.00    +0.000 A 
ATOM     12 CL   UNL     1       0.217   9.396  23.003  0.00  0.00    +0.000 Cl
ATOM     13  C   UNL     1       1.051   7.400  21.453  0.00  0.00    +0.000 A 
ATOM     14  C   UNL     1       1.604   6.825  20.310  0.00  0.00    +0.000 A 
ATOM     15  C   UNL     1       1.862   7.612  19.189  0.00  0.00    +0.000 A 
ATOM     16  C   UNL     1       1.606   8.986  19.238  0.00  0.00    +0.000 A 
ATOM     17 CL   UNL     1       1.957   9.905  17.814  0.00  0.00    +0.000 Cl
ENDBRANCH   1  14
BRANCH   6  18
ATOM     18  C   UNL     1       5.444   3.572  16.398  0.00  0.00    +0.000 C 
BRANCH  18  19
ATOM     19  N   UNL     1       5.727   4.666  15.462  0.00  0.00    +0.000 NA
ATOM     20  C   UNL     1       7.063   5.231  15.653  0.00  0.00    +0.000 C 
ATOM     21  C   UNL     1       5.601   4.160  14.090  0.00  0.00    +0.000 C 
ENDBRANCH  18  19
ENDBRANCH   6  18
TORSDOF 3
ENDMDL
MODEL 7
REMARK VINA RESULT:      -5.9      1.283      1.297
REMARK  Name = 
REMARK  6 active torsions:
REMARK  status: ('A' for Active; 'I' for Inactive)
REMARK    1  A    between atoms: C_1  and  C_2
REMARK    2  A    between atoms: C_6  and  C_7
REMARK    3  A    between atoms: C_12  and  C_13
REMARK    4  A    between atoms: C_13  and  N_14
REMARK    5  A    between atoms: N_14  and  C_15
REMARK    6  A    between atoms: N_14  and  C_16
REMARK                            x       y       z     vdW  Elec       q    Type
REMARK                         _______ _______ _______ _____ _____    ______ ____
ROOT
ATOM      1  C   UNL     1       5.985   4.398  17.702  0.00  0.00    +0.000 C 
ATOM      2  O   UNL     1       6.986   4.165  18.372  0.00  0.00    +0.000 OA
ATOM      3  N   UNL     1       6.024   4.886  16.407  0.00  0.00    +0.000 N 
ATOM      4  C   UNL     1       7.303   5.207  15.774  0.00  0.00    +0.000 C 
ATOM      5  C   UNL     1       7.028   5.082  14.302  0.00  0.00    +0.000 C 
ATOM      6  C   UNL     1       6.516   3.771  13.730  0.00  0.00    +0.000 C 
ATOM      7  C   UNL     1       5.564   4.880  14.122  0.00  0.00    +0.000 C 
ATOM      8  C   UNL     1       4.912   4.876  15.457  0.00  0.00    +0.000 C 
ENDROOT
BRANCH   1  14
ATOM      9  C   UNL     1       0.814   3.225  20.086  0.00  0.00    +0.000 C 
ATOM     10  C   UNL     1       2.143   3.547  19.452  0.00  0.00    +0.000 A 
ATOM     11  C   UNL     1       2.244   4.280  18.259  0.00  0.00    +0.000 A 
ATOM     12 CL   UNL     1       0.861   4.831  17.380  0.00  0.00    +0.000 Cl
ATOM     13  C   UNL     1       3.491   4.586  17.706  0.00  0.00    +0.000 A 
ATOM     14  C   UNL     1       4.659   4.121  18.308  0.00  0.00    +0.000 A 
ATOM     15  C   UNL     1       4.589   3.411  19.505  0.00  0.00    +0.000 A 
ATOM     16  C   UNL     1       3.341   3.129  20.068  0.00  0.00    +0.000 A 
ATOM     17 CL   UNL     1       3.328   2.235  21.551  0.00  0.00    +0.000 Cl
ENDBRANCH   1  14
BRANCH   6  18
ATOM     18  C   UNL     1       6.621   3.393  12.288  0.00  0.00    +0.000 C 
BRANCH  18  19
ATOM     19  N   UNL     1       5.633   2.386  11.883  0.00  0.00    +0.000 NA
ATOM     20  C   UNL     1       4.484   2.978  11.196  0.00  0.00    +0.000 C 
ATOM     21  C   UNL     1       6.285   1.414  10.997  0.00  0.00    +0.000 C 
ENDBRANCH  18  19
ENDBRANCH   6  18
TORSDOF 3
ENDMDL
MODEL 8
REMARK VINA RESULT:      -5.9      9.625     11.706
REMARK  Name = 
REMARK  6 active torsions:
REMARK  status: ('A' for Active; 'I' for Inactive)
REMARK    1  A    between atoms: C_1  and  C_2
REMARK    2  A    between atoms: C_6  and  C_7
REMARK    3  A    between atoms: C_12  and  C_13
REMARK    4  A    between atoms: C_13  and  N_14
REMARK    5  A    between atoms: N_14  and  C_15
REMARK    6  A    between atoms: N_14  and  C_16
REMARK                            x       y       z     vdW  Elec       q    Type
REMARK                         _______ _______ _______ _____ _____    ______ ____
ROOT
ATOM      1  C   UNL     1      -0.943  11.367  22.653  0.00  0.00    +0.000 C 
ATOM      2  O   UNL     1      -0.746  10.416  23.401  0.00  0.00    +0.000 OA
ATOM      3  N   UNL     1      -0.459  11.439  21.358  0.00  0.00    +0.000 N 
ATOM      4  C   UNL     1       0.384  10.370  20.822  0.00  0.00    +0.000 C 
ATOM      5  C   UNL     1       0.184  10.453  19.334  0.00  0.00    +0.000 C 
ATOM      6  C   UNL     1      -1.209  10.320  18.743  0.00  0.00    +0.000 C 
ATOM      7  C   UNL     1      -0.613  11.677  19.045  0.00  0.00    +0.000 C 
ATOM      8  C   UNL     1      -0.917  12.367  20.325  0.00  0.00    +0.000 C 
ENDROOT
BRANCH   1  14
ATOM      9  C   UNL     1      -4.100  15.797  24.705  0.00  0.00    +0.000 C 
ATOM     10  C   UNL     1      -3.304  14.636  24.165  0.00  0.00    +0.000 A 
ATOM     11  C   UNL     1      -3.904  13.414  23.821  0.00  0.00    +0.000 A 
ATOM     12 CL   UNL     1      -5.592  13.108  24.034  0.00  0.00    +0.000 Cl
ATOM     13  C   UNL     1      -3.145  12.363  23.298  0.00  0.00    +0.000 A 
ATOM     14  C   UNL     1      -1.765  12.495  23.158  0.00  0.00    +0.000 A 
ATOM     15  C   UNL     1      -1.147  13.704  23.471  0.00  0.00    +0.000 A 
ATOM     16  C   UNL     1      -1.913  14.762  23.969  0.00  0.00    +0.000 A 
ATOM     17 CL   UNL     1      -1.079  16.232  24.345  0.00  0.00    +0.000 Cl
ENDBRANCH   1  14
BRANCH   6  18
ATOM     18  C   UNL     1      -1.479   9.956  17.319  0.00  0.00    +0.000 C 
BRANCH  18  19
ATOM     19  N   UNL     1      -2.906   9.773  17.032  0.00  0.00    +0.000 NA
ATOM     20  C   UNL     1      -3.745  10.749  17.730  0.00  0.00    +0.000 C 
ATOM     21  C   UNL     1      -3.117   9.894  15.584  0.00  0.00    +0.000 C 
ENDBRANCH  18  19
ENDBRANCH   6  18
TORSDOF 3
ENDMDL
MODEL 9
REMARK VINA RESULT:      -5.8      1.009      2.171
REMARK  Name = 
REMARK  6 active torsions:
REMARK  status: ('A' for Active; 'I' for Inactive)
REMARK    1  A    between atoms: C_1  and  C_2
REMARK    2  A    between atoms: C_6  and  C_7
REMARK    3  A    between atoms: C_12  and  C_13
REMARK    4  A    between atoms: C_13  and  N_14
REMARK    5  A    between atoms: N_14  and  C_15
REMARK    6  A    between atoms: N_14  and  C_16
REMARK                            x       y       z     vdW  Elec       q    Type
REMARK                         _______ _______ _______ _____ _____    ______ ____
ROOT
ATOM      1  C   UNL     1       6.318   4.663  17.586  0.00  0.00    +0.000 C 
ATOM      2  O   UNL     1       7.309   4.191  18.132  0.00  0.00    +0.000 OA
ATOM      3  N   UNL     1       6.288   5.063  16.261  0.00  0.00    +0.000 N 
ATOM      4  C   UNL     1       7.495   4.989  15.437  0.00  0.00    +0.000 C 
ATOM      5  C   UNL     1       6.976   4.880  14.031  0.00  0.00    +0.000 C 
ATOM      6  C   UNL     1       6.050   3.738  13.645  0.00  0.00    +0.000 C 
ATOM      7  C   UNL     1       5.502   5.084  14.067  0.00  0.00    +0.000 C 
ATOM      8  C   UNL     1       5.084   5.320  15.473  0.00  0.00    +0.000 C 
ENDROOT
BRANCH   1  14
ATOM      9  C   UNL     1       1.479   5.251  20.754  0.00  0.00    +0.000 C 
ATOM     10  C   UNL     1       2.733   5.073  19.937  0.00  0.00    +0.000 A 
ATOM     11  C   UNL     1       3.467   3.876  19.947  0.00  0.00    +0.000 A 
ATOM     12 CL   UNL     1       3.036   2.523  20.933  0.00  0.00    +0.000 Cl
ATOM     13  C   UNL     1       4.612   3.728  19.159  0.00  0.00    +0.000 A 
ATOM     14  C   UNL     1       5.074   4.792  18.386  0.00  0.00    +0.000 A 
ATOM     15  C   UNL     1       4.353   5.984  18.340  0.00  0.00    +0.000 A 
ATOM     16  C   UNL     1       3.193   6.118  19.109  0.00  0.00    +0.000 A 
ATOM     17 CL   UNL     1       2.352   7.628  19.011  0.00  0.00    +0.000 Cl
ENDBRANCH   1  14
BRANCH   6  18
ATOM     18  C   UNL     1       5.829   3.283  12.239  0.00  0.00    +0.000 C 
BRANCH  18  19
ATOM     19  N   UNL     1       6.559   2.053  11.911  0.00  0.00    +0.000 NA
ATOM     20  C   UNL     1       5.737   1.101  11.161  0.00  0.00    +0.000 C 
ATOM     21  C   UNL     1       7.745   2.403  11.120  0.00  0.00    +0.000 C 
ENDBRANCH  18  19
ENDBRANCH   6  18
TORSDOF 3
ENDMDL
