MODEL 1
REMARK VINA RESULT:      -7.9      0.000      0.000
REMARK  Name = 
REMARK  9 active torsions:
REMARK  status: ('A' for Active; 'I' for Inactive)
REMARK    1  A    between atoms: N_1  and  C_2
REMARK    2  A    between atoms: C_2  and  C_3
REMARK    3  A    between atoms: C_2  and  C_11
REMARK    4  A    between atoms: C_3  and  C_4
REMARK    5  A    between atoms: C_7  and  O_8
REMARK    6  A    between atoms: N_13  and  C_14
REMARK    7  A    between atoms: N_18  and  C_19
REMARK    8  A    between atoms: C_19  and  C_20
REMARK    9  A    between atoms: N_22  and  O_23
REMARK                            x       y       z     vdW  Elec       q    Type
REMARK                         _______ _______ _______ _____ _____    ______ ____
ROOT
ATOM      1  C   UNL     1       2.711   6.736  19.162  0.00  0.00    +0.000 C 
ATOM      2  O   UNL     1       2.163   7.586  18.474  0.00  0.00    +0.000 OA
ATOM      3  N   UNL     1       3.810   6.085  18.678  0.00  0.00    +0.000 N 
ATOM      4  H   UNL     1       4.264   5.364  19.258  0.00  0.00    +0.000 HD
ENDROOT
BRANCH   3   5
ATOM      5  C   UNL     1       4.384   6.321  17.357  0.00  0.00    +0.000 C 
ATOM      6  C   UNL     1       5.585   7.295  17.398  0.00  0.00    +0.000 C 
ATOM      7  C   UNL     1       6.669   6.492  16.747  0.00  0.00    +0.000 C 
ATOM      8  O   UNL     1       7.796   6.920  16.545  0.00  0.00    +0.000 OA
ATOM      9  N   UNL     1       6.267   5.260  16.375  0.00  0.00    +0.000 N 
ATOM     10  C   UNL     1       4.973   5.094  16.714  0.00  0.00    +0.000 C 
ATOM     11  O   UNL     1       4.336   4.080  16.466  0.00  0.00    +0.000 OA
BRANCH   9  12
ATOM     12  C   UNL     1       7.080   4.301  15.633  0.00  0.00    +0.000 C 
BRANCH  12  13
ATOM     13  C   UNL     1       6.919   4.412  14.137  0.00  0.00    +0.000 C 
ATOM     14  O   UNL     1       7.435   5.356  13.557  0.00  0.00    +0.000 OA
ATOM     15  N   UNL     1       6.254   3.469  13.427  0.00  0.00    +0.000 N 
ATOM     16  H   UNL     1       5.831   2.658  13.903  0.00  0.00    +0.000 HD
BRANCH  15  17
ATOM     17  O   UNL     1       6.158   3.567  12.090  0.00  0.00    +0.000 OA
ATOM     18  H   UNL     1       6.095   4.540  11.905  0.00  0.00    +0.000 HD
ENDBRANCH  15  17
ENDBRANCH  12  13
ENDBRANCH   9  12
ENDBRANCH   3   5
BRANCH   1  19
ATOM     19  C   UNL     1       2.114   6.365  20.520  0.00  0.00    +0.000 C 
BRANCH  19  20
ATOM     20  N   UNL     1       1.306   7.471  21.043  0.00  0.00    +0.000 NA
ATOM     21  H   UNL     1       1.726   8.386  20.752  0.00  0.00    +0.000 HD
ATOM     22  H   UNL     1       1.276   7.432  22.087  0.00  0.00    +0.000 HD
ENDBRANCH  19  20
BRANCH  19  23
ATOM     23  C   UNL     1       1.253   5.076  20.473  0.00  0.00    +0.000 C 
BRANCH  23  24
ATOM     24  C   UNL     1       1.964   3.883  19.877  0.00  0.00    +0.000 A 
ATOM     25  C   UNL     1       1.494   3.272  18.699  0.00  0.00    +0.000 A 
ATOM     26  C   UNL     1       2.166   2.175  18.158  0.00  0.00    +0.000 A 
ATOM     27  C   UNL     1       3.316   1.671  18.784  0.00  0.00    +0.000 A 
ATOM     28  C   UNL     1       3.784   2.270  19.957  0.00  0.00    +0.000 A 
ATOM     29  C   UNL     1       3.116   3.370  20.497  0.00  0.00    +0.000 A 
BRANCH  27  30
ATOM     30  O   UNL     1       3.979   0.615  18.270  0.00  0.00    +0.000 OA
ATOM     31  H   UNL     1       4.840   0.709  17.838  0.00  0.00    +0.000 HD
ENDBRANCH  27  30
ENDBRANCH  23  24
ENDBRANCH  19  23
ENDBRANCH   1  19
TORSDOF 9
ENDMDL
MODEL 2
REMARK VINA RESULT:      -7.9      0.696      1.322
REMARK  Name = 
REMARK  9 active torsions:
REMARK  status: ('A' for Active; 'I' for Inactive)
REMARK    1  A    between atoms: N_1  and  C_2
REMARK    2  A    between atoms: C_2  and  C_3
REMARK    3  A    between atoms: C_2  and  C_11
REMARK    4  A    between atoms: C_3  and  C_4
REMARK    5  A    between atoms: C_7  and  O_8
REMARK    6  A    between atoms: N_13  and  C_14
REMARK    7  A    between atoms: N_18  and  C_19
REMARK    8  A    between atoms: C_19  and  C_20
REMARK    9  A    between atoms: N_22  and  O_23
REMARK                            x       y       z     vdW  Elec       q    Type
REMARK                         _______ _______ _______ _____ _____    ______ ____
ROOT
ATOM      1  C   UNL     1       2.676   6.745  19.135  0.00  0.00    +0.000 C 
ATOM      2  O   UNL     1       2.037   7.461  18.378  0.00  0.00    +0.000 OA
ATOM      3  N   UNL     1       3.868   6.221  18.720  0.00  0.00    +0.000 N 
ATOM      4  H   UNL     1       4.400   5.612  19.358  0.00  0.00    +0.000 HD
ENDROOT
BRANCH   3   5
ATOM      5  C   UNL     1       4.441   6.443  17.396  0.00  0.00    +0.000 C 
ATOM      6  C   UNL     1       5.689   7.356  17.437  0.00  0.00    +0.000 C 
ATOM      7  C   UNL     1       6.726   6.508  16.766  0.00  0.00    +0.000 C 
ATOM      8  O   UNL     1       7.872   6.881  16.559  0.00  0.00    +0.000 OA
ATOM      9  N   UNL     1       6.261   5.301  16.385  0.00  0.00    +0.000 N 
ATOM     10  C   UNL     1       4.963   5.196  16.735  0.00  0.00    +0.000 C 
ATOM     11  O   UNL     1       4.275   4.217  16.482  0.00  0.00    +0.000 OA
BRANCH   9  12
ATOM     12  C   UNL     1       7.019   4.311  15.626  0.00  0.00    +0.000 C 
BRANCH  12  13
ATOM     13  C   UNL     1       7.159   4.659  14.165  0.00  0.00    +0.000 C 
ATOM     14  O   UNL     1       6.412   4.127  13.358  0.00  0.00    +0.000 OA
ATOM     15  N   UNL     1       8.063   5.575  13.741  0.00  0.00    +0.000 N 
ATOM     16  H   UNL     1       8.687   6.044  14.414  0.00  0.00    +0.000 HD
BRANCH  15  17
ATOM     17  O   UNL     1       8.143   5.899  12.439  0.00  0.00    +0.000 OA
ATOM     18  H   UNL     1       9.103   6.089  12.277  0.00  0.00    +0.000 HD
ENDBRANCH  15  17
ENDBRANCH  12  13
ENDBRANCH   9  12
ENDBRANCH   3   5
BRANCH   1  19
ATOM     19  C   UNL     1       2.098   6.389  20.505  0.00  0.00    +0.000 C 
BRANCH  19  20
ATOM     20  N   UNL     1       1.268   7.486  21.010  0.00  0.00    +0.000 NA
ATOM     21  H   UNL     1       1.872   8.311  21.241  0.00  0.00    +0.000 HD
ATOM     22  H   UNL     1       0.765   7.187  21.877  0.00  0.00    +0.000 HD
ENDBRANCH  19  20
BRANCH  19  23
ATOM     23  C   UNL     1       1.267   5.079  20.492  0.00  0.00    +0.000 C 
BRANCH  23  24
ATOM     24  C   UNL     1       1.994   3.897  19.895  0.00  0.00    +0.000 A 
ATOM     25  C   UNL     1       3.155   3.378  20.500  0.00  0.00    +0.000 A 
ATOM     26  C   UNL     1       3.812   2.282  19.939  0.00  0.00    +0.000 A 
ATOM     27  C   UNL     1       3.321   1.687  18.766  0.00  0.00    +0.000 A 
ATOM     28  C   UNL     1       2.173   2.203  18.158  0.00  0.00    +0.000 A 
ATOM     29  C   UNL     1       1.512   3.296  18.719  0.00  0.00    +0.000 A 
BRANCH  27  30
ATOM     30  O   UNL     1       3.942   0.625  18.215  0.00  0.00    +0.000 OA
ATOM     31  H   UNL     1       4.259   0.631  17.300  0.00  0.00    +0.000 HD
ENDBRANCH  27  30
ENDBRANCH  23  24
ENDBRANCH  19  23
ENDBRANCH   1  19
TORSDOF 9
ENDMDL
MODEL 3
REMARK VINA RESULT:      -7.8      1.149      1.371
REMARK  Name = 
REMARK  9 active torsions:
REMARK  status: ('A' for Active; 'I' for Inactive)
REMARK    1  A    between atoms: N_1  and  C_2
REMARK    2  A    between atoms: C_2  and  C_3
REMARK    3  A    between atoms: C_2  and  C_11
REMARK    4  A    between atoms: C_3  and  C_4
REMARK    5  A    between atoms: C_7  and  O_8
REMARK    6  A    between atoms: N_13  and  C_14
REMARK    7  A    between atoms: N_18  and  C_19
REMARK    8  A    between atoms: C_19  and  C_20
REMARK    9  A    between atoms: N_22  and  O_23
REMARK                            x       y       z     vdW  Elec       q    Type
REMARK                         _______ _______ _______ _____ _____    ______ ____
ROOT
ATOM      1  C   UNL     1       3.157   6.460  19.526  0.00  0.00    +0.000 C 
ATOM      2  O   UNL     1       2.763   7.192  18.629  0.00  0.00    +0.000 OA
ATOM      3  N   UNL     1       4.394   5.887  19.432  0.00  0.00    +0.000 N 
ATOM      4  H   UNL     1       4.719   5.264  20.186  0.00  0.00    +0.000 HD
ENDROOT
BRANCH   3   5
ATOM      5  C   UNL     1       5.297   6.072  18.301  0.00  0.00    +0.000 C 
ATOM      6  C   UNL     1       6.764   5.727  18.651  0.00  0.00    +0.000 C 
ATOM      7  C   UNL     1       7.106   4.702  17.613  0.00  0.00    +0.000 C 
ATOM      8  O   UNL     1       8.210   4.187  17.513  0.00  0.00    +0.000 OA
ATOM      9  N   UNL     1       6.083   4.429  16.778  0.00  0.00    +0.000 N 
ATOM     10  C   UNL     1       5.012   5.167  17.132  0.00  0.00    +0.000 C 
ATOM     11  O   UNL     1       3.950   5.147  16.526  0.00  0.00    +0.000 OA
BRANCH   9  12
ATOM     12  C   UNL     1       6.161   3.547  15.618  0.00  0.00    +0.000 C 
BRANCH  12  13
ATOM     13  C   UNL     1       6.767   4.208  14.404  0.00  0.00    +0.000 C 
ATOM     14  O   UNL     1       6.389   3.863  13.295  0.00  0.00    +0.000 OA
ATOM     15  N   UNL     1       7.682   5.199  14.524  0.00  0.00    +0.000 N 
ATOM     16  H   UNL     1       7.995   5.513  15.455  0.00  0.00    +0.000 HD
BRANCH  15  17
ATOM     17  O   UNL     1       8.178   5.802  13.431  0.00  0.00    +0.000 OA
ATOM     18  H   UNL     1       8.371   5.067  12.793  0.00  0.00    +0.000 HD
ENDBRANCH  15  17
ENDBRANCH  12  13
ENDBRANCH   9  12
ENDBRANCH   3   5
BRANCH   1  19
ATOM     19  C   UNL     1       2.232   6.141  20.701  0.00  0.00    +0.000 C 
BRANCH  19  20
ATOM     20  N   UNL     1       1.384   7.296  21.012  0.00  0.00    +0.000 NA
ATOM     21  H   UNL     1       1.980   8.145  21.160  0.00  0.00    +0.000 HD
ATOM     22  H   UNL     1       0.835   7.114  21.883  0.00  0.00    +0.000 HD
ENDBRANCH  19  20
BRANCH  19  23
ATOM     23  C   UNL     1       1.338   4.899  20.451  0.00  0.00    +0.000 C 
BRANCH  23  24
ATOM     24  C   UNL     1       2.059   3.748  19.787  0.00  0.00    +0.000 A 
ATOM     25  C   UNL     1       1.724   3.337  18.483  0.00  0.00    +0.000 A 
ATOM     26  C   UNL     1       2.403   2.276  17.882  0.00  0.00    +0.000 A 
ATOM     27  C   UNL     1       3.425   1.607  18.574  0.00  0.00    +0.000 A 
ATOM     28  C   UNL     1       3.756   2.007  19.872  0.00  0.00    +0.000 A 
ATOM     29  C   UNL     1       3.082   3.071  20.473  0.00  0.00    +0.000 A 
BRANCH  27  30
ATOM     30  O   UNL     1       4.093   0.584  18.005  0.00  0.00    +0.000 OA
ATOM     31  H   UNL     1       3.723  -0.310  17.960  0.00  0.00    +0.000 HD
ENDBRANCH  27  30
ENDBRANCH  23  24
ENDBRANCH  19  23
ENDBRANCH   1  19
TORSDOF 9
ENDMDL
MODEL 4
REMARK VINA RESULT:      -7.5      1.042      1.434
REMARK  Name = 
REMARK  9 active torsions:
REMARK  status: ('A' for Active; 'I' for Inactive)
REMARK    1  A    between atoms: N_1  and  C_2
REMARK    2  A    between atoms: C_2  and  C_3
REMARK    3  A    between atoms: C_2  and  C_11
REMARK    4  A    between atoms: C_3  and  C_4
REMARK    5  A    between atoms: C_7  and  O_8
REMARK    6  A    between atoms: N_13  and  C_14
REMARK    7  A    between atoms: N_18  and  C_19
REMARK    8  A    between atoms: C_19  and  C_20
REMARK    9  A    between atoms: N_22  and  O_23
REMARK                            x       y       z     vdW  Elec       q    Type
REMARK                         _______ _______ _______ _____ _____    ______ ____
ROOT
ATOM      1  C   UNL     1       3.178   6.493  19.493  0.00  0.00    +0.000 C 
ATOM      2  O   UNL     1       2.804   7.247  18.606  0.00  0.00    +0.000 OA
ATOM      3  N   UNL     1       4.401   5.892  19.395  0.00  0.00    +0.000 N 
ATOM      4  H   UNL     1       4.709   5.251  20.141  0.00  0.00    +0.000 HD
ENDROOT
BRANCH   3   5
ATOM      5  C   UNL     1       5.312   6.072  18.269  0.00  0.00    +0.000 C 
ATOM      6  C   UNL     1       6.779   5.747  18.637  0.00  0.00    +0.000 C 
ATOM      7  C   UNL     1       7.141   4.713  17.616  0.00  0.00    +0.000 C 
ATOM      8  O   UNL     1       8.251   4.207  17.532  0.00  0.00    +0.000 OA
ATOM      9  N   UNL     1       6.129   4.418  16.775  0.00  0.00    +0.000 N 
ATOM     10  C   UNL     1       5.047   5.150  17.110  0.00  0.00    +0.000 C 
ATOM     11  O   UNL     1       3.991   5.110  16.495  0.00  0.00    +0.000 OA
BRANCH   9  12
ATOM     12  C   UNL     1       6.226   3.522  15.627  0.00  0.00    +0.000 C 
BRANCH  12  13
ATOM     13  C   UNL     1       6.731   4.203  14.379  0.00  0.00    +0.000 C 
ATOM     14  O   UNL     1       7.354   5.248  14.490  0.00  0.00    +0.000 OA
ATOM     15  N   UNL     1       6.544   3.659  13.153  0.00  0.00    +0.000 N 
ATOM     16  H   UNL     1       6.036   2.768  13.048  0.00  0.00    +0.000 HD
BRANCH  15  17
ATOM     17  O   UNL     1       7.038   4.263  12.059  0.00  0.00    +0.000 OA
ATOM     18  H   UNL     1       6.570   3.838  11.294  0.00  0.00    +0.000 HD
ENDBRANCH  15  17
ENDBRANCH  12  13
ENDBRANCH   9  12
ENDBRANCH   3   5
BRANCH   1  19
ATOM     19  C   UNL     1       2.241   6.179  20.661  0.00  0.00    +0.000 C 
BRANCH  19  20
ATOM     20  N   UNL     1       1.383   7.332  20.952  0.00  0.00    +0.000 NA
ATOM     21  H   UNL     1       0.380   7.076  20.792  0.00  0.00    +0.000 HD
ATOM     22  H   UNL     1       1.630   8.131  20.324  0.00  0.00    +0.000 HD
ENDBRANCH  19  20
BRANCH  19  23
ATOM     23  C   UNL     1       1.356   4.930  20.411  0.00  0.00    +0.000 C 
BRANCH  23  24
ATOM     24  C   UNL     1       2.096   3.768  19.789  0.00  0.00    +0.000 A 
ATOM     25  C   UNL     1       3.117   3.099  20.491  0.00  0.00    +0.000 A 
ATOM     26  C   UNL     1       3.787   2.024  19.905  0.00  0.00    +0.000 A 
ATOM     27  C   UNL     1       3.450   1.601  18.610  0.00  0.00    +0.000 A 
ATOM     28  C   UNL     1       2.441   2.266  17.907  0.00  0.00    +0.000 A 
ATOM     29  C   UNL     1       1.767   3.338  18.492  0.00  0.00    +0.000 A 
BRANCH  27  30
ATOM     30  O   UNL     1       4.085   0.561  18.033  0.00  0.00    +0.000 OA
ATOM     31  H   UNL     1       4.082   0.425  17.075  0.00  0.00    +0.000 HD
ENDBRANCH  27  30
ENDBRANCH  23  24
ENDBRANCH  19  23
ENDBRANCH   1  19
TORSDOF 9
ENDMDL
MODEL 5
REMARK VINA RESULT:      -7.1      4.867      7.325
REMARK  Name = 
REMARK  9 active torsions:
REMARK  status: ('A' for Active; 'I' for Inactive)
REMARK    1  A    between atoms: N_1  and  C_2
REMARK    2  A    between atoms: C_2  and  C_3
REMARK    3  A    between atoms: C_2  and  C_11
REMARK    4  A    between atoms: C_3  and  C_4
REMARK    5  A    between atoms: C_7  and  O_8
REMARK    6  A    between atoms: N_13  and  C_14
REMARK    7  A    between atoms: N_18  and  C_19
REMARK    8  A    between atoms: C_19  and  C_20
REMARK    9  A    between atoms: N_22  and  O_23
REMARK                            x       y       z     vdW  Elec       q    Type
REMARK                         _______ _______ _______ _____ _____    ______ ____
ROOT
ATOM      1  C   UNL     1       0.963   9.427  19.689  0.00  0.00    +0.000 C 
ATOM      2  O   UNL     1       1.218   9.621  20.869  0.00  0.00    +0.000 OA
ATOM      3  N   UNL     1       1.478   8.329  19.060  0.00  0.00    +0.000 N 
ATOM      4  H   UNL     1       1.267   8.174  18.063  0.00  0.00    +0.000 HD
ENDROOT
BRANCH   3   5
ATOM      5  C   UNL     1       2.350   7.352  19.705  0.00  0.00    +0.000 C 
ATOM      6  C   UNL     1       1.572   6.373  20.615  0.00  0.00    +0.000 C 
ATOM      7  C   UNL     1       1.969   5.039  20.063  0.00  0.00    +0.000 C 
ATOM      8  O   UNL     1       1.593   3.976  20.532  0.00  0.00    +0.000 OA
ATOM      9  N   UNL     1       2.811   5.128  19.013  0.00  0.00    +0.000 N 
ATOM     10  C   UNL     1       3.052   6.428  18.747  0.00  0.00    +0.000 C 
ATOM     11  O   UNL     1       3.810   6.805  17.864  0.00  0.00    +0.000 OA
BRANCH   9  12
ATOM     12  C   UNL     1       3.436   3.994  18.340  0.00  0.00    +0.000 C 
BRANCH  12  13
ATOM     13  C   UNL     1       4.892   3.817  18.696  0.00  0.00    +0.000 C 
ATOM     14  O   UNL     1       5.180   3.185  19.702  0.00  0.00    +0.000 OA
ATOM     15  N   UNL     1       5.876   4.304  17.904  0.00  0.00    +0.000 N 
ATOM     16  H   UNL     1       5.646   4.822  17.043  0.00  0.00    +0.000 HD
BRANCH  15  17
ATOM     17  O   UNL     1       7.166   4.099  18.219  0.00  0.00    +0.000 OA
ATOM     18  H   UNL     1       7.175   3.961  19.201  0.00  0.00    +0.000 HD
ENDBRANCH  15  17
ENDBRANCH  12  13
ENDBRANCH   9  12
ENDBRANCH   3   5
BRANCH   1  19
ATOM     19  C   UNL     1       0.133  10.455  18.918  0.00  0.00    +0.000 C 
BRANCH  19  20
ATOM     20  N   UNL     1       0.978  11.571  18.481  0.00  0.00    +0.000 NA
ATOM     21  H   UNL     1       0.385  12.310  18.034  0.00  0.00    +0.000 HD
ATOM     22  H   UNL     1       1.681  11.237  17.783  0.00  0.00    +0.000 HD
ENDBRANCH  19  20
BRANCH  19  23
ATOM     23  C   UNL     1      -0.594   9.849  17.689  0.00  0.00    +0.000 C 
BRANCH  23  24
ATOM     24  C   UNL     1      -1.978  10.412  17.456  0.00  0.00    +0.000 A 
ATOM     25  C   UNL     1      -2.663  11.099  18.475  0.00  0.00    +0.000 A 
ATOM     26  C   UNL     1      -3.937  11.617  18.242  0.00  0.00    +0.000 A 
ATOM     27  C   UNL     1      -4.548  11.457  16.989  0.00  0.00    +0.000 A 
ATOM     28  C   UNL     1      -3.874  10.770  15.974  0.00  0.00    +0.000 A 
ATOM     29  C   UNL     1      -2.598  10.254  16.204  0.00  0.00    +0.000 A 
BRANCH  27  30
ATOM     30  O   UNL     1      -5.777  11.956  16.747  0.00  0.00    +0.000 OA
ATOM     31  H   UNL     1      -6.260  11.760  15.931  0.00  0.00    +0.000 HD
ENDBRANCH  27  30
ENDBRANCH  23  24
ENDBRANCH  19  23
ENDBRANCH   1  19
TORSDOF 9
ENDMDL
MODEL 6
REMARK VINA RESULT:      -7.1      3.379      5.715
REMARK  Name = 
REMARK  9 active torsions:
REMARK  status: ('A' for Active; 'I' for Inactive)
REMARK    1  A    between atoms: N_1  and  C_2
REMARK    2  A    between atoms: C_2  and  C_3
REMARK    3  A    between atoms: C_2  and  C_11
REMARK    4  A    between atoms: C_3  and  C_4
REMARK    5  A    between atoms: C_7  and  O_8
REMARK    6  A    between atoms: N_13  and  C_14
REMARK    7  A    between atoms: N_18  and  C_19
REMARK    8  A    between atoms: C_19  and  C_20
REMARK    9  A    between atoms: N_22  and  O_23
REMARK                            x       y       z     vdW  Elec       q    Type
REMARK                         _______ _______ _______ _____ _____    ______ ____
ROOT
ATOM      1  C   UNL     1       1.935   6.455  20.205  0.00  0.00    +0.000 C 
ATOM      2  O   UNL     1       1.447   5.461  20.725  0.00  0.00    +0.000 OA
ATOM      3  N   UNL     1       3.038   6.325  19.409  0.00  0.00    +0.000 N 
ATOM      4  H   UNL     1       3.450   7.167  18.980  0.00  0.00    +0.000 HD
ENDROOT
BRANCH   3   5
ATOM      5  C   UNL     1       3.707   5.057  19.141  0.00  0.00    +0.000 C 
ATOM      6  C   UNL     1       3.252   4.417  17.808  0.00  0.00    +0.000 C 
ATOM      7  C   UNL     1       4.549   4.237  17.081  0.00  0.00    +0.000 C 
ATOM      8  O   UNL     1       4.638   3.718  15.978  0.00  0.00    +0.000 OA
ATOM      9  N   UNL     1       5.616   4.675  17.781  0.00  0.00    +0.000 N 
ATOM     10  C   UNL     1       5.197   5.174  18.962  0.00  0.00    +0.000 C 
ATOM     11  O   UNL     1       5.956   5.612  19.814  0.00  0.00    +0.000 OA
BRANCH   9  12
ATOM     12  C   UNL     1       7.007   4.537  17.363  0.00  0.00    +0.000 C 
BRANCH  12  13
ATOM     13  C   UNL     1       7.358   5.387  16.167  0.00  0.00    +0.000 C 
ATOM     14  O   UNL     1       7.565   6.580  16.332  0.00  0.00    +0.000 OA
ATOM     15  N   UNL     1       7.489   4.847  14.931  0.00  0.00    +0.000 N 
ATOM     16  H   UNL     1       7.336   3.839  14.782  0.00  0.00    +0.000 HD
BRANCH  15  17
ATOM     17  O   UNL     1       7.842   5.616  13.887  0.00  0.00    +0.000 OA
ATOM     18  H   UNL     1       7.012   5.730  13.356  0.00  0.00    +0.000 HD
ENDBRANCH  15  17
ENDBRANCH  12  13
ENDBRANCH   9  12
ENDBRANCH   3   5
BRANCH   1  19
ATOM     19  C   UNL     1       1.347   7.832  20.513  0.00  0.00    +0.000 C 
BRANCH  19  20
ATOM     20  N   UNL     1       1.869   8.338  21.787  0.00  0.00    +0.000 NA
ATOM     21  H   UNL     1       2.917   8.335  21.767  0.00  0.00    +0.000 HD
ATOM     22  H   UNL     1       1.547   7.730  22.574  0.00  0.00    +0.000 HD
ENDBRANCH  19  20
BRANCH  19  23
ATOM     23  C   UNL     1       1.621   8.873  19.396  0.00  0.00    +0.000 C 
BRANCH  23  24
ATOM     24  C   UNL     1       0.501   9.868  19.196  0.00  0.00    +0.000 A 
ATOM     25  C   UNL     1       0.316  10.942  20.088  0.00  0.00    +0.000 A 
ATOM     26  C   UNL     1      -0.719  11.855  19.886  0.00  0.00    +0.000 A 
ATOM     27  C   UNL     1      -1.587  11.711  18.792  0.00  0.00    +0.000 A 
ATOM     28  C   UNL     1      -1.411  10.643  17.907  0.00  0.00    +0.000 A 
ATOM     29  C   UNL     1      -0.374   9.731  18.104  0.00  0.00    +0.000 A 
BRANCH  27  30
ATOM     30  O   UNL     1      -2.589  12.588  18.581  0.00  0.00    +0.000 OA
ATOM     31  H   UNL     1      -3.490  12.425  18.895  0.00  0.00    +0.000 HD
ENDBRANCH  27  30
ENDBRANCH  23  24
ENDBRANCH  19  23
ENDBRANCH   1  19
TORSDOF 9
ENDMDL
MODEL 7
REMARK VINA RESULT:      -7.0      3.960      6.888
REMARK  Name = 
REMARK  9 active torsions:
REMARK  status: ('A' for Active; 'I' for Inactive)
REMARK    1  A    between atoms: N_1  and  C_2
REMARK    2  A    between atoms: C_2  and  C_3
REMARK    3  A    between atoms: C_2  and  C_11
REMARK    4  A    between atoms: C_3  and  C_4
REMARK    5  A    between atoms: C_7  and  O_8
REMARK    6  A    between atoms: N_13  and  C_14
REMARK    7  A    between atoms: N_18  and  C_19
REMARK    8  A    between atoms: C_19  and  C_20
REMARK    9  A    between atoms: N_22  and  O_23
REMARK                            x       y       z     vdW  Elec       q    Type
REMARK                         _______ _______ _______ _____ _____    ______ ____
ROOT
ATOM      1  C   UNL     1       2.200   8.486  18.123  0.00  0.00    +0.000 C 
ATOM      2  O   UNL     1       2.304   8.639  16.914  0.00  0.00    +0.000 OA
ATOM      3  N   UNL     1       2.687   7.348  18.702  0.00  0.00    +0.000 N 
ATOM      4  H   UNL     1       2.590   7.220  19.720  0.00  0.00    +0.000 HD
ENDROOT
BRANCH   3   5
ATOM      5  C   UNL     1       3.321   6.262  17.962  0.00  0.00    +0.000 C 
ATOM      6  C   UNL     1       4.830   6.135  18.274  0.00  0.00    +0.000 C 
ATOM      7  C   UNL     1       4.946   4.710  18.719  0.00  0.00    +0.000 C 
ATOM      8  O   UNL     1       6.004   4.184  19.029  0.00  0.00    +0.000 OA
ATOM      9  N   UNL     1       3.768   4.054  18.712  0.00  0.00    +0.000 N 
ATOM     10  C   UNL     1       2.794   4.895  18.306  0.00  0.00    +0.000 C 
ATOM     11  O   UNL     1       1.627   4.558  18.174  0.00  0.00    +0.000 OA
BRANCH   9  12
ATOM     12  C   UNL     1       3.596   2.634  19.003  0.00  0.00    +0.000 C 
BRANCH  12  13
ATOM     13  C   UNL     1       4.075   2.245  20.380  0.00  0.00    +0.000 C 
ATOM     14  O   UNL     1       3.381   2.525  21.346  0.00  0.00    +0.000 OA
ATOM     15  N   UNL     1       5.229   1.559  20.558  0.00  0.00    +0.000 N 
ATOM     16  H   UNL     1       5.814   1.300  19.750  0.00  0.00    +0.000 HD
BRANCH  15  17
ATOM     17  O   UNL     1       5.616   1.187  21.791  0.00  0.00    +0.000 OA
ATOM     18  H   UNL     1       5.131   0.341  21.971  0.00  0.00    +0.000 HD
ENDBRANCH  15  17
ENDBRANCH  12  13
ENDBRANCH   9  12
ENDBRANCH   3   5
BRANCH   1  19
ATOM     19  C   UNL     1       1.465   9.537  18.955  0.00  0.00    +0.000 C 
BRANCH  19  20
ATOM     20  N   UNL     1       0.250   9.979  18.263  0.00  0.00    +0.000 NA
ATOM     21  H   UNL     1       0.230  11.026  18.215  0.00  0.00    +0.000 HD
ATOM     22  H   UNL     1      -0.597   9.650  18.779  0.00  0.00    +0.000 HD
ENDBRANCH  19  20
BRANCH  19  23
ATOM     23  C   UNL     1       1.093   9.036  20.375  0.00  0.00    +0.000 C 
BRANCH  23  24
ATOM     24  C   UNL     1       0.373  10.062  21.219  0.00  0.00    +0.000 A 
ATOM     25  C   UNL     1      -0.417   9.673  22.318  0.00  0.00    +0.000 A 
ATOM     26  C   UNL     1      -1.071  10.634  23.091  0.00  0.00    +0.000 A 
ATOM     27  C   UNL     1      -0.949  11.997  22.779  0.00  0.00    +0.000 A 
ATOM     28  C   UNL     1      -0.170  12.388  21.685  0.00  0.00    +0.000 A 
ATOM     29  C   UNL     1       0.488  11.430  20.913  0.00  0.00    +0.000 A 
BRANCH  27  30
ATOM     30  O   UNL     1      -1.570  12.936  23.519  0.00  0.00    +0.000 OA
ATOM     31  H   UNL     1      -1.220  13.235  24.371  0.00  0.00    +0.000 HD
ENDBRANCH  27  30
ENDBRANCH  23  24
ENDBRANCH  19  23
ENDBRANCH   1  19
TORSDOF 9
ENDMDL
MODEL 8
REMARK VINA RESULT:      -7.0      2.180      4.784
REMARK  Name = 
REMARK  9 active torsions:
REMARK  status: ('A' for Active; 'I' for Inactive)
REMARK    1  A    between atoms: N_1  and  C_2
REMARK    2  A    between atoms: C_2  and  C_3
REMARK    3  A    between atoms: C_2  and  C_11
REMARK    4  A    between atoms: C_3  and  C_4
REMARK    5  A    between atoms: C_7  and  O_8
REMARK    6  A    between atoms: N_13  and  C_14
REMARK    7  A    between atoms: N_18  and  C_19
REMARK    8  A    between atoms: C_19  and  C_20
REMARK    9  A    between atoms: N_22  and  O_23
REMARK                            x       y       z     vdW  Elec       q    Type
REMARK                         _______ _______ _______ _____ _____    ______ ____
ROOT
ATOM      1  C   UNL     1       2.603   3.641  19.342  0.00  0.00    +0.000 C 
ATOM      2  O   UNL     1       3.118   2.675  19.888  0.00  0.00    +0.000 OA
ATOM      3  N   UNL     1       3.135   4.119  18.178  0.00  0.00    +0.000 N 
ATOM      4  H   UNL     1       2.702   4.938  17.726  0.00  0.00    +0.000 HD
ENDROOT
BRANCH   3   5
ATOM      5  C   UNL     1       4.316   3.560  17.529  0.00  0.00    +0.000 C 
ATOM      6  C   UNL     1       4.367   3.879  16.016  0.00  0.00    +0.000 C 
ATOM      7  C   UNL     1       5.701   4.546  15.876  0.00  0.00    +0.000 C 
ATOM      8  O   UNL     1       6.154   4.930  14.808  0.00  0.00    +0.000 OA
ATOM      9  N   UNL     1       6.368   4.651  17.043  0.00  0.00    +0.000 N 
ATOM     10  C   UNL     1       5.618   4.122  18.032  0.00  0.00    +0.000 C 
ATOM     11  O   UNL     1       5.990   4.051  19.194  0.00  0.00    +0.000 OA
BRANCH   9  12
ATOM     12  C   UNL     1       7.725   5.167  17.190  0.00  0.00    +0.000 C 
BRANCH  12  13
ATOM     13  C   UNL     1       7.777   6.546  17.802  0.00  0.00    +0.000 C 
ATOM     14  O   UNL     1       8.112   6.659  18.971  0.00  0.00    +0.000 OA
ATOM     15  N   UNL     1       7.502   7.652  17.071  0.00  0.00    +0.000 N 
ATOM     16  H   UNL     1       7.236   7.571  16.078  0.00  0.00    +0.000 HD
BRANCH  15  17
ATOM     17  O   UNL     1       7.593   8.873  17.625  0.00  0.00    +0.000 OA
ATOM     18  H   UNL     1       7.317   9.504  16.912  0.00  0.00    +0.000 HD
ENDBRANCH  15  17
ENDBRANCH  12  13
ENDBRANCH   9  12
ENDBRANCH   3   5
BRANCH   1  19
ATOM     19  C   UNL     1       1.418   4.341  20.009  0.00  0.00    +0.000 C 
BRANCH  19  20
ATOM     20  N   UNL     1       0.675   3.399  20.850  0.00  0.00    +0.000 NA
ATOM     21  H   UNL     1       1.328   2.932  21.523  0.00  0.00    +0.000 HD
ATOM     22  H   UNL     1       0.225   2.665  20.256  0.00  0.00    +0.000 HD
ENDBRANCH  19  20
BRANCH  19  23
ATOM     23  C   UNL     1       1.839   5.568  20.860  0.00  0.00    +0.000 C 
BRANCH  23  24
ATOM     24  C   UNL     1       1.739   6.887  20.128  0.00  0.00    +0.000 A 
ATOM     25  C   UNL     1       2.265   7.038  18.831  0.00  0.00    +0.000 A 
ATOM     26  C   UNL     1       2.160   8.261  18.167  0.00  0.00    +0.000 A 
ATOM     27  C   UNL     1       1.528   9.351  18.786  0.00  0.00    +0.000 A 
ATOM     28  C   UNL     1       1.009   9.207  20.076  0.00  0.00    +0.000 A 
ATOM     29  C   UNL     1       1.110   7.984  20.741  0.00  0.00    +0.000 A 
BRANCH  27  30
ATOM     30  O   UNL     1       1.414  10.536  18.155  0.00  0.00    +0.000 OA
ATOM     31  H   UNL     1       2.056  11.250  18.281  0.00  0.00    +0.000 HD
ENDBRANCH  27  30
ENDBRANCH  23  24
ENDBRANCH  19  23
ENDBRANCH   1  19
TORSDOF 9
ENDMDL
MODEL 9
REMARK VINA RESULT:      -7.0      3.889      6.343
REMARK  Name = 
REMARK  9 active torsions:
REMARK  status: ('A' for Active; 'I' for Inactive)
REMARK    1  A    between atoms: N_1  and  C_2
REMARK    2  A    between atoms: C_2  and  C_3
REMARK    3  A    between atoms: C_2  and  C_11
REMARK    4  A    between atoms: C_3  and  C_4
REMARK    5  A    between atoms: C_7  and  O_8
REMARK    6  A    between atoms: N_13  and  C_14
REMARK    7  A    between atoms: N_18  and  C_19
REMARK    8  A    between atoms: C_19  and  C_20
REMARK    9  A    between atoms: N_22  and  O_23
REMARK                            x       y       z     vdW  Elec       q    Type
REMARK                         _______ _______ _______ _____ _____    ______ ____
ROOT
ATOM      1  C   UNL     1       1.925   8.123  19.214  0.00  0.00    +0.000 C 
ATOM      2  O   UNL     1       1.652   7.732  20.340  0.00  0.00    +0.000 OA
ATOM      3  N   UNL     1       2.582   7.289  18.354  0.00  0.00    +0.000 N 
ATOM      4  H   UNL     1       2.818   7.625  17.408  0.00  0.00    +0.000 HD
ENDROOT
BRANCH   3   5
ATOM      5  C   UNL     1       3.012   5.937  18.694  0.00  0.00    +0.000 C 
ATOM      6  C   UNL     1       1.993   4.862  18.247  0.00  0.00    +0.000 C 
ATOM      7  C   UNL     1       2.835   3.959  17.398  0.00  0.00    +0.000 C 
ATOM      8  O   UNL     1       2.411   2.942  16.869  0.00  0.00    +0.000 OA
ATOM      9  N   UNL     1       4.117   4.364  17.301  0.00  0.00    +0.000 N 
ATOM     10  C   UNL     1       4.278   5.502  18.006  0.00  0.00    +0.000 C 
ATOM     11  O   UNL     1       5.351   6.077  18.121  0.00  0.00    +0.000 OA
BRANCH   9  12
ATOM     12  C   UNL     1       5.180   3.629  16.621  0.00  0.00    +0.000 C 
BRANCH  12  13
ATOM     13  C   UNL     1       5.890   4.444  15.569  0.00  0.00    +0.000 C 
ATOM     14  O   UNL     1       5.287   4.743  14.549  0.00  0.00    +0.000 OA
ATOM     15  N   UNL     1       7.159   4.881  15.751  0.00  0.00    +0.000 N 
ATOM     16  H   UNL     1       7.672   4.650  16.615  0.00  0.00    +0.000 HD
BRANCH  15  17
ATOM     17  O   UNL     1       7.758   5.639  14.817  0.00  0.00    +0.000 OA
ATOM     18  H   UNL     1       8.511   6.082  15.287  0.00  0.00    +0.000 HD
ENDBRANCH  15  17
ENDBRANCH  12  13
ENDBRANCH   9  12
ENDBRANCH   3   5
BRANCH   1  19
ATOM     19  C   UNL     1       1.592   9.560  18.813  0.00  0.00    +0.000 C 
BRANCH  19  20
ATOM     20  N   UNL     1       1.997   9.811  17.427  0.00  0.00    +0.000 NA
ATOM     21  H   UNL     1       1.942  10.837  17.221  0.00  0.00    +0.000 HD
ATOM     22  H   UNL     1       1.363   9.303  16.769  0.00  0.00    +0.000 HD
ENDBRANCH  19  20
BRANCH  19  23
ATOM     23  C   UNL     1       0.088   9.903  18.979  0.00  0.00    +0.000 C 
BRANCH  23  24
ATOM     24  C   UNL     1      -0.216  10.760  20.187  0.00  0.00    +0.000 A 
ATOM     25  C   UNL     1      -0.443  10.180  21.449  0.00  0.00    +0.000 A 
ATOM     26  C   UNL     1      -0.718  10.985  22.555  0.00  0.00    +0.000 A 
ATOM     27  C   UNL     1      -0.770  12.381  22.419  0.00  0.00    +0.000 A 
ATOM     28  C   UNL     1      -0.551  12.962  21.166  0.00  0.00    +0.000 A 
ATOM     29  C   UNL     1      -0.272  12.159  20.060  0.00  0.00    +0.000 A 
BRANCH  27  30
ATOM     30  O   UNL     1      -1.029  13.172  23.479  0.00  0.00    +0.000 OA
ATOM     31  H   UNL     1      -1.918  13.256  23.854  0.00  0.00    +0.000 HD
ENDBRANCH  27  30
ENDBRANCH  23  24
ENDBRANCH  19  23
ENDBRANCH   1  19
TORSDOF 9
ENDMDL
