MODEL 1
REMARK VINA RESULT:      -7.9      0.000      0.000
REMARK  Name = 
REMARK  4 active torsions:
REMARK  status: ('A' for Active; 'I' for Inactive)
REMARK    1  A    between atoms: S_2  and  C_4
REMARK    2  A    between atoms: S_2  and  C_16
REMARK    3  A    between atoms: C_5  and  C_6
REMARK    4  A    between atoms: C_10  and  C_11
REMARK                            x       y       z     vdW  Elec       q    Type
REMARK                         _______ _______ _______ _____ _____    ______ ____
ROOT
ATOM      1  C   UNL     1       3.223   4.842  18.861  0.00  0.00    +0.000 C 
ATOM      2  C   UNL     1       3.563   6.100  18.542  0.00  0.00    +0.000 C 
ENDROOT
BRANCH   2   3
ATOM      3  C   UNL     1       2.688   7.265  18.733  0.00  0.00    +0.000 A 
ATOM      4  C   UNL     1       2.596   8.217  17.711  0.00  0.00    +0.000 A 
ATOM      5  C   UNL     1       1.820   9.367  17.873  0.00  0.00    +0.000 A 
ATOM      6  C   UNL     1       1.134   9.584  19.067  0.00  0.00    +0.000 A 
ATOM      7  C   UNL     1       1.219   8.654  20.112  0.00  0.00    +0.000 A 
ATOM      8  C   UNL     1       2.003   7.500  19.935  0.00  0.00    +0.000 A 
BRANCH   7   9
ATOM      9  C   UNL     1       0.499   8.876  21.418  0.00  0.00    +0.000 C 
ATOM     10  F   UNL     1       1.295   8.740  22.514  0.00  0.00    +0.000 F 
ATOM     11  F   UNL     1      -0.047  10.121  21.504  0.00  0.00    +0.000 F 
ATOM     12  F   UNL     1      -0.533   8.005  21.595  0.00  0.00    +0.000 F 
ENDBRANCH   7   9
ENDBRANCH   2   3
BRANCH   1  14
ATOM     13  O   UNL     1       5.308   3.574  19.753  0.00  0.00    +0.000 OA
ATOM     14  S   UNL     1       4.373   3.559  18.644  0.00  0.00    +0.000 S 
ATOM     15  O   UNL     1       3.671   2.344  18.277  0.00  0.00    +0.000 OA
BRANCH  14  16
ATOM     16  C   UNL     1       5.292   4.100  17.212  0.00  0.00    +0.000 A 
ATOM     17  C   UNL     1       4.694   4.032  15.946  0.00  0.00    +0.000 A 
ATOM     18  C   UNL     1       5.432   4.395  14.819  0.00  0.00    +0.000 A 
ATOM     19  C   UNL     1       6.749   4.837  14.963  0.00  0.00    +0.000 A 
ATOM     20 CL   UNL     1       7.664   5.259  13.569  0.00  0.00    +0.000 Cl
ATOM     21  C   UNL     1       7.332   4.932  16.228  0.00  0.00    +0.000 A 
ATOM     22  C   UNL     1       6.603   4.565  17.360  0.00  0.00    +0.000 A 
ENDBRANCH  14  16
ENDBRANCH   1  14
TORSDOF 4
ENDMDL
MODEL 2
REMARK VINA RESULT:      -7.8      5.245      7.870
REMARK  Name = 
REMARK  4 active torsions:
REMARK  status: ('A' for Active; 'I' for Inactive)
REMARK    1  A    between atoms: S_2  and  C_4
REMARK    2  A    between atoms: S_2  and  C_16
REMARK    3  A    between atoms: C_5  and  C_6
REMARK    4  A    between atoms: C_10  and  C_11
REMARK                            x       y       z     vdW  Elec       q    Type
REMARK                         _______ _______ _______ _____ _____    ______ ____
ROOT
ATOM      1  C   UNL     1       5.211   3.975  16.834  0.00  0.00    +0.000 C 
ATOM      2  C   UNL     1       6.251   4.515  16.179  0.00  0.00    +0.000 C 
ENDROOT
BRANCH   2   3
ATOM      3  C   UNL     1       6.456   4.411  14.728  0.00  0.00    +0.000 A 
ATOM      4  C   UNL     1       7.594   4.998  14.163  0.00  0.00    +0.000 A 
ATOM      5  C   UNL     1       7.800   4.971  12.782  0.00  0.00    +0.000 A 
ATOM      6  C   UNL     1       6.861   4.366  11.946  0.00  0.00    +0.000 A 
ATOM      7  C   UNL     1       5.707   3.784  12.484  0.00  0.00    +0.000 A 
ATOM      8  C   UNL     1       5.512   3.817  13.878  0.00  0.00    +0.000 A 
BRANCH   7   9
ATOM      9  C   UNL     1       4.670   3.139  11.600  0.00  0.00    +0.000 C 
ATOM     10  F   UNL     1       3.474   2.931  12.216  0.00  0.00    +0.000 F 
ATOM     11  F   UNL     1       4.396   3.885  10.493  0.00  0.00    +0.000 F 
ATOM     12  F   UNL     1       5.069   1.921  11.138  0.00  0.00    +0.000 F 
ENDBRANCH   7   9
ENDBRANCH   2   3
BRANCH   1  14
ATOM     13  O   UNL     1       4.330   3.099  19.115  0.00  0.00    +0.000 OA
ATOM     14  S   UNL     1       5.049   4.223  18.545  0.00  0.00    +0.000 S 
ATOM     15  O   UNL     1       6.324   4.645  19.090  0.00  0.00    +0.000 OA
BRANCH  14  16
ATOM     16  C   UNL     1       3.940   5.619  18.632  0.00  0.00    +0.000 A 
ATOM     17  C   UNL     1       3.981   6.592  17.625  0.00  0.00    +0.000 A 
ATOM     18  C   UNL     1       3.159   7.715  17.723  0.00  0.00    +0.000 A 
ATOM     19  C   UNL     1       2.295   7.852  18.812  0.00  0.00    +0.000 A 
ATOM     20 CL   UNL     1       1.303   9.251  18.944  0.00  0.00    +0.000 Cl
ATOM     21  C   UNL     1       2.236   6.866  19.799  0.00  0.00    +0.000 A 
ATOM     22  C   UNL     1       3.059   5.742  19.711  0.00  0.00    +0.000 A 
ENDBRANCH  14  16
ENDBRANCH   1  14
TORSDOF 4
ENDMDL
MODEL 3
REMARK VINA RESULT:      -7.8      5.227      7.860
REMARK  Name = 
REMARK  4 active torsions:
REMARK  status: ('A' for Active; 'I' for Inactive)
REMARK    1  A    between atoms: S_2  and  C_4
REMARK    2  A    between atoms: S_2  and  C_16
REMARK    3  A    between atoms: C_5  and  C_6
REMARK    4  A    between atoms: C_10  and  C_11
REMARK                            x       y       z     vdW  Elec       q    Type
REMARK                         _______ _______ _______ _____ _____    ______ ____
ROOT
ATOM      1  C   UNL     1       5.085   3.924  16.854  0.00  0.00    +0.000 C 
ATOM      2  C   UNL     1       6.145   4.462  16.231  0.00  0.00    +0.000 C 
ENDROOT
BRANCH   2   3
ATOM      3  C   UNL     1       6.382   4.376  14.783  0.00  0.00    +0.000 A 
ATOM      4  C   UNL     1       7.534   4.967  14.250  0.00  0.00    +0.000 A 
ATOM      5  C   UNL     1       7.771   4.956  12.874  0.00  0.00    +0.000 A 
ATOM      6  C   UNL     1       6.850   4.363  12.011  0.00  0.00    +0.000 A 
ATOM      7  C   UNL     1       5.683   3.777  12.516  0.00  0.00    +0.000 A 
ATOM      8  C   UNL     1       5.457   3.793  13.905  0.00  0.00    +0.000 A 
BRANCH   7   9
ATOM      9  C   UNL     1       4.665   3.144  11.600  0.00  0.00    +0.000 C 
ATOM     10  F   UNL     1       5.045   1.932  11.111  0.00  0.00    +0.000 F 
ATOM     11  F   UNL     1       3.468   2.941  12.218  0.00  0.00    +0.000 F 
ATOM     12  F   UNL     1       4.395   3.918  10.513  0.00  0.00    +0.000 F 
ENDBRANCH   7   9
ENDBRANCH   2   3
BRANCH   1  14
ATOM     13  O   UNL     1       4.046   3.088  19.083  0.00  0.00    +0.000 OA
ATOM     14  S   UNL     1       4.887   4.151  18.564  0.00  0.00    +0.000 S 
ATOM     15  O   UNL     1       6.175   4.441  19.161  0.00  0.00    +0.000 OA
BRANCH  14  16
ATOM     16  C   UNL     1       3.909   5.643  18.647  0.00  0.00    +0.000 A 
ATOM     17  C   UNL     1       3.039   5.834  19.728  0.00  0.00    +0.000 A 
ATOM     18  C   UNL     1       2.229   6.969  19.763  0.00  0.00    +0.000 A 
ATOM     19  C   UNL     1       2.302   7.909  18.732  0.00  0.00    +0.000 A 
ATOM     20 CL   UNL     1       1.283   9.293  18.765  0.00  0.00    +0.000 Cl
ATOM     21  C   UNL     1       3.191   7.729  17.670  0.00  0.00    +0.000 A 
ATOM     22  C   UNL     1       4.002   6.593  17.625  0.00  0.00    +0.000 A 
ENDBRANCH  14  16
ENDBRANCH   1  14
TORSDOF 4
ENDMDL
MODEL 4
REMARK VINA RESULT:      -7.8      0.789      1.313
REMARK  Name = 
REMARK  4 active torsions:
REMARK  status: ('A' for Active; 'I' for Inactive)
REMARK    1  A    between atoms: S_2  and  C_4
REMARK    2  A    between atoms: S_2  and  C_16
REMARK    3  A    between atoms: C_5  and  C_6
REMARK    4  A    between atoms: C_10  and  C_11
REMARK                            x       y       z     vdW  Elec       q    Type
REMARK                         _______ _______ _______ _____ _____    ______ ____
ROOT
ATOM      1  C   UNL     1       4.338   5.992  18.748  0.00  0.00    +0.000 C 
ATOM      2  C   UNL     1       3.064   6.044  19.168  0.00  0.00    +0.000 C 
ENDROOT
BRANCH   2   3
ATOM      3  C   UNL     1       2.280   7.282  19.272  0.00  0.00    +0.000 A 
ATOM      4  C   UNL     1       2.231   8.145  18.172  0.00  0.00    +0.000 A 
ATOM      5  C   UNL     1       1.544   9.359  18.246  0.00  0.00    +0.000 A 
ATOM      6  C   UNL     1       0.906   9.730  19.430  0.00  0.00    +0.000 A 
ATOM      7  C   UNL     1       0.951   8.891  20.551  0.00  0.00    +0.000 A 
ATOM      8  C   UNL     1       1.646   7.671  20.462  0.00  0.00    +0.000 A 
BRANCH   7   9
ATOM      9  C   UNL     1       0.283   9.279  21.846  0.00  0.00    +0.000 C 
ATOM     10  F   UNL     1       1.124   9.285  22.917  0.00  0.00    +0.000 F 
ATOM     11  F   UNL     1      -0.266  10.524  21.794  0.00  0.00    +0.000 F 
ATOM     12  F   UNL     1      -0.736   8.437  22.175  0.00  0.00    +0.000 F 
ENDBRANCH   7   9
ENDBRANCH   2   3
BRANCH   1  14
ATOM     13  O   UNL     1       6.294   4.449  19.484  0.00  0.00    +0.000 OA
ATOM     14  S   UNL     1       5.136   4.456  18.611  0.00  0.00    +0.000 S 
ATOM     15  O   UNL     1       4.149   3.396  18.675  0.00  0.00    +0.000 OA
BRANCH  14  16
ATOM     16  C   UNL     1       5.771   4.497  16.943  0.00  0.00    +0.000 A 
ATOM     17  C   UNL     1       7.106   4.860  16.726  0.00  0.00    +0.000 A 
ATOM     18  C   UNL     1       7.588   4.953  15.419  0.00  0.00    +0.000 A 
ATOM     19  C   UNL     1       6.742   4.670  14.344  0.00  0.00    +0.000 A 
ATOM     20 CL   UNL     1       7.332   4.812  12.735  0.00  0.00    +0.000 Cl
ATOM     21  C   UNL     1       5.420   4.280  14.565  0.00  0.00    +0.000 A 
ATOM     22  C   UNL     1       4.929   4.190  15.869  0.00  0.00    +0.000 A 
ENDBRANCH  14  16
ENDBRANCH   1  14
TORSDOF 4
ENDMDL
MODEL 5
REMARK VINA RESULT:      -7.7      3.284      4.208
REMARK  Name = 
REMARK  4 active torsions:
REMARK  status: ('A' for Active; 'I' for Inactive)
REMARK    1  A    between atoms: S_2  and  C_4
REMARK    2  A    between atoms: S_2  and  C_16
REMARK    3  A    between atoms: C_5  and  C_6
REMARK    4  A    between atoms: C_10  and  C_11
REMARK                            x       y       z     vdW  Elec       q    Type
REMARK                         _______ _______ _______ _____ _____    ______ ____
ROOT
ATOM      1  C   UNL     1       5.904   4.767  18.113  0.00  0.00    +0.000 C 
ATOM      2  C   UNL     1       4.892   5.645  18.189  0.00  0.00    +0.000 C 
ENDROOT
BRANCH   2   3
ATOM      3  C   UNL     1       3.723   5.483  19.064  0.00  0.00    +0.000 A 
ATOM      4  C   UNL     1       2.961   6.611  19.391  0.00  0.00    +0.000 A 
ATOM      5  C   UNL     1       1.876   6.512  20.264  0.00  0.00    +0.000 A 
ATOM      6  C   UNL     1       1.545   5.281  20.831  0.00  0.00    +0.000 A 
ATOM      7  C   UNL     1       2.299   4.139  20.532  0.00  0.00    +0.000 A 
ATOM      8  C   UNL     1       3.390   4.253  19.650  0.00  0.00    +0.000 A 
BRANCH   7   9
ATOM      9  C   UNL     1       1.971   2.801  21.147  0.00  0.00    +0.000 C 
ATOM     10  F   UNL     1       1.628   1.849  20.237  0.00  0.00    +0.000 F 
ATOM     11  F   UNL     1       3.015   2.286  21.853  0.00  0.00    +0.000 F 
ATOM     12  F   UNL     1       0.930   2.875  22.022  0.00  0.00    +0.000 F 
ENDBRANCH   7   9
ENDBRANCH   2   3
BRANCH   1  14
ATOM     13  O   UNL     1       7.456   6.542  17.023  0.00  0.00    +0.000 OA
ATOM     14  S   UNL     1       7.261   5.105  17.084  0.00  0.00    +0.000 S 
ATOM     15  O   UNL     1       8.355   4.219  17.427  0.00  0.00    +0.000 OA
BRANCH  14  16
ATOM     16  C   UNL     1       6.659   4.617  15.475  0.00  0.00    +0.000 A 
ATOM     17  C   UNL     1       5.406   4.000  15.370  0.00  0.00    +0.000 A 
ATOM     18  C   UNL     1       4.961   3.562  14.122  0.00  0.00    +0.000 A 
ATOM     19  C   UNL     1       5.758   3.754  12.991  0.00  0.00    +0.000 A 
ATOM     20 CL   UNL     1       5.218   3.188  11.460  0.00  0.00    +0.000 Cl
ATOM     21  C   UNL     1       6.994   4.395  13.096  0.00  0.00    +0.000 A 
ATOM     22  C   UNL     1       7.449   4.832  14.341  0.00  0.00    +0.000 A 
ENDBRANCH  14  16
ENDBRANCH   1  14
TORSDOF 4
ENDMDL
MODEL 6
REMARK VINA RESULT:      -7.6      0.891      1.249
REMARK  Name = 
REMARK  4 active torsions:
REMARK  status: ('A' for Active; 'I' for Inactive)
REMARK    1  A    between atoms: S_2  and  C_4
REMARK    2  A    between atoms: S_2  and  C_16
REMARK    3  A    between atoms: C_5  and  C_6
REMARK    4  A    between atoms: C_10  and  C_11
REMARK                            x       y       z     vdW  Elec       q    Type
REMARK                         _______ _______ _______ _____ _____    ______ ____
ROOT
ATOM      1  C   UNL     1       4.246   6.042  18.472  0.00  0.00    +0.000 C 
ATOM      2  C   UNL     1       3.139   6.115  19.227  0.00  0.00    +0.000 C 
ENDROOT
BRANCH   2   3
ATOM      3  C   UNL     1       2.298   7.314  19.345  0.00  0.00    +0.000 A 
ATOM      4  C   UNL     1       2.190   8.175  18.246  0.00  0.00    +0.000 A 
ATOM      5  C   UNL     1       1.447   9.354  18.333  0.00  0.00    +0.000 A 
ATOM      6  C   UNL     1       0.812   9.694  19.527  0.00  0.00    +0.000 A 
ATOM      7  C   UNL     1       0.915   8.858  20.646  0.00  0.00    +0.000 A 
ATOM      8  C   UNL     1       1.665   7.672  20.544  0.00  0.00    +0.000 A 
BRANCH   7   9
ATOM      9  C   UNL     1       0.250   9.212  21.953  0.00  0.00    +0.000 C 
ATOM     10  F   UNL     1      -0.827   8.434  22.250  0.00  0.00    +0.000 F 
ATOM     11  F   UNL     1       1.098   9.100  23.013  0.00  0.00    +0.000 F 
ATOM     12  F   UNL     1      -0.201  10.497  21.972  0.00  0.00    +0.000 F 
ENDBRANCH   7   9
ENDBRANCH   2   3
BRANCH   1  14
ATOM     13  O   UNL     1       6.295   4.628  19.213  0.00  0.00    +0.000 OA
ATOM     14  S   UNL     1       5.119   4.545  18.368  0.00  0.00    +0.000 S 
ATOM     15  O   UNL     1       4.190   3.439  18.491  0.00  0.00    +0.000 OA
BRANCH  14  16
ATOM     16  C   UNL     1       5.715   4.560  16.685  0.00  0.00    +0.000 A 
ATOM     17  C   UNL     1       4.867   4.139  15.652  0.00  0.00    +0.000 A 
ATOM     18  C   UNL     1       5.351   4.091  14.344  0.00  0.00    +0.000 A 
ATOM     19  C   UNL     1       6.666   4.474  14.074  0.00  0.00    +0.000 A 
ATOM     20 CL   UNL     1       7.267   4.388  12.466  0.00  0.00    +0.000 Cl
ATOM     21  C   UNL     1       7.500   4.921  15.102  0.00  0.00    +0.000 A 
ATOM     22  C   UNL     1       7.026   4.967  16.414  0.00  0.00    +0.000 A 
ENDBRANCH  14  16
ENDBRANCH   1  14
TORSDOF 4
ENDMDL
MODEL 7
REMARK VINA RESULT:      -7.6      3.290      4.132
REMARK  Name = 
REMARK  4 active torsions:
REMARK  status: ('A' for Active; 'I' for Inactive)
REMARK    1  A    between atoms: S_2  and  C_4
REMARK    2  A    between atoms: S_2  and  C_16
REMARK    3  A    between atoms: C_5  and  C_6
REMARK    4  A    between atoms: C_10  and  C_11
REMARK                            x       y       z     vdW  Elec       q    Type
REMARK                         _______ _______ _______ _____ _____    ______ ____
ROOT
ATOM      1  C   UNL     1       5.709   4.953  17.929  0.00  0.00    +0.000 C 
ATOM      2  C   UNL     1       4.687   5.821  17.965  0.00  0.00    +0.000 C 
ENDROOT
BRANCH   2   3
ATOM      3  C   UNL     1       3.500   5.663  18.817  0.00  0.00    +0.000 A 
ATOM      4  C   UNL     1       2.957   6.794  19.437  0.00  0.00    +0.000 A 
ATOM      5  C   UNL     1       1.864   6.681  20.299  0.00  0.00    +0.000 A 
ATOM      6  C   UNL     1       1.307   5.429  20.560  0.00  0.00    +0.000 A 
ATOM      7  C   UNL     1       1.839   4.279  19.964  0.00  0.00    +0.000 A 
ATOM      8  C   UNL     1       2.940   4.408  19.097  0.00  0.00    +0.000 A 
BRANCH   7   9
ATOM      9  C   UNL     1       1.264   2.913  20.244  0.00  0.00    +0.000 C 
ATOM     10  F   UNL     1       0.885   2.732  21.539  0.00  0.00    +0.000 F 
ATOM     11  F   UNL     1       0.159   2.652  19.491  0.00  0.00    +0.000 F 
ATOM     12  F   UNL     1       2.147   1.913  19.969  0.00  0.00    +0.000 F 
ENDBRANCH   7   9
ENDBRANCH   2   3
BRANCH   1  14
ATOM     13  O   UNL     1       7.237   6.724  16.799  0.00  0.00    +0.000 OA
ATOM     14  S   UNL     1       7.086   5.287  16.924  0.00  0.00    +0.000 S 
ATOM     15  O   UNL     1       8.196   4.453  17.341  0.00  0.00    +0.000 OA
BRANCH  14  16
ATOM     16  C   UNL     1       6.548   4.703  15.324  0.00  0.00    +0.000 A 
ATOM     17  C   UNL     1       5.312   4.055  15.210  0.00  0.00    +0.000 A 
ATOM     18  C   UNL     1       4.919   3.543  13.972  0.00  0.00    +0.000 A 
ATOM     19  C   UNL     1       5.750   3.695  12.860  0.00  0.00    +0.000 A 
ATOM     20 CL   UNL     1       5.273   3.039  11.344  0.00  0.00    +0.000 Cl
ATOM     21  C   UNL     1       6.968   4.367  12.971  0.00  0.00    +0.000 A 
ATOM     22  C   UNL     1       7.372   4.877  14.207  0.00  0.00    +0.000 A 
ENDBRANCH  14  16
ENDBRANCH   1  14
TORSDOF 4
ENDMDL
MODEL 8
REMARK VINA RESULT:      -7.6      0.259      1.333
REMARK  Name = 
REMARK  4 active torsions:
REMARK  status: ('A' for Active; 'I' for Inactive)
REMARK    1  A    between atoms: S_2  and  C_4
REMARK    2  A    between atoms: S_2  and  C_16
REMARK    3  A    between atoms: C_5  and  C_6
REMARK    4  A    between atoms: C_10  and  C_11
REMARK                            x       y       z     vdW  Elec       q    Type
REMARK                         _______ _______ _______ _____ _____    ______ ____
ROOT
ATOM      1  C   UNL     1       3.000   4.843  18.961  0.00  0.00    +0.000 C 
ATOM      2  C   UNL     1       3.422   6.094  18.721  0.00  0.00    +0.000 C 
ENDROOT
BRANCH   2   3
ATOM      3  C   UNL     1       2.580   7.290  18.862  0.00  0.00    +0.000 A 
ATOM      4  C   UNL     1       2.583   8.243  17.838  0.00  0.00    +0.000 A 
ATOM      5  C   UNL     1       1.841   9.421  17.955  0.00  0.00    +0.000 A 
ATOM      6  C   UNL     1       1.094   9.664  19.107  0.00  0.00    +0.000 A 
ATOM      7  C   UNL     1       1.083   8.733  20.153  0.00  0.00    +0.000 A 
ATOM      8  C   UNL     1       1.834   7.550  20.021  0.00  0.00    +0.000 A 
BRANCH   7   9
ATOM      9  C   UNL     1       0.296   8.982  21.415  0.00  0.00    +0.000 C 
ATOM     10  F   UNL     1      -0.737   8.114  21.598  0.00  0.00    +0.000 F 
ATOM     11  F   UNL     1       1.067   8.888  22.534  0.00  0.00    +0.000 F 
ATOM     12  F   UNL     1      -0.253  10.228  21.445  0.00  0.00    +0.000 F 
ENDBRANCH   7   9
ENDBRANCH   2   3
BRANCH   1  14
ATOM     13  O   UNL     1       5.021   3.545  19.949  0.00  0.00    +0.000 OA
ATOM     14  S   UNL     1       4.113   3.518  18.818  0.00  0.00    +0.000 S 
ATOM     15  O   UNL     1       3.382   2.313  18.478  0.00  0.00    +0.000 OA
BRANCH  14  16
ATOM     16  C   UNL     1       5.083   3.978  17.391  0.00  0.00    +0.000 A 
ATOM     17  C   UNL     1       6.414   4.377  17.566  0.00  0.00    +0.000 A 
ATOM     18  C   UNL     1       7.154   4.796  16.460  0.00  0.00    +0.000 A 
ATOM     19  C   UNL     1       6.569   4.800  15.192  0.00  0.00    +0.000 A 
ATOM     20 CL   UNL     1       7.477   5.343  13.835  0.00  0.00    +0.000 Cl
ATOM     21  C   UNL     1       5.251   4.374  15.017  0.00  0.00    +0.000 A 
ATOM     22  C   UNL     1       4.502   3.958  16.119  0.00  0.00    +0.000 A 
ENDBRANCH  14  16
ENDBRANCH   1  14
TORSDOF 4
ENDMDL
MODEL 9
REMARK VINA RESULT:      -7.5      5.600      7.970
REMARK  Name = 
REMARK  4 active torsions:
REMARK  status: ('A' for Active; 'I' for Inactive)
REMARK    1  A    between atoms: S_2  and  C_4
REMARK    2  A    between atoms: S_2  and  C_16
REMARK    3  A    between atoms: C_5  and  C_6
REMARK    4  A    between atoms: C_10  and  C_11
REMARK                            x       y       z     vdW  Elec       q    Type
REMARK                         _______ _______ _______ _____ _____    ______ ____
ROOT
ATOM      1  C   UNL     1       6.486   4.881  16.848  0.00  0.00    +0.000 C 
ATOM      2  C   UNL     1       5.676   5.004  15.785  0.00  0.00    +0.000 C 
ENDROOT
BRANCH   2   3
ATOM      3  C   UNL     1       6.044   4.611  14.418  0.00  0.00    +0.000 A 
ATOM      4  C   UNL     1       7.318   4.938  13.940  0.00  0.00    +0.000 A 
ATOM      5  C   UNL     1       7.690   4.633  12.629  0.00  0.00    +0.000 A 
ATOM      6  C   UNL     1       6.784   4.006  11.773  0.00  0.00    +0.000 A 
ATOM      7  C   UNL     1       5.497   3.681  12.221  0.00  0.00    +0.000 A 
ATOM      8  C   UNL     1       5.137   3.993  13.545  0.00  0.00    +0.000 A 
BRANCH   7   9
ATOM      9  C   UNL     1       4.495   3.019  11.309  0.00  0.00    +0.000 C 
ATOM     10  F   UNL     1       3.284   2.799  11.892  0.00  0.00    +0.000 F 
ATOM     11  F   UNL     1       4.244   3.757  10.192  0.00  0.00    +0.000 F 
ATOM     12  F   UNL     1       4.923   1.805  10.865  0.00  0.00    +0.000 F 
ENDBRANCH   7   9
ENDBRANCH   2   3
BRANCH   1  14
ATOM     13  O   UNL     1       6.775   4.729  19.425  0.00  0.00    +0.000 OA
ATOM     14  S   UNL     1       5.910   5.325  18.424  0.00  0.00    +0.000 S 
ATOM     15  O   UNL     1       5.615   6.744  18.444  0.00  0.00    +0.000 OA
BRANCH  14  16
ATOM     16  C   UNL     1       4.355   4.453  18.529  0.00  0.00    +0.000 A 
ATOM     17  C   UNL     1       3.166   5.133  18.235  0.00  0.00    +0.000 A 
ATOM     18  C   UNL     1       1.946   4.471  18.376  0.00  0.00    +0.000 A 
ATOM     19  C   UNL     1       1.921   3.138  18.793  0.00  0.00    +0.000 A 
ATOM     20 CL   UNL     1       0.413   2.334  18.992  0.00  0.00    +0.000 Cl
ATOM     21  C   UNL     1       3.109   2.455  19.057  0.00  0.00    +0.000 A 
ATOM     22  C   UNL     1       4.334   3.111  18.924  0.00  0.00    +0.000 A 
ENDBRANCH  14  16
ENDBRANCH   1  14
TORSDOF 4
ENDMDL
