MODEL 1
REMARK VINA RESULT:      -8.4      0.000      0.000
REMARK  Name = 
REMARK  12 active torsions:
REMARK  status: ('A' for Active; 'I' for Inactive)
REMARK    1  A    between atoms: C_1  and  C_2
REMARK    2  A    between atoms: C_5  and  C_6
REMARK    3  A    between atoms: C_7  and  C_8
REMARK    4  A    between atoms: C_14  and  C_15
REMARK    5  A    between atoms: C_15  and  C_16
REMARK    6  A    between atoms: N_23  and  C_24
REMARK    7  A    between atoms: C_24  and  C_25
REMARK    8  A    between atoms: C_25  and  C_26
REMARK    9  A    between atoms: C_26  and  C_27
REMARK   10  A    between atoms: C_27  and  C_28
REMARK   11  A    between atoms: C_28  and  C_29
REMARK   12  A    between atoms: N_31  and  O_32
REMARK                            x       y       z     vdW  Elec       q    Type
REMARK                         _______ _______ _______ _____ _____    ______ ____
ROOT
ATOM      1  C   UNL     1       0.962  10.107  19.117  0.00  0.00    +0.000 A 
ATOM      2  C   UNL     1       0.512   9.415  20.247  0.00  0.00    +0.000 A 
ATOM      3  C   UNL     1       0.992   8.139  20.578  0.00  0.00    +0.000 A 
ATOM      4  C   UNL     1       1.912   7.531  19.712  0.00  0.00    +0.000 A 
ATOM      5  C   UNL     1       2.362   8.176  18.557  0.00  0.00    +0.000 A 
ATOM      6  C   UNL     1       1.906   9.484  18.289  0.00  0.00    +0.000 A 
ATOM      7  C   UNL     1       3.225   7.278  17.854  0.00  0.00    +0.000 A 
ATOM      8  C   UNL     1       3.288   6.126  18.614  0.00  0.00    +0.000 A 
ATOM      9  N   UNL     1       2.529   6.298  19.744  0.00  0.00    +0.000 N 
ENDROOT
BRANCH   1  16
ATOM     10  C   UNL     1       2.557  13.031  19.016  0.00  0.00    +0.000 C 
ATOM     11  C   UNL     1       1.130  12.708  18.775  0.00  0.00    +0.000 A 
ATOM     12  N   UNL     1       0.291  13.697  18.448  0.00  0.00    +0.000 NA
ATOM     13  O   UNL     1      -0.935  13.104  18.255  0.00  0.00    +0.000 OA
ATOM     14  C   UNL     1      -0.839  11.764  18.469  0.00  0.00    +0.000 A 
ATOM     15  C   UNL     1      -2.107  11.021  18.301  0.00  0.00    +0.000 C 
ATOM     16  C   UNL     1       0.465  11.445  18.810  0.00  0.00    +0.000 A 
ENDBRANCH   1  16
BRANCH   7  17
ATOM     17  C   UNL     1       3.867   7.503  16.520  0.00  0.00    +0.000 C 
BRANCH  17  18
ATOM     18  C   UNL     1       5.101   6.634  16.459  0.00  0.00    +0.000 A 
ATOM     19  C   UNL     1       5.160   5.517  15.609  0.00  0.00    +0.000 A 
ATOM     20  C   UNL     1       6.312   4.730  15.546  0.00  0.00    +0.000 A 
ATOM     21  C   UNL     1       7.423   5.057  16.316  0.00  0.00    +0.000 A 
ATOM     22  C   UNL     1       7.389   6.179  17.144  0.00  0.00    +0.000 A 
ATOM     23  C   UNL     1       6.236   6.962  17.215  0.00  0.00    +0.000 A 
ENDBRANCH  17  18
ENDBRANCH   7  17
BRANCH   9  24
ATOM     24  C   UNL     1       2.351   5.275  20.761  0.00  0.00    +0.000 C 
BRANCH  24  25
ATOM     25  C   UNL     1       1.036   4.501  20.660  0.00  0.00    +0.000 C 
BRANCH  25  26
ATOM     26  C   UNL     1       1.155   3.016  21.022  0.00  0.00    +0.000 C 
BRANCH  26  27
ATOM     27  C   UNL     1       2.603   2.557  20.840  0.00  0.00    +0.000 C 
BRANCH  27  28
ATOM     28  C   UNL     1       2.849   1.888  19.491  0.00  0.00    +0.000 C 
BRANCH  28  29
ATOM     29  C   UNL     1       3.955   2.585  18.725  0.00  0.00    +0.000 C 
ATOM     30  O   UNL     1       3.914   2.853  17.526  0.00  0.00    +0.000 OA
ATOM     31  N   UNL     1       5.048   2.898  19.498  0.00  0.00    +0.000 N 
ATOM     32  H   UNL     1       5.005   2.981  20.508  0.00  0.00    +0.000 HD
BRANCH  31  33
ATOM     33  O   UNL     1       6.055   3.648  18.844  0.00  0.00    +0.000 OA
ATOM     34  H   UNL     1       5.662   4.548  18.815  0.00  0.00    +0.000 HD
ENDBRANCH  31  33
ENDBRANCH  28  29
ENDBRANCH  27  28
ENDBRANCH  26  27
ENDBRANCH  25  26
ENDBRANCH  24  25
ENDBRANCH   9  24
TORSDOF 10
ENDMDL
MODEL 2
REMARK VINA RESULT:      -8.2      2.046      8.003
REMARK  Name = 
REMARK  12 active torsions:
REMARK  status: ('A' for Active; 'I' for Inactive)
REMARK    1  A    between atoms: C_1  and  C_2
REMARK    2  A    between atoms: C_5  and  C_6
REMARK    3  A    between atoms: C_7  and  C_8
REMARK    4  A    between atoms: C_14  and  C_15
REMARK    5  A    between atoms: C_15  and  C_16
REMARK    6  A    between atoms: N_23  and  C_24
REMARK    7  A    between atoms: C_24  and  C_25
REMARK    8  A    between atoms: C_25  and  C_26
REMARK    9  A    between atoms: C_26  and  C_27
REMARK   10  A    between atoms: C_27  and  C_28
REMARK   11  A    between atoms: C_28  and  C_29
REMARK   12  A    between atoms: N_31  and  O_32
REMARK                            x       y       z     vdW  Elec       q    Type
REMARK                         _______ _______ _______ _____ _____    ______ ____
ROOT
ATOM      1  C   UNL     1       4.863   6.187  17.655  0.00  0.00    +0.000 A 
ATOM      2  C   UNL     1       4.416   7.387  17.090  0.00  0.00    +0.000 A 
ATOM      3  C   UNL     1       3.362   8.125  17.647  0.00  0.00    +0.000 A 
ATOM      4  C   UNL     1       2.712   7.605  18.776  0.00  0.00    +0.000 A 
ATOM      5  C   UNL     1       3.107   6.396  19.351  0.00  0.00    +0.000 A 
ATOM      6  C   UNL     1       4.212   5.711  18.802  0.00  0.00    +0.000 A 
ATOM      7  C   UNL     1       2.212   6.103  20.429  0.00  0.00    +0.000 A 
ATOM      8  C   UNL     1       1.317   7.153  20.485  0.00  0.00    +0.000 A 
ATOM      9  N   UNL     1       1.645   8.068  19.516  0.00  0.00    +0.000 N 
ENDROOT
BRANCH   1  16
ATOM     10  C   UNL     1       5.128   4.646  14.713  0.00  0.00    +0.000 C 
ATOM     11  C   UNL     1       6.106   4.776  15.818  0.00  0.00    +0.000 A 
ATOM     12  N   UNL     1       7.315   4.221  15.679  0.00  0.00    +0.000 NA
ATOM     13  O   UNL     1       8.007   4.528  16.828  0.00  0.00    +0.000 OA
ATOM     14  C   UNL     1       7.219   5.260  17.660  0.00  0.00    +0.000 A 
ATOM     15  C   UNL     1       7.857   5.639  18.939  0.00  0.00    +0.000 C 
ATOM     16  C   UNL     1       5.980   5.452  17.070  0.00  0.00    +0.000 A 
ENDBRANCH   1  16
BRANCH   7  17
ATOM     17  C   UNL     1       2.193   4.867  21.274  0.00  0.00    +0.000 C 
BRANCH  17  18
ATOM     18  C   UNL     1       2.034   3.686  20.345  0.00  0.00    +0.000 A 
ATOM     19  C   UNL     1       0.825   3.454  19.668  0.00  0.00    +0.000 A 
ATOM     20  C   UNL     1       0.692   2.371  18.797  0.00  0.00    +0.000 A 
ATOM     21  C   UNL     1       1.768   1.517  18.578  0.00  0.00    +0.000 A 
ATOM     22  C   UNL     1       2.983   1.750  19.222  0.00  0.00    +0.000 A 
ATOM     23  C   UNL     1       3.115   2.828  20.100  0.00  0.00    +0.000 A 
ENDBRANCH  17  18
ENDBRANCH   7  17
BRANCH   9  24
ATOM     24  C   UNL     1       0.899   9.292  19.276  0.00  0.00    +0.000 C 
BRANCH  24  25
ATOM     25  C   UNL     1       0.549  10.082  20.539  0.00  0.00    +0.000 C 
BRANCH  25  26
ATOM     26  C   UNL     1      -0.732  10.915  20.421  0.00  0.00    +0.000 C 
BRANCH  26  27
ATOM     27  C   UNL     1      -0.878  11.434  18.989  0.00  0.00    +0.000 C 
BRANCH  27  28
ATOM     28  C   UNL     1      -2.316  11.801  18.635  0.00  0.00    +0.000 C 
BRANCH  28  29
ATOM     29  C   UNL     1      -2.813  11.000  17.449  0.00  0.00    +0.000 C 
ATOM     30  O   UNL     1      -3.603  10.061  17.520  0.00  0.00    +0.000 OA
ATOM     31  N   UNL     1      -2.288  11.412  16.247  0.00  0.00    +0.000 N 
ATOM     32  H   UNL     1      -1.898  12.337  16.101  0.00  0.00    +0.000 HD
BRANCH  31  33
ATOM     33  O   UNL     1      -2.812  10.760  15.104  0.00  0.00    +0.000 OA
ATOM     34  H   UNL     1      -3.780  10.887  15.214  0.00  0.00    +0.000 HD
ENDBRANCH  31  33
ENDBRANCH  28  29
ENDBRANCH  27  28
ENDBRANCH  26  27
ENDBRANCH  25  26
ENDBRANCH  24  25
ENDBRANCH   9  24
TORSDOF 10
ENDMDL
MODEL 3
REMARK VINA RESULT:      -8.2      2.124      8.173
REMARK  Name = 
REMARK  12 active torsions:
REMARK  status: ('A' for Active; 'I' for Inactive)
REMARK    1  A    between atoms: C_1  and  C_2
REMARK    2  A    between atoms: C_5  and  C_6
REMARK    3  A    between atoms: C_7  and  C_8
REMARK    4  A    between atoms: C_14  and  C_15
REMARK    5  A    between atoms: C_15  and  C_16
REMARK    6  A    between atoms: N_23  and  C_24
REMARK    7  A    between atoms: C_24  and  C_25
REMARK    8  A    between atoms: C_25  and  C_26
REMARK    9  A    between atoms: C_26  and  C_27
REMARK   10  A    between atoms: C_27  and  C_28
REMARK   11  A    between atoms: C_28  and  C_29
REMARK   12  A    between atoms: N_31  and  O_32
REMARK                            x       y       z     vdW  Elec       q    Type
REMARK                         _______ _______ _______ _____ _____    ______ ____
ROOT
ATOM      1  C   UNL     1       5.028   6.207  17.619  0.00  0.00    +0.000 A 
ATOM      2  C   UNL     1       4.662   7.346  16.894  0.00  0.00    +0.000 A 
ATOM      3  C   UNL     1       3.581   8.155  17.273  0.00  0.00    +0.000 A 
ATOM      4  C   UNL     1       2.822   7.768  18.387  0.00  0.00    +0.000 A 
ATOM      5  C   UNL     1       3.134   6.620  19.119  0.00  0.00    +0.000 A 
ATOM      6  C   UNL     1       4.266   5.865  18.746  0.00  0.00    +0.000 A 
ATOM      7  C   UNL     1       2.141   6.457  20.136  0.00  0.00    +0.000 A 
ATOM      8  C   UNL     1       1.270   7.521  20.001  0.00  0.00    +0.000 A 
ATOM      9  N   UNL     1       1.705   8.323  18.976  0.00  0.00    +0.000 N 
ENDROOT
BRANCH   1  16
ATOM     10  C   UNL     1       7.878   5.557  19.219  0.00  0.00    +0.000 C 
ATOM     11  C   UNL     1       7.406   5.118  17.884  0.00  0.00    +0.000 A 
ATOM     12  N   UNL     1       8.192   4.323  17.150  0.00  0.00    +0.000 NA
ATOM     13  O   UNL     1       7.491   4.058  15.997  0.00  0.00    +0.000 OA
ATOM     14  C   UNL     1       6.290   4.694  16.030  0.00  0.00    +0.000 A 
ATOM     15  C   UNL     1       5.451   4.489  14.829  0.00  0.00    +0.000 C 
ATOM     16  C   UNL     1       6.173   5.397  17.218  0.00  0.00    +0.000 A 
ENDBRANCH   1  16
BRANCH   7  17
ATOM     17  C   UNL     1       2.017   5.318  21.100  0.00  0.00    +0.000 C 
BRANCH  17  18
ATOM     18  C   UNL     1       1.980   4.043  20.291  0.00  0.00    +0.000 A 
ATOM     19  C   UNL     1       3.074   3.163  20.274  0.00  0.00    +0.000 A 
ATOM     20  C   UNL     1       3.023   1.977  19.538  0.00  0.00    +0.000 A 
ATOM     21  C   UNL     1       1.876   1.648  18.825  0.00  0.00    +0.000 A 
ATOM     22  C   UNL     1       0.771   2.499  18.853  0.00  0.00    +0.000 A 
ATOM     23  C   UNL     1       0.823   3.689  19.582  0.00  0.00    +0.000 A 
ENDBRANCH  17  18
ENDBRANCH   7  17
BRANCH   9  24
ATOM     24  C   UNL     1       1.013   9.526  18.542  0.00  0.00    +0.000 C 
BRANCH  24  25
ATOM     25  C   UNL     1       0.153  10.188  19.621  0.00  0.00    +0.000 C 
BRANCH  25  26
ATOM     26  C   UNL     1      -1.269  10.529  19.164  0.00  0.00    +0.000 C 
BRANCH  26  27
ATOM     27  C   UNL     1      -1.444  10.145  17.693  0.00  0.00    +0.000 C 
BRANCH  27  28
ATOM     28  C   UNL     1      -2.877   9.752  17.349  0.00  0.00    +0.000 C 
BRANCH  28  29
ATOM     29  C   UNL     1      -3.601  10.878  16.639  0.00  0.00    +0.000 C 
ATOM     30  O   UNL     1      -3.575  11.071  15.425  0.00  0.00    +0.000 OA
ATOM     31  N   UNL     1      -4.307  11.700  17.486  0.00  0.00    +0.000 N 
ATOM     32  H   UNL     1      -4.606  11.414  18.412  0.00  0.00    +0.000 HD
BRANCH  31  33
ATOM     33  O   UNL     1      -5.085  12.697  16.850  0.00  0.00    +0.000 OA
ATOM     34  H   UNL     1      -5.526  13.137  17.611  0.00  0.00    +0.000 HD
ENDBRANCH  31  33
ENDBRANCH  28  29
ENDBRANCH  27  28
ENDBRANCH  26  27
ENDBRANCH  25  26
ENDBRANCH  24  25
ENDBRANCH   9  24
TORSDOF 10
ENDMDL
MODEL 4
REMARK VINA RESULT:      -8.1      1.987      7.696
REMARK  Name = 
REMARK  12 active torsions:
REMARK  status: ('A' for Active; 'I' for Inactive)
REMARK    1  A    between atoms: C_1  and  C_2
REMARK    2  A    between atoms: C_5  and  C_6
REMARK    3  A    between atoms: C_7  and  C_8
REMARK    4  A    between atoms: C_14  and  C_15
REMARK    5  A    between atoms: C_15  and  C_16
REMARK    6  A    between atoms: N_23  and  C_24
REMARK    7  A    between atoms: C_24  and  C_25
REMARK    8  A    between atoms: C_25  and  C_26
REMARK    9  A    between atoms: C_26  and  C_27
REMARK   10  A    between atoms: C_27  and  C_28
REMARK   11  A    between atoms: C_28  and  C_29
REMARK   12  A    between atoms: N_31  and  O_32
REMARK                            x       y       z     vdW  Elec       q    Type
REMARK                         _______ _______ _______ _____ _____    ______ ____
ROOT
ATOM      1  C   UNL     1       4.469   6.328  17.666  0.00  0.00    +0.000 A 
ATOM      2  C   UNL     1       4.024   7.563  17.182  0.00  0.00    +0.000 A 
ATOM      3  C   UNL     1       3.034   8.307  17.840  0.00  0.00    +0.000 A 
ATOM      4  C   UNL     1       2.446   7.759  18.989  0.00  0.00    +0.000 A 
ATOM      5  C   UNL     1       2.840   6.515  19.487  0.00  0.00    +0.000 A 
ATOM      6  C   UNL     1       3.883   5.822  18.835  0.00  0.00    +0.000 A 
ATOM      7  C   UNL     1       2.012   6.203  20.611  0.00  0.00    +0.000 A 
ATOM      8  C   UNL     1       1.157   7.276  20.772  0.00  0.00    +0.000 A 
ATOM      9  N   UNL     1       1.448   8.221  19.821  0.00  0.00    +0.000 N 
ENDROOT
BRANCH   1  16
ATOM     10  C   UNL     1       7.691   7.055  17.223  0.00  0.00    +0.000 C 
ATOM     11  C   UNL     1       6.899   5.888  16.765  0.00  0.00    +0.000 A 
ATOM     12  N   UNL     1       7.513   4.926  16.067  0.00  0.00    +0.000 NA
ATOM     13  O   UNL     1       6.553   3.973  15.813  0.00  0.00    +0.000 OA
ATOM     14  C   UNL     1       5.365   4.359  16.350  0.00  0.00    +0.000 A 
ATOM     15  C   UNL     1       4.252   3.412  16.128  0.00  0.00    +0.000 C 
ATOM     16  C   UNL     1       5.519   5.586  16.975  0.00  0.00    +0.000 A 
ENDBRANCH   1  16
BRANCH   7  17
ATOM     17  C   UNL     1       2.011   4.933  21.405  0.00  0.00    +0.000 C 
BRANCH  17  18
ATOM     18  C   UNL     1       1.997   3.786  20.423  0.00  0.00    +0.000 A 
ATOM     19  C   UNL     1       0.886   3.551  19.596  0.00  0.00    +0.000 A 
ATOM     20  C   UNL     1       0.890   2.500  18.678  0.00  0.00    +0.000 A 
ATOM     21  C   UNL     1       2.008   1.681  18.561  0.00  0.00    +0.000 A 
ATOM     22  C   UNL     1       3.129   1.917  19.355  0.00  0.00    +0.000 A 
ATOM     23  C   UNL     1       3.124   2.963  20.280  0.00  0.00    +0.000 A 
ENDBRANCH  17  18
ENDBRANCH   7  17
BRANCH   9  24
ATOM     24  C   UNL     1       0.726   9.476  19.682  0.00  0.00    +0.000 C 
BRANCH  24  25
ATOM     25  C   UNL     1      -0.275   9.760  20.803  0.00  0.00    +0.000 C 
BRANCH  25  26
ATOM     26  C   UNL     1      -1.112  11.025  20.587  0.00  0.00    +0.000 C 
BRANCH  26  27
ATOM     27  C   UNL     1      -0.774  11.640  19.228  0.00  0.00    +0.000 C 
BRANCH  27  28
ATOM     28  C   UNL     1      -2.011  11.924  18.381  0.00  0.00    +0.000 C 
BRANCH  28  29
ATOM     29  C   UNL     1      -2.144  10.926  17.249  0.00  0.00    +0.000 C 
ATOM     30  O   UNL     1      -1.927   9.720  17.349  0.00  0.00    +0.000 OA
ATOM     31  N   UNL     1      -2.530  11.493  16.057  0.00  0.00    +0.000 N 
ATOM     32  H   UNL     1      -3.006  12.387  15.998  0.00  0.00    +0.000 HD
BRANCH  31  33
ATOM     33  O   UNL     1      -2.772  10.579  15.003  0.00  0.00    +0.000 OA
ATOM     34  H   UNL     1      -2.138   9.855  15.203  0.00  0.00    +0.000 HD
ENDBRANCH  31  33
ENDBRANCH  28  29
ENDBRANCH  27  28
ENDBRANCH  26  27
ENDBRANCH  25  26
ENDBRANCH  24  25
ENDBRANCH   9  24
TORSDOF 10
ENDMDL
MODEL 5
REMARK VINA RESULT:      -8.1      1.876      7.815
REMARK  Name = 
REMARK  12 active torsions:
REMARK  status: ('A' for Active; 'I' for Inactive)
REMARK    1  A    between atoms: C_1  and  C_2
REMARK    2  A    between atoms: C_5  and  C_6
REMARK    3  A    between atoms: C_7  and  C_8
REMARK    4  A    between atoms: C_14  and  C_15
REMARK    5  A    between atoms: C_15  and  C_16
REMARK    6  A    between atoms: N_23  and  C_24
REMARK    7  A    between atoms: C_24  and  C_25
REMARK    8  A    between atoms: C_25  and  C_26
REMARK    9  A    between atoms: C_26  and  C_27
REMARK   10  A    between atoms: C_27  and  C_28
REMARK   11  A    between atoms: C_28  and  C_29
REMARK   12  A    between atoms: N_31  and  O_32
REMARK                            x       y       z     vdW  Elec       q    Type
REMARK                         _______ _______ _______ _____ _____    ______ ____
ROOT
ATOM      1  C   UNL     1       4.496   6.722  17.708  0.00  0.00    +0.000 A 
ATOM      2  C   UNL     1       3.907   7.912  17.266  0.00  0.00    +0.000 A 
ATOM      3  C   UNL     1       2.814   8.492  17.926  0.00  0.00    +0.000 A 
ATOM      4  C   UNL     1       2.274   7.819  19.031  0.00  0.00    +0.000 A 
ATOM      5  C   UNL     1       2.813   6.613  19.485  0.00  0.00    +0.000 A 
ATOM      6  C   UNL     1       3.951   6.091  18.836  0.00  0.00    +0.000 A 
ATOM      7  C   UNL     1       2.004   6.145  20.570  0.00  0.00    +0.000 A 
ATOM      8  C   UNL     1       1.014   7.091  20.751  0.00  0.00    +0.000 A 
ATOM      9  N   UNL     1       1.204   8.110  19.852  0.00  0.00    +0.000 N 
ENDROOT
BRANCH   1  16
ATOM     10  C   UNL     1       4.793   3.897  15.967  0.00  0.00    +0.000 C 
ATOM     11  C   UNL     1       5.798   4.941  16.279  0.00  0.00    +0.000 A 
ATOM     12  N   UNL     1       7.043   4.799  15.810  0.00  0.00    +0.000 NA
ATOM     13  O   UNL     1       7.731   5.917  16.223  0.00  0.00    +0.000 OA
ATOM     14  C   UNL     1       6.909   6.727  16.942  0.00  0.00    +0.000 A 
ATOM     15  C   UNL     1       7.548   7.959  17.451  0.00  0.00    +0.000 C 
ATOM     16  C   UNL     1       5.650   6.154  17.018  0.00  0.00    +0.000 A 
ENDBRANCH   1  16
BRANCH   7  17
ATOM     17  C   UNL     1       2.148   4.850  21.307  0.00  0.00    +0.000 C 
BRANCH  17  18
ATOM     18  C   UNL     1       2.175   3.745  20.277  0.00  0.00    +0.000 A 
ATOM     19  C   UNL     1       3.344   3.004  20.039  0.00  0.00    +0.000 A 
ATOM     20  C   UNL     1       3.355   1.972  19.099  0.00  0.00    +0.000 A 
ATOM     21  C   UNL     1       2.196   1.656  18.397  0.00  0.00    +0.000 A 
ATOM     22  C   UNL     1       1.020   2.365  18.641  0.00  0.00    +0.000 A 
ATOM     23  C   UNL     1       1.010   3.402  19.576  0.00  0.00    +0.000 A 
ENDBRANCH  17  18
ENDBRANCH   7  17
BRANCH   9  24
ATOM     24  C   UNL     1       0.330   9.268  19.746  0.00  0.00    +0.000 C 
BRANCH  24  25
ATOM     25  C   UNL     1       0.376  10.209  20.951  0.00  0.00    +0.000 C 
BRANCH  25  26
ATOM     26  C   UNL     1       1.054  11.554  20.667  0.00  0.00    +0.000 C 
BRANCH  26  27
ATOM     27  C   UNL     1       0.401  12.213  19.450  0.00  0.00    +0.000 C 
BRANCH  27  28
ATOM     28  C   UNL     1      -1.058  12.587  19.690  0.00  0.00    +0.000 C 
BRANCH  28  29
ATOM     29  C   UNL     1      -1.950  12.064  18.582  0.00  0.00    +0.000 C 
ATOM     30  O   UNL     1      -3.059  11.563  18.754  0.00  0.00    +0.000 OA
ATOM     31  N   UNL     1      -1.401  12.190  17.328  0.00  0.00    +0.000 N 
ATOM     32  H   UNL     1      -0.664  12.851  17.110  0.00  0.00    +0.000 HD
BRANCH  31  33
ATOM     33  O   UNL     1      -2.248  11.813  16.257  0.00  0.00    +0.000 OA
ATOM     34  H   UNL     1      -2.605  10.950  16.565  0.00  0.00    +0.000 HD
ENDBRANCH  31  33
ENDBRANCH  28  29
ENDBRANCH  27  28
ENDBRANCH  26  27
ENDBRANCH  25  26
ENDBRANCH  24  25
ENDBRANCH   9  24
TORSDOF 10
ENDMDL
MODEL 6
REMARK VINA RESULT:      -8.0      2.168      8.029
REMARK  Name = 
REMARK  12 active torsions:
REMARK  status: ('A' for Active; 'I' for Inactive)
REMARK    1  A    between atoms: C_1  and  C_2
REMARK    2  A    between atoms: C_5  and  C_6
REMARK    3  A    between atoms: C_7  and  C_8
REMARK    4  A    between atoms: C_14  and  C_15
REMARK    5  A    between atoms: C_15  and  C_16
REMARK    6  A    between atoms: N_23  and  C_24
REMARK    7  A    between atoms: C_24  and  C_25
REMARK    8  A    between atoms: C_25  and  C_26
REMARK    9  A    between atoms: C_26  and  C_27
REMARK   10  A    between atoms: C_27  and  C_28
REMARK   11  A    between atoms: C_28  and  C_29
REMARK   12  A    between atoms: N_31  and  O_32
REMARK                            x       y       z     vdW  Elec       q    Type
REMARK                         _______ _______ _______ _____ _____    ______ ____
ROOT
ATOM      1  C   UNL     1       4.879   6.238  17.614  0.00  0.00    +0.000 A 
ATOM      2  C   UNL     1       4.469   7.432  17.011  0.00  0.00    +0.000 A 
ATOM      3  C   UNL     1       3.420   8.206  17.528  0.00  0.00    +0.000 A 
ATOM      4  C   UNL     1       2.739   7.729  18.657  0.00  0.00    +0.000 A 
ATOM      5  C   UNL     1       3.096   6.526  19.270  0.00  0.00    +0.000 A 
ATOM      6  C   UNL     1       4.196   5.805  18.760  0.00  0.00    +0.000 A 
ATOM      7  C   UNL     1       2.175   6.280  20.338  0.00  0.00    +0.000 A 
ATOM      8  C   UNL     1       1.302   7.350  20.350  0.00  0.00    +0.000 A 
ATOM      9  N   UNL     1       1.668   8.233  19.366  0.00  0.00    +0.000 N 
ENDROOT
BRANCH   1  16
ATOM     10  C   UNL     1       5.170   4.626  14.712  0.00  0.00    +0.000 C 
ATOM     11  C   UNL     1       6.127   4.759  15.836  0.00  0.00    +0.000 A 
ATOM     12  N   UNL     1       7.326   4.174  15.734  0.00  0.00    +0.000 NA
ATOM     13  O   UNL     1       8.000   4.490  16.891  0.00  0.00    +0.000 OA
ATOM     14  C   UNL     1       7.212   5.258  17.690  0.00  0.00    +0.000 A 
ATOM     15  C   UNL     1       7.832   5.650  18.974  0.00  0.00    +0.000 C 
ATOM     16  C   UNL     1       5.991   5.465  17.069  0.00  0.00    +0.000 A 
ENDBRANCH   1  16
BRANCH   7  17
ATOM     17  C   UNL     1       2.114   5.066  21.213  0.00  0.00    +0.000 C 
BRANCH  17  18
ATOM     18  C   UNL     1       2.012   3.861  20.308  0.00  0.00    +0.000 A 
ATOM     19  C   UNL     1       3.090   2.972  20.160  0.00  0.00    +0.000 A 
ATOM     20  C   UNL     1       2.981   1.851  19.335  0.00  0.00    +0.000 A 
ATOM     21  C   UNL     1       1.791   1.593  18.663  0.00  0.00    +0.000 A 
ATOM     22  C   UNL     1       0.703   2.451  18.821  0.00  0.00    +0.000 A 
ATOM     23  C   UNL     1       0.813   3.578  19.639  0.00  0.00    +0.000 A 
ENDBRANCH  17  18
ENDBRANCH   7  17
BRANCH   9  24
ATOM     24  C   UNL     1       0.952   9.466  19.080  0.00  0.00    +0.000 C 
BRANCH  24  25
ATOM     25  C   UNL     1      -0.357   9.634  19.853  0.00  0.00    +0.000 C 
BRANCH  25  26
ATOM     26  C   UNL     1      -0.932  11.054  19.807  0.00  0.00    +0.000 C 
BRANCH  26  27
ATOM     27  C   UNL     1      -1.508  11.331  18.416  0.00  0.00    +0.000 C 
BRANCH  27  28
ATOM     28  C   UNL     1      -2.321  10.162  17.868  0.00  0.00    +0.000 C 
BRANCH  28  29
ATOM     29  C   UNL     1      -3.094  10.564  16.628  0.00  0.00    +0.000 C 
ATOM     30  O   UNL     1      -3.936  11.458  16.587  0.00  0.00    +0.000 OA
ATOM     31  N   UNL     1      -2.774   9.822  15.515  0.00  0.00    +0.000 N 
ATOM     32  H   UNL     1      -1.903   9.311  15.422  0.00  0.00    +0.000 HD
BRANCH  31  33
ATOM     33  O   UNL     1      -3.394  10.239  14.312  0.00  0.00    +0.000 OA
ATOM     34  H   UNL     1      -4.349  10.146  14.524  0.00  0.00    +0.000 HD
ENDBRANCH  31  33
ENDBRANCH  28  29
ENDBRANCH  27  28
ENDBRANCH  26  27
ENDBRANCH  25  26
ENDBRANCH  24  25
ENDBRANCH   9  24
TORSDOF 10
ENDMDL
MODEL 7
REMARK VINA RESULT:      -8.0      2.043      8.003
REMARK  Name = 
REMARK  12 active torsions:
REMARK  status: ('A' for Active; 'I' for Inactive)
REMARK    1  A    between atoms: C_1  and  C_2
REMARK    2  A    between atoms: C_5  and  C_6
REMARK    3  A    between atoms: C_7  and  C_8
REMARK    4  A    between atoms: C_14  and  C_15
REMARK    5  A    between atoms: C_15  and  C_16
REMARK    6  A    between atoms: N_23  and  C_24
REMARK    7  A    between atoms: C_24  and  C_25
REMARK    8  A    between atoms: C_25  and  C_26
REMARK    9  A    between atoms: C_26  and  C_27
REMARK   10  A    between atoms: C_27  and  C_28
REMARK   11  A    between atoms: C_28  and  C_29
REMARK   12  A    between atoms: N_31  and  O_32
REMARK                            x       y       z     vdW  Elec       q    Type
REMARK                         _______ _______ _______ _____ _____    ______ ____
ROOT
ATOM      1  C   UNL     1       4.879   6.132  17.641  0.00  0.00    +0.000 A 
ATOM      2  C   UNL     1       4.485   7.338  17.050  0.00  0.00    +0.000 A 
ATOM      3  C   UNL     1       3.453   8.125  17.581  0.00  0.00    +0.000 A 
ATOM      4  C   UNL     1       2.770   7.648  18.710  0.00  0.00    +0.000 A 
ATOM      5  C   UNL     1       3.111   6.435  19.310  0.00  0.00    +0.000 A 
ATOM      6  C   UNL     1       4.196   5.700  18.787  0.00  0.00    +0.000 A 
ATOM      7  C   UNL     1       2.193   6.194  20.381  0.00  0.00    +0.000 A 
ATOM      8  C   UNL     1       1.337   7.277  20.408  0.00  0.00    +0.000 A 
ATOM      9  N   UNL     1       1.711   8.163  19.429  0.00  0.00    +0.000 N 
ENDROOT
BRANCH   1  16
ATOM     10  C   UNL     1       7.894   5.446  18.882  0.00  0.00    +0.000 C 
ATOM     11  C   UNL     1       7.276   5.053  17.594  0.00  0.00    +0.000 A 
ATOM     12  N   UNL     1       7.977   4.291  16.747  0.00  0.00    +0.000 NA
ATOM     13  O   UNL     1       7.150   4.062  15.671  0.00  0.00    +0.000 OA
ATOM     14  C   UNL     1       5.958   4.687  15.864  0.00  0.00    +0.000 A 
ATOM     15  C   UNL     1       4.989   4.520  14.759  0.00  0.00    +0.000 C 
ATOM     16  C   UNL     1       5.975   5.347  17.082  0.00  0.00    +0.000 A 
ENDBRANCH   1  16
BRANCH   7  17
ATOM     17  C   UNL     1       2.117   4.973  21.245  0.00  0.00    +0.000 C 
BRANCH  17  18
ATOM     18  C   UNL     1       1.968   3.780  20.331  0.00  0.00    +0.000 A 
ATOM     19  C   UNL     1       0.783   3.563  19.609  0.00  0.00    +0.000 A 
ATOM     20  C   UNL     1       0.661   2.467  18.752  0.00  0.00    +0.000 A 
ATOM     21  C   UNL     1       1.725   1.585  18.593  0.00  0.00    +0.000 A 
ATOM     22  C   UNL     1       2.917   1.802  19.283  0.00  0.00    +0.000 A 
ATOM     23  C   UNL     1       3.038   2.893  20.146  0.00  0.00    +0.000 A 
ENDBRANCH  17  18
ENDBRANCH   7  17
BRANCH   9  24
ATOM     24  C   UNL     1       1.015   9.411  19.159  0.00  0.00    +0.000 C 
BRANCH  24  25
ATOM     25  C   UNL     1      -0.226   9.645  20.023  0.00  0.00    +0.000 C 
BRANCH  25  26
ATOM     26  C   UNL     1      -0.969  10.948  19.709  0.00  0.00    +0.000 C 
BRANCH  26  27
ATOM     27  C   UNL     1      -0.998  11.172  18.196  0.00  0.00    +0.000 C 
BRANCH  27  28
ATOM     28  C   UNL     1      -1.711  10.052  17.444  0.00  0.00    +0.000 C 
BRANCH  28  29
ATOM     29  C   UNL     1      -2.964  10.560  16.760  0.00  0.00    +0.000 C 
ATOM     30  O   UNL     1      -3.582   9.950  15.890  0.00  0.00    +0.000 OA
ATOM     31  N   UNL     1      -3.367  11.800  17.198  0.00  0.00    +0.000 N 
ATOM     32  H   UNL     1      -3.090  12.188  18.093  0.00  0.00    +0.000 HD
BRANCH  31  33
ATOM     33  O   UNL     1      -4.595  12.260  16.663  0.00  0.00    +0.000 OA
ATOM     34  H   UNL     1      -4.303  12.960  16.038  0.00  0.00    +0.000 HD
ENDBRANCH  31  33
ENDBRANCH  28  29
ENDBRANCH  27  28
ENDBRANCH  26  27
ENDBRANCH  25  26
ENDBRANCH  24  25
ENDBRANCH   9  24
TORSDOF 10
ENDMDL
MODEL 8
REMARK VINA RESULT:      -7.9      1.881      7.973
REMARK  Name = 
REMARK  12 active torsions:
REMARK  status: ('A' for Active; 'I' for Inactive)
REMARK    1  A    between atoms: C_1  and  C_2
REMARK    2  A    between atoms: C_5  and  C_6
REMARK    3  A    between atoms: C_7  and  C_8
REMARK    4  A    between atoms: C_14  and  C_15
REMARK    5  A    between atoms: C_15  and  C_16
REMARK    6  A    between atoms: N_23  and  C_24
REMARK    7  A    between atoms: C_24  and  C_25
REMARK    8  A    between atoms: C_25  and  C_26
REMARK    9  A    between atoms: C_26  and  C_27
REMARK   10  A    between atoms: C_27  and  C_28
REMARK   11  A    between atoms: C_28  and  C_29
REMARK   12  A    between atoms: N_31  and  O_32
REMARK                            x       y       z     vdW  Elec       q    Type
REMARK                         _______ _______ _______ _____ _____    ______ ____
ROOT
ATOM      1  C   UNL     1       4.956   6.198  17.661  0.00  0.00    +0.000 A 
ATOM      2  C   UNL     1       4.575   7.369  16.995  0.00  0.00    +0.000 A 
ATOM      3  C   UNL     1       3.499   8.156  17.431  0.00  0.00    +0.000 A 
ATOM      4  C   UNL     1       2.761   7.715  18.539  0.00  0.00    +0.000 A 
ATOM      5  C   UNL     1       3.089   6.537  19.211  0.00  0.00    +0.000 A 
ATOM      6  C   UNL     1       4.216   5.803  18.784  0.00  0.00    +0.000 A 
ATOM      7  C   UNL     1       2.115   6.324  20.237  0.00  0.00    +0.000 A 
ATOM      8  C   UNL     1       1.239   7.390  20.167  0.00  0.00    +0.000 A 
ATOM      9  N   UNL     1       1.653   8.239  19.172  0.00  0.00    +0.000 N 
ENDROOT
BRANCH   1  16
ATOM     10  C   UNL     1       7.855   5.523  19.159  0.00  0.00    +0.000 C 
ATOM     11  C   UNL     1       7.350   5.123  17.824  0.00  0.00    +0.000 A 
ATOM     12  N   UNL     1       8.121   4.358  17.044  0.00  0.00    +0.000 NA
ATOM     13  O   UNL     1       7.390   4.123  15.903  0.00  0.00    +0.000 OA
ATOM     14  C   UNL     1       6.185   4.747  15.990  0.00  0.00    +0.000 A 
ATOM     15  C   UNL     1       5.314   4.573  14.807  0.00  0.00    +0.000 C 
ATOM     16  C   UNL     1       6.097   5.412  17.202  0.00  0.00    +0.000 A 
ENDBRANCH   1  16
BRANCH   7  17
ATOM     17  C   UNL     1       2.011   5.141  21.150  0.00  0.00    +0.000 C 
BRANCH  17  18
ATOM     18  C   UNL     1       1.957   3.905  20.284  0.00  0.00    +0.000 A 
ATOM     19  C   UNL     1       3.059   3.038  20.188  0.00  0.00    +0.000 A 
ATOM     20  C   UNL     1       2.993   1.888  19.400  0.00  0.00    +0.000 A 
ATOM     21  C   UNL     1       1.824   1.579  18.712  0.00  0.00    +0.000 A 
ATOM     22  C   UNL     1       0.714   2.416  18.818  0.00  0.00    +0.000 A 
ATOM     23  C   UNL     1       0.780   3.571  19.599  0.00  0.00    +0.000 A 
ENDBRANCH  17  18
ENDBRANCH   7  17
BRANCH   9  24
ATOM     24  C   UNL     1       0.951   9.459  18.807  0.00  0.00    +0.000 C 
BRANCH  24  25
ATOM     25  C   UNL     1       0.339  10.217  19.986  0.00  0.00    +0.000 C 
BRANCH  25  26
ATOM     26  C   UNL     1       0.349  11.740  19.823  0.00  0.00    +0.000 C 
BRANCH  26  27
ATOM     27  C   UNL     1      -0.812  12.170  18.925  0.00  0.00    +0.000 C 
BRANCH  27  28
ATOM     28  C   UNL     1      -1.927  11.130  18.859  0.00  0.00    +0.000 C 
BRANCH  28  29
ATOM     29  C   UNL     1      -2.269  10.780  17.425  0.00  0.00    +0.000 C 
ATOM     30  O   UNL     1      -2.166   9.658  16.935  0.00  0.00    +0.000 OA
ATOM     31  N   UNL     1      -2.713  11.852  16.688  0.00  0.00    +0.000 N 
ATOM     32  H   UNL     1      -3.100  12.691  17.107  0.00  0.00    +0.000 HD
BRANCH  31  33
ATOM     33  O   UNL     1      -3.148  11.545  15.375  0.00  0.00    +0.000 OA
ATOM     34  H   UNL     1      -2.913  12.361  14.879  0.00  0.00    +0.000 HD
ENDBRANCH  31  33
ENDBRANCH  28  29
ENDBRANCH  27  28
ENDBRANCH  26  27
ENDBRANCH  25  26
ENDBRANCH  24  25
ENDBRANCH   9  24
TORSDOF 10
ENDMDL
MODEL 9
REMARK VINA RESULT:      -7.9      2.373      7.786
REMARK  Name = 
REMARK  12 active torsions:
REMARK  status: ('A' for Active; 'I' for Inactive)
REMARK    1  A    between atoms: C_1  and  C_2
REMARK    2  A    between atoms: C_5  and  C_6
REMARK    3  A    between atoms: C_7  and  C_8
REMARK    4  A    between atoms: C_14  and  C_15
REMARK    5  A    between atoms: C_15  and  C_16
REMARK    6  A    between atoms: N_23  and  C_24
REMARK    7  A    between atoms: C_24  and  C_25
REMARK    8  A    between atoms: C_25  and  C_26
REMARK    9  A    between atoms: C_26  and  C_27
REMARK   10  A    between atoms: C_27  and  C_28
REMARK   11  A    between atoms: C_28  and  C_29
REMARK   12  A    between atoms: N_31  and  O_32
REMARK                            x       y       z     vdW  Elec       q    Type
REMARK                         _______ _______ _______ _____ _____    ______ ____
ROOT
ATOM      1  C   UNL     1       4.340   6.672  17.735  0.00  0.00    +0.000 A 
ATOM      2  C   UNL     1       3.789   7.902  17.357  0.00  0.00    +0.000 A 
ATOM      3  C   UNL     1       2.762   8.514  18.090  0.00  0.00    +0.000 A 
ATOM      4  C   UNL     1       2.247   7.835  19.204  0.00  0.00    +0.000 A 
ATOM      5  C   UNL     1       2.748   6.592  19.595  0.00  0.00    +0.000 A 
ATOM      6  C   UNL     1       3.824   6.035  18.872  0.00  0.00    +0.000 A 
ATOM      7  C   UNL     1       1.975   6.131  20.708  0.00  0.00    +0.000 A 
ATOM      8  C   UNL     1       1.044   7.118  20.968  0.00  0.00    +0.000 A 
ATOM      9  N   UNL     1       1.236   8.153  20.087  0.00  0.00    +0.000 N 
ENDROOT
BRANCH   1  16
ATOM     10  C   UNL     1       4.403   3.895  15.895  0.00  0.00    +0.000 C 
ATOM     11  C   UNL     1       5.475   4.876  16.187  0.00  0.00    +0.000 A 
ATOM     12  N   UNL     1       6.686   4.688  15.650  0.00  0.00    +0.000 NA
ATOM     13  O   UNL     1       7.451   5.755  16.061  0.00  0.00    +0.000 OA
ATOM     14  C   UNL     1       6.709   6.581  16.845  0.00  0.00    +0.000 A 
ATOM     15  C   UNL     1       7.436   7.763  17.358  0.00  0.00    +0.000 C 
ATOM     16  C   UNL     1       5.427   6.070  16.969  0.00  0.00    +0.000 A 
ENDBRANCH   1  16
BRANCH   7  17
ATOM     17  C   UNL     1       2.092   4.809  21.401  0.00  0.00    +0.000 C 
BRANCH  17  18
ATOM     18  C   UNL     1       2.058   3.737  20.337  0.00  0.00    +0.000 A 
ATOM     19  C   UNL     1       0.891   3.486  19.596  0.00  0.00    +0.000 A 
ATOM     20  C   UNL     1       0.875   2.506  18.602  0.00  0.00    +0.000 A 
ATOM     21  C   UNL     1       2.026   1.776  18.324  0.00  0.00    +0.000 A 
ATOM     22  C   UNL     1       3.200   2.031  19.033  0.00  0.00    +0.000 A 
ATOM     23  C   UNL     1       3.216   3.006  20.033  0.00  0.00    +0.000 A 
ENDBRANCH  17  18
ENDBRANCH   7  17
BRANCH   9  24
ATOM     24  C   UNL     1       0.417   9.353  20.060  0.00  0.00    +0.000 C 
BRANCH  24  25
ATOM     25  C   UNL     1      -0.233   9.648  18.707  0.00  0.00    +0.000 C 
BRANCH  25  26
ATOM     26  C   UNL     1      -0.577  11.125  18.488  0.00  0.00    +0.000 C 
BRANCH  26  27
ATOM     27  C   UNL     1      -1.884  11.238  17.702  0.00  0.00    +0.000 C 
BRANCH  27  28
ATOM     28  C   UNL     1      -2.181   9.999  16.862  0.00  0.00    +0.000 C 
BRANCH  28  29
ATOM     29  C   UNL     1      -3.143  10.316  15.735  0.00  0.00    +0.000 C 
ATOM     30  O   UNL     1      -4.244  10.842  15.881  0.00  0.00    +0.000 OA
ATOM     31  N   UNL     1      -2.677   9.950  14.494  0.00  0.00    +0.000 N 
ATOM     32  H   UNL     1      -1.693   9.810  14.292  0.00  0.00    +0.000 HD
BRANCH  31  33
ATOM     33  O   UNL     1      -3.498  10.329  13.404  0.00  0.00    +0.000 OA
ATOM     34  H   UNL     1      -2.982  10.008  12.631  0.00  0.00    +0.000 HD
ENDBRANCH  31  33
ENDBRANCH  28  29
ENDBRANCH  27  28
ENDBRANCH  26  27
ENDBRANCH  25  26
ENDBRANCH  24  25
ENDBRANCH   9  24
TORSDOF 10
ENDMDL
