MODEL 1
REMARK VINA RESULT:      -7.9      0.000      0.000
REMARK  Name = 
REMARK  9 active torsions:
REMARK  status: ('A' for Active; 'I' for Inactive)
REMARK    1  A    between atoms: C_1  and  C_2
REMARK    2  A    between atoms: C_2  and  C_3
REMARK    3  A    between atoms: C_6  and  C_7
REMARK    4  A    between atoms: C_8  and  C_9
REMARK    5  A    between atoms: C_9  and  N_10
REMARK    6  A    between atoms: C_13  and  C_14
REMARK    7  A    between atoms: N_19  and  C_20
REMARK    8  A    between atoms: C_20  and  C_21
REMARK    9  A    between atoms: C_20  and  C_22
REMARK                            x       y       z     vdW  Elec       q    Type
REMARK                         _______ _______ _______ _____ _____    ______ ____
ROOT
ATOM      1  N   UNL     1       3.786   5.908  17.397  0.00  0.00    +0.000 N 
ATOM      2  C   UNL     1       3.326   4.620  17.626  0.00  0.00    +0.000 A 
ATOM      3  O   UNL     1       3.668   3.660  16.940  0.00  0.00    +0.000 OA
ATOM      4  C   UNL     1       2.384   4.448  18.737  0.00  0.00    +0.000 A 
ATOM      5  C   UNL     1       2.013   5.532  19.431  0.00  0.00    +0.000 A 
ATOM      6  N   UNL     1       2.438   6.805  19.111  0.00  0.00    +0.000 N 
ATOM      7  C   UNL     1       3.276   7.040  18.020  0.00  0.00    +0.000 A 
ATOM      8  O   UNL     1       3.550   8.177  17.633  0.00  0.00    +0.000 OA
ENDROOT
BRANCH   4   9
ATOM      9  C   UNL     1       1.896   3.084  19.072  0.00  0.00    +0.000 C 
ATOM     10  F   UNL     1       2.827   2.192  19.483  0.00  0.00    +0.000 F 
ATOM     11  F   UNL     1       0.961   3.137  20.062  0.00  0.00    +0.000 F 
ATOM     12  F   UNL     1       1.269   2.522  18.002  0.00  0.00    +0.000 F 
ENDBRANCH   4   9
BRANCH   6  13
ATOM     13  C   UNL     1       2.023   7.930  19.987  0.00  0.00    +0.000 C 
ATOM     14  C   UNL     1       1.244   8.995  19.208  0.00  0.00    +0.000 C 
ATOM     15  C   UNL     1       1.252   7.477  21.230  0.00  0.00    +0.000 C 
ENDBRANCH   6  13
BRANCH   1  16
ATOM     16  C   UNL     1       4.813   6.106  16.378  0.00  0.00    +0.000 C 
BRANCH  16  22
ATOM     17  C   UNL     1       6.996   4.788  15.939  0.00  0.00    +0.000 A 
ATOM     18  O   UNL     1       7.968   4.208  16.692  0.00  0.00    +0.000 OA
ATOM     19  N   UNL     1       7.726   4.442  18.024  0.00  0.00    +0.000 NA
ATOM     20  C   UNL     1       6.595   5.154  18.076  0.00  0.00    +0.000 A 
ATOM     21  C   UNL     1       6.090   5.596  19.398  0.00  0.00    +0.000 C 
ATOM     22  C   UNL     1       6.060   5.377  16.770  0.00  0.00    +0.000 A 
BRANCH  17  24
ATOM     23  C   UNL     1       6.031   3.824  13.831  0.00  0.00    +0.000 C 
ATOM     24  C   UNL     1       7.136   4.657  14.465  0.00  0.00    +0.000 C 
ENDBRANCH  17  24
ENDBRANCH  16  22
ENDBRANCH   1  16
TORSDOF 5
ENDMDL
MODEL 2
REMARK VINA RESULT:      -7.7      1.705      2.520
REMARK  Name = 
REMARK  9 active torsions:
REMARK  status: ('A' for Active; 'I' for Inactive)
REMARK    1  A    between atoms: C_1  and  C_2
REMARK    2  A    between atoms: C_2  and  C_3
REMARK    3  A    between atoms: C_6  and  C_7
REMARK    4  A    between atoms: C_8  and  C_9
REMARK    5  A    between atoms: C_9  and  N_10
REMARK    6  A    between atoms: C_13  and  C_14
REMARK    7  A    between atoms: N_19  and  C_20
REMARK    8  A    between atoms: C_20  and  C_21
REMARK    9  A    between atoms: C_20  and  C_22
REMARK                            x       y       z     vdW  Elec       q    Type
REMARK                         _______ _______ _______ _____ _____    ______ ____
ROOT
ATOM      1  N   UNL     1       4.627   4.727  18.902  0.00  0.00    +0.000 N 
ATOM      2  C   UNL     1       3.782   3.631  18.992  0.00  0.00    +0.000 A 
ATOM      3  O   UNL     1       4.180   2.474  18.889  0.00  0.00    +0.000 OA
ATOM      4  C   UNL     1       2.359   3.917  19.209  0.00  0.00    +0.000 A 
ATOM      5  C   UNL     1       1.971   5.197  19.278  0.00  0.00    +0.000 A 
ATOM      6  N   UNL     1       2.840   6.253  19.100  0.00  0.00    +0.000 N 
ATOM      7  C   UNL     1       4.190   6.043  18.817  0.00  0.00    +0.000 A 
ATOM      8  O   UNL     1       4.951   6.965  18.515  0.00  0.00    +0.000 OA
ENDROOT
BRANCH   4   9
ATOM      9  C   UNL     1       1.408   2.786  19.372  0.00  0.00    +0.000 C 
ATOM     10  F   UNL     1       1.290   1.938  18.325  0.00  0.00    +0.000 F 
ATOM     11  F   UNL     1       1.756   2.016  20.442  0.00  0.00    +0.000 F 
ATOM     12  F   UNL     1       0.156   3.246  19.641  0.00  0.00    +0.000 F 
ENDBRANCH   4   9
BRANCH   6  13
ATOM     13  C   UNL     1       2.319   7.633  19.265  0.00  0.00    +0.000 C 
ATOM     14  C   UNL     1       1.653   8.142  17.982  0.00  0.00    +0.000 C 
ATOM     15  C   UNL     1       1.390   7.790  20.472  0.00  0.00    +0.000 C 
ENDBRANCH   6  13
BRANCH   1  16
ATOM     16  C   UNL     1       6.064   4.487  18.803  0.00  0.00    +0.000 C 
BRANCH  16  22
ATOM     17  C   UNL     1       7.432   6.184  17.409  0.00  0.00    +0.000 A 
ATOM     18  O   UNL     1       7.655   6.427  16.091  0.00  0.00    +0.000 OA
ATOM     19  N   UNL     1       7.014   5.480  15.328  0.00  0.00    +0.000 NA
ATOM     20  C   UNL     1       6.390   4.671  16.191  0.00  0.00    +0.000 A 
ATOM     21  C   UNL     1       5.632   3.512  15.661  0.00  0.00    +0.000 C 
ATOM     22  C   UNL     1       6.592   5.093  17.541  0.00  0.00    +0.000 A 
BRANCH  17  24
ATOM     23  C   UNL     1       8.111   8.551  17.899  0.00  0.00    +0.000 C 
ATOM     24  C   UNL     1       8.094   7.104  18.371  0.00  0.00    +0.000 C 
ENDBRANCH  17  24
ENDBRANCH  16  22
ENDBRANCH   1  16
TORSDOF 5
ENDMDL
MODEL 3
REMARK VINA RESULT:      -7.6      2.678      4.202
REMARK  Name = 
REMARK  9 active torsions:
REMARK  status: ('A' for Active; 'I' for Inactive)
REMARK    1  A    between atoms: C_1  and  C_2
REMARK    2  A    between atoms: C_2  and  C_3
REMARK    3  A    between atoms: C_6  and  C_7
REMARK    4  A    between atoms: C_8  and  C_9
REMARK    5  A    between atoms: C_9  and  N_10
REMARK    6  A    between atoms: C_13  and  C_14
REMARK    7  A    between atoms: N_19  and  C_20
REMARK    8  A    between atoms: C_20  and  C_21
REMARK    9  A    between atoms: C_20  and  C_22
REMARK                            x       y       z     vdW  Elec       q    Type
REMARK                         _______ _______ _______ _____ _____    ______ ____
ROOT
ATOM      1  N   UNL     1       4.853   4.818  18.976  0.00  0.00    +0.000 N 
ATOM      2  C   UNL     1       4.288   6.028  18.602  0.00  0.00    +0.000 A 
ATOM      3  O   UNL     1       4.960   7.014  18.312  0.00  0.00    +0.000 OA
ATOM      4  C   UNL     1       2.822   6.088  18.579  0.00  0.00    +0.000 A 
ATOM      5  C   UNL     1       2.135   4.997  18.940  0.00  0.00    +0.000 A 
ATOM      6  N   UNL     1       2.746   3.841  19.383  0.00  0.00    +0.000 N 
ATOM      7  C   UNL     1       4.133   3.750  19.496  0.00  0.00    +0.000 A 
ATOM      8  O   UNL     1       4.689   2.783  20.021  0.00  0.00    +0.000 OA
ENDROOT
BRANCH   4   9
ATOM      9  C   UNL     1       2.154   7.339  18.133  0.00  0.00    +0.000 C 
ATOM     10  F   UNL     1       2.865   8.147  17.314  0.00  0.00    +0.000 F 
ATOM     11  F   UNL     1       0.997   7.055  17.470  0.00  0.00    +0.000 F 
ATOM     12  F   UNL     1       1.789   8.097  19.203  0.00  0.00    +0.000 F 
ENDBRANCH   4   9
BRANCH   6  13
ATOM     13  C   UNL     1       1.894   2.665  19.692  0.00  0.00    +0.000 C 
ATOM     14  C   UNL     1       1.335   2.734  21.118  0.00  0.00    +0.000 C 
ATOM     15  C   UNL     1       0.777   2.440  18.669  0.00  0.00    +0.000 C 
ENDBRANCH   6  13
BRANCH   1  16
ATOM     16  C   UNL     1       6.304   4.679  18.900  0.00  0.00    +0.000 C 
BRANCH  16  22
ATOM     17  C   UNL     1       7.590   6.384  17.439  0.00  0.00    +0.000 A 
ATOM     18  O   UNL     1       7.798   6.588  16.111  0.00  0.00    +0.000 OA
ATOM     19  N   UNL     1       7.198   5.587  15.387  0.00  0.00    +0.000 NA
ATOM     20  C   UNL     1       6.614   4.782  16.281  0.00  0.00    +0.000 A 
ATOM     21  C   UNL     1       5.907   3.572  15.797  0.00  0.00    +0.000 C 
ATOM     22  C   UNL     1       6.801   5.261  17.614  0.00  0.00    +0.000 A 
BRANCH  17  24
ATOM     23  C   UNL     1       8.090   8.805  17.877  0.00  0.00    +0.000 C 
ATOM     24  C   UNL     1       8.212   7.368  18.363  0.00  0.00    +0.000 C 
ENDBRANCH  17  24
ENDBRANCH  16  22
ENDBRANCH   1  16
TORSDOF 5
ENDMDL
MODEL 4
REMARK VINA RESULT:      -7.5      2.540      4.080
REMARK  Name = 
REMARK  9 active torsions:
REMARK  status: ('A' for Active; 'I' for Inactive)
REMARK    1  A    between atoms: C_1  and  C_2
REMARK    2  A    between atoms: C_2  and  C_3
REMARK    3  A    between atoms: C_6  and  C_7
REMARK    4  A    between atoms: C_8  and  C_9
REMARK    5  A    between atoms: C_9  and  N_10
REMARK    6  A    between atoms: C_13  and  C_14
REMARK    7  A    between atoms: N_19  and  C_20
REMARK    8  A    between atoms: C_20  and  C_21
REMARK    9  A    between atoms: C_20  and  C_22
REMARK                            x       y       z     vdW  Elec       q    Type
REMARK                         _______ _______ _______ _____ _____    ______ ____
ROOT
ATOM      1  N   UNL     1       3.901   4.121  17.411  0.00  0.00    +0.000 N 
ATOM      2  C   UNL     1       3.691   5.491  17.352  0.00  0.00    +0.000 A 
ATOM      3  O   UNL     1       4.176   6.201  16.476  0.00  0.00    +0.000 OA
ATOM      4  C   UNL     1       2.858   6.073  18.411  0.00  0.00    +0.000 A 
ATOM      5  C   UNL     1       2.384   5.261  19.365  0.00  0.00    +0.000 A 
ATOM      6  N   UNL     1       2.689   3.917  19.424  0.00  0.00    +0.000 N 
ATOM      7  C   UNL     1       3.535   3.322  18.487  0.00  0.00    +0.000 A 
ATOM      8  O   UNL     1       3.933   2.162  18.603  0.00  0.00    +0.000 OA
ENDROOT
BRANCH   4   9
ATOM      9  C   UNL     1       2.548   7.526  18.375  0.00  0.00    +0.000 C 
ATOM     10  F   UNL     1       3.553   8.351  18.001  0.00  0.00    +0.000 F 
ATOM     11  F   UNL     1       1.516   7.776  17.520  0.00  0.00    +0.000 F 
ATOM     12  F   UNL     1       2.127   7.958  19.596  0.00  0.00    +0.000 F 
ENDBRANCH   4   9
BRANCH   6  13
ATOM     13  C   UNL     1       2.054   3.093  20.483  0.00  0.00    +0.000 C 
ATOM     14  C   UNL     1       2.253   3.709  21.872  0.00  0.00    +0.000 C 
ATOM     15  C   UNL     1       0.576   2.795  20.215  0.00  0.00    +0.000 C 
ENDBRANCH   6  13
BRANCH   1  16
ATOM     16  C   UNL     1       4.625   3.485  16.315  0.00  0.00    +0.000 C 
BRANCH  16  22
ATOM     17  C   UNL     1       6.795   4.712  17.009  0.00  0.00    +0.000 A 
ATOM     18  O   UNL     1       7.829   5.324  16.375  0.00  0.00    +0.000 OA
ATOM     19  N   UNL     1       7.680   5.199  15.015  0.00  0.00    +0.000 NA
ATOM     20  C   UNL     1       6.543   4.521  14.827  0.00  0.00    +0.000 A 
ATOM     21  C   UNL     1       6.127   4.193  13.443  0.00  0.00    +0.000 C 
ATOM     22  C   UNL     1       5.910   4.211  16.070  0.00  0.00    +0.000 A 
BRANCH  17  24
ATOM     23  C   UNL     1       7.741   5.806  19.061  0.00  0.00    +0.000 C 
ATOM     24  C   UNL     1       6.830   4.726  18.496  0.00  0.00    +0.000 C 
ENDBRANCH  17  24
ENDBRANCH  16  22
ENDBRANCH   1  16
TORSDOF 5
ENDMDL
MODEL 5
REMARK VINA RESULT:      -7.5      1.623      2.779
REMARK  Name = 
REMARK  9 active torsions:
REMARK  status: ('A' for Active; 'I' for Inactive)
REMARK    1  A    between atoms: C_1  and  C_2
REMARK    2  A    between atoms: C_2  and  C_3
REMARK    3  A    between atoms: C_6  and  C_7
REMARK    4  A    between atoms: C_8  and  C_9
REMARK    5  A    between atoms: C_9  and  N_10
REMARK    6  A    between atoms: C_13  and  C_14
REMARK    7  A    between atoms: N_19  and  C_20
REMARK    8  A    between atoms: C_20  and  C_21
REMARK    9  A    between atoms: C_20  and  C_22
REMARK                            x       y       z     vdW  Elec       q    Type
REMARK                         _______ _______ _______ _____ _____    ______ ____
ROOT
ATOM      1  N   UNL     1       3.838   4.152  17.888  0.00  0.00    +0.000 N 
ATOM      2  C   UNL     1       3.484   3.267  18.896  0.00  0.00    +0.000 A 
ATOM      3  O   UNL     1       3.699   2.060  18.828  0.00  0.00    +0.000 OA
ATOM      4  C   UNL     1       2.815   3.844  20.068  0.00  0.00    +0.000 A 
ATOM      5  C   UNL     1       2.569   5.160  20.076  0.00  0.00    +0.000 A 
ATOM      6  N   UNL     1       2.869   5.984  19.011  0.00  0.00    +0.000 N 
ATOM      7  C   UNL     1       3.438   5.481  17.841  0.00  0.00    +0.000 A 
ATOM      8  O   UNL     1       3.581   6.170  16.829  0.00  0.00    +0.000 OA
ENDROOT
BRANCH   4   9
ATOM      9  C   UNL     1       2.459   2.960  21.209  0.00  0.00    +0.000 C 
ATOM     10  F   UNL     1       2.028   3.570  22.337  0.00  0.00    +0.000 F 
ATOM     11  F   UNL     1       1.474   2.088  20.853  0.00  0.00    +0.000 F 
ATOM     12  F   UNL     1       3.522   2.188  21.568  0.00  0.00    +0.000 F 
ENDBRANCH   4   9
BRANCH   6  13
ATOM     13  C   UNL     1       2.619   7.441  19.151  0.00  0.00    +0.000 C 
ATOM     14  C   UNL     1       1.982   8.028  17.887  0.00  0.00    +0.000 C 
ATOM     15  C   UNL     1       1.806   7.799  20.399  0.00  0.00    +0.000 C 
ENDBRANCH   6  13
BRANCH   1  16
ATOM     16  C   UNL     1       4.608   3.639  16.758  0.00  0.00    +0.000 C 
BRANCH  16  22
ATOM     17  C   UNL     1       6.641   5.033  17.547  0.00  0.00    +0.000 A 
ATOM     18  O   UNL     1       7.648   5.730  16.958  0.00  0.00    +0.000 OA
ATOM     19  N   UNL     1       7.567   5.602  15.592  0.00  0.00    +0.000 NA
ATOM     20  C   UNL     1       6.497   4.835  15.355  0.00  0.00    +0.000 A 
ATOM     21  C   UNL     1       6.168   4.483  13.954  0.00  0.00    +0.000 C 
ATOM     22  C   UNL     1       5.840   4.468  16.570  0.00  0.00    +0.000 A 
BRANCH  17  24
ATOM     23  C   UNL     1       7.828   5.718  19.650  0.00  0.00    +0.000 C 
ATOM     24  C   UNL     1       6.612   5.042  19.033  0.00  0.00    +0.000 C 
ENDBRANCH  17  24
ENDBRANCH  16  22
ENDBRANCH   1  16
TORSDOF 5
ENDMDL
MODEL 6
REMARK VINA RESULT:      -7.5      1.529      1.849
REMARK  Name = 
REMARK  9 active torsions:
REMARK  status: ('A' for Active; 'I' for Inactive)
REMARK    1  A    between atoms: C_1  and  C_2
REMARK    2  A    between atoms: C_2  and  C_3
REMARK    3  A    between atoms: C_6  and  C_7
REMARK    4  A    between atoms: C_8  and  C_9
REMARK    5  A    between atoms: C_9  and  N_10
REMARK    6  A    between atoms: C_13  and  C_14
REMARK    7  A    between atoms: N_19  and  C_20
REMARK    8  A    between atoms: C_20  and  C_21
REMARK    9  A    between atoms: C_20  and  C_22
REMARK                            x       y       z     vdW  Elec       q    Type
REMARK                         _______ _______ _______ _____ _____    ______ ____
ROOT
ATOM      1  N   UNL     1       3.864   4.296  18.061  0.00  0.00    +0.000 N 
ATOM      2  C   UNL     1       3.488   3.378  19.029  0.00  0.00    +0.000 A 
ATOM      3  O   UNL     1       3.751   2.181  18.950  0.00  0.00    +0.000 OA
ATOM      4  C   UNL     1       2.734   3.904  20.174  0.00  0.00    +0.000 A 
ATOM      5  C   UNL     1       2.440   5.210  20.195  0.00  0.00    +0.000 A 
ATOM      6  N   UNL     1       2.767   6.068  19.165  0.00  0.00    +0.000 N 
ATOM      7  C   UNL     1       3.418   5.611  18.018  0.00  0.00    +0.000 A 
ATOM      8  O   UNL     1       3.591   6.327  17.030  0.00  0.00    +0.000 OA
ENDROOT
BRANCH   4   9
ATOM      9  C   UNL     1       2.350   2.983  21.276  0.00  0.00    +0.000 C 
ATOM     10  F   UNL     1       1.331   2.129  21.024  0.00  0.00    +0.000 F 
ATOM     11  F   UNL     1       3.409   2.207  21.645  0.00  0.00    +0.000 F 
ATOM     12  F   UNL     1       2.001   3.685  22.389  0.00  0.00    +0.000 F 
ENDBRANCH   4   9
BRANCH   6  13
ATOM     13  C   UNL     1       2.456   7.511  19.320  0.00  0.00    +0.000 C 
ATOM     14  C   UNL     1       1.785   8.081  18.065  0.00  0.00    +0.000 C 
ATOM     15  C   UNL     1       1.638   7.823  20.576  0.00  0.00    +0.000 C 
ENDBRANCH   6  13
BRANCH   1  16
ATOM     16  C   UNL     1       4.714   3.837  16.966  0.00  0.00    +0.000 C 
BRANCH  16  22
ATOM     17  C   UNL     1       6.458   5.263  15.694  0.00  0.00    +0.000 A 
ATOM     18  O   UNL     1       7.554   6.001  16.015  0.00  0.00    +0.000 OA
ATOM     19  N   UNL     1       7.723   6.013  17.379  0.00  0.00    +0.000 NA
ATOM     20  C   UNL     1       6.734   5.267  17.882  0.00  0.00    +0.000 A 
ATOM     21  C   UNL     1       6.627   5.120  19.353  0.00  0.00    +0.000 C 
ATOM     22  C   UNL     1       5.909   4.729  16.846  0.00  0.00    +0.000 A 
BRANCH  17  24
ATOM     23  C   UNL     1       6.227   3.775  13.686  0.00  0.00    +0.000 C 
ATOM     24  C   UNL     1       6.116   5.184  14.250  0.00  0.00    +0.000 C 
ENDBRANCH  17  24
ENDBRANCH  16  22
ENDBRANCH   1  16
TORSDOF 5
ENDMDL
MODEL 7
REMARK VINA RESULT:      -7.3      8.400     10.159
REMARK  Name = 
REMARK  9 active torsions:
REMARK  status: ('A' for Active; 'I' for Inactive)
REMARK    1  A    between atoms: C_1  and  C_2
REMARK    2  A    between atoms: C_2  and  C_3
REMARK    3  A    between atoms: C_6  and  C_7
REMARK    4  A    between atoms: C_8  and  C_9
REMARK    5  A    between atoms: C_9  and  N_10
REMARK    6  A    between atoms: C_13  and  C_14
REMARK    7  A    between atoms: N_19  and  C_20
REMARK    8  A    between atoms: C_20  and  C_21
REMARK    9  A    between atoms: C_20  and  C_22
REMARK                            x       y       z     vdW  Elec       q    Type
REMARK                         _______ _______ _______ _____ _____    ______ ____
ROOT
ATOM      1  N   UNL     1      -2.823  12.518  19.602  0.00  0.00    +0.000 N 
ATOM      2  C   UNL     1      -2.291  11.899  18.481  0.00  0.00    +0.000 A 
ATOM      3  O   UNL     1      -1.114  12.017  18.151  0.00  0.00    +0.000 OA
ATOM      4  C   UNL     1      -3.215  11.088  17.678  0.00  0.00    +0.000 A 
ATOM      5  C   UNL     1      -4.497  11.022  18.060  0.00  0.00    +0.000 A 
ATOM      6  N   UNL     1      -4.994  11.723  19.138  0.00  0.00    +0.000 N 
ATOM      7  C   UNL     1      -4.180  12.567  19.894  0.00  0.00    +0.000 A 
ATOM      8  O   UNL     1      -4.632  13.309  20.768  0.00  0.00    +0.000 OA
ENDROOT
BRANCH   4   9
ATOM      9  C   UNL     1      -2.696  10.352  16.496  0.00  0.00    +0.000 C 
ATOM     10  F   UNL     1      -1.583   9.607  16.686  0.00  0.00    +0.000 F 
ATOM     11  F   UNL     1      -3.641   9.499  16.008  0.00  0.00    +0.000 F 
ATOM     12  F   UNL     1      -2.416  11.213  15.479  0.00  0.00    +0.000 F 
ENDBRANCH   4   9
BRANCH   6  13
ATOM     13  C   UNL     1      -6.416  11.524  19.517  0.00  0.00    +0.000 C 
ATOM     14  C   UNL     1      -7.344  12.458  18.733  0.00  0.00    +0.000 C 
ATOM     15  C   UNL     1      -6.874  10.067  19.407  0.00  0.00    +0.000 C 
ENDBRANCH   6  13
BRANCH   1  16
ATOM     16  C   UNL     1      -1.915  13.237  20.491  0.00  0.00    +0.000 C 
BRANCH  16  22
ATOM     17  C   UNL     1      -0.081  11.656  21.402  0.00  0.00    +0.000 A 
ATOM     18  O   UNL     1       0.079  10.851  22.486  0.00  0.00    +0.000 OA
ATOM     19  N   UNL     1      -1.009  10.966  23.316  0.00  0.00    +0.000 NA
ATOM     20  C   UNL     1      -1.837  11.833  22.724  0.00  0.00    +0.000 A 
ATOM     21  C   UNL     1      -3.101  12.195  23.409  0.00  0.00    +0.000 C 
ATOM     22  C   UNL     1      -1.312  12.284  21.474  0.00  0.00    +0.000 A 
BRANCH  17  24
ATOM     23  C   UNL     1       1.833  12.970  20.447  0.00  0.00    +0.000 C 
ATOM     24  C   UNL     1       1.036  11.673  20.421  0.00  0.00    +0.000 C 
ENDBRANCH  17  24
ENDBRANCH  16  22
ENDBRANCH   1  16
TORSDOF 5
ENDMDL
MODEL 8
REMARK VINA RESULT:      -7.3      2.573      4.113
REMARK  Name = 
REMARK  9 active torsions:
REMARK  status: ('A' for Active; 'I' for Inactive)
REMARK    1  A    between atoms: C_1  and  C_2
REMARK    2  A    between atoms: C_2  and  C_3
REMARK    3  A    between atoms: C_6  and  C_7
REMARK    4  A    between atoms: C_8  and  C_9
REMARK    5  A    between atoms: C_9  and  N_10
REMARK    6  A    between atoms: C_13  and  C_14
REMARK    7  A    between atoms: N_19  and  C_20
REMARK    8  A    between atoms: C_20  and  C_21
REMARK    9  A    between atoms: C_20  and  C_22
REMARK                            x       y       z     vdW  Elec       q    Type
REMARK                         _______ _______ _______ _____ _____    ______ ____
ROOT
ATOM      1  N   UNL     1       3.711   4.379  17.648  0.00  0.00    +0.000 N 
ATOM      2  C   UNL     1       3.545   5.746  17.480  0.00  0.00    +0.000 A 
ATOM      3  O   UNL     1       4.075   6.374  16.568  0.00  0.00    +0.000 OA
ATOM      4  C   UNL     1       2.700   6.429  18.466  0.00  0.00    +0.000 A 
ATOM      5  C   UNL     1       2.175   5.706  19.464  0.00  0.00    +0.000 A 
ATOM      6  N   UNL     1       2.438   4.362  19.632  0.00  0.00    +0.000 N 
ATOM      7  C   UNL     1       3.292   3.675  18.769  0.00  0.00    +0.000 A 
ATOM      8  O   UNL     1       3.652   2.516  18.984  0.00  0.00    +0.000 OA
ENDROOT
BRANCH   4   9
ATOM      9  C   UNL     1       2.434   7.884  18.311  0.00  0.00    +0.000 C 
ATOM     10  F   UNL     1       1.524   8.237  17.375  0.00  0.00    +0.000 F 
ATOM     11  F   UNL     1       1.994   8.419  19.485  0.00  0.00    +0.000 F 
ATOM     12  F   UNL     1       3.581   8.552  18.008  0.00  0.00    +0.000 F 
ENDBRANCH   4   9
BRANCH   6  13
ATOM     13  C   UNL     1       1.749   3.639  20.731  0.00  0.00    +0.000 C 
ATOM     14  C   UNL     1       0.585   2.791  20.206  0.00  0.00    +0.000 C 
ATOM     15  C   UNL     1       2.698   2.804  21.595  0.00  0.00    +0.000 C 
ENDBRANCH   6  13
BRANCH   1  16
ATOM     16  C   UNL     1       4.447   3.641  16.625  0.00  0.00    +0.000 C 
BRANCH  16  22
ATOM     17  C   UNL     1       6.668   4.761  17.336  0.00  0.00    +0.000 A 
ATOM     18  O   UNL     1       7.746   5.303  16.709  0.00  0.00    +0.000 OA
ATOM     19  N   UNL     1       7.613   5.160  15.349  0.00  0.00    +0.000 NA
ATOM     20  C   UNL     1       6.444   4.542  15.153  0.00  0.00    +0.000 A 
ATOM     21  C   UNL     1       6.034   4.211  13.768  0.00  0.00    +0.000 C 
ATOM     22  C   UNL     1       5.774   4.291  16.390  0.00  0.00    +0.000 A 
BRANCH  17  24
ATOM     23  C   UNL     1       7.710   5.771  19.385  0.00  0.00    +0.000 C 
ATOM     24  C   UNL     1       6.679   4.802  18.822  0.00  0.00    +0.000 C 
ENDBRANCH  17  24
ENDBRANCH  16  22
ENDBRANCH   1  16
TORSDOF 5
ENDMDL
MODEL 9
REMARK VINA RESULT:      -7.3      8.202     10.576
REMARK  Name = 
REMARK  9 active torsions:
REMARK  status: ('A' for Active; 'I' for Inactive)
REMARK    1  A    between atoms: C_1  and  C_2
REMARK    2  A    between atoms: C_2  and  C_3
REMARK    3  A    between atoms: C_6  and  C_7
REMARK    4  A    between atoms: C_8  and  C_9
REMARK    5  A    between atoms: C_9  and  N_10
REMARK    6  A    between atoms: C_13  and  C_14
REMARK    7  A    between atoms: N_19  and  C_20
REMARK    8  A    between atoms: C_20  and  C_21
REMARK    9  A    between atoms: C_20  and  C_22
REMARK                            x       y       z     vdW  Elec       q    Type
REMARK                         _______ _______ _______ _____ _____    ______ ____
ROOT
ATOM      1  N   UNL     1      -2.799  12.500  19.655  0.00  0.00    +0.000 N 
ATOM      2  C   UNL     1      -2.253  11.870  18.547  0.00  0.00    +0.000 A 
ATOM      3  O   UNL     1      -1.068  11.970  18.241  0.00  0.00    +0.000 OA
ATOM      4  C   UNL     1      -3.171  11.070  17.728  0.00  0.00    +0.000 A 
ATOM      5  C   UNL     1      -4.462  11.023  18.083  0.00  0.00    +0.000 A 
ATOM      6  N   UNL     1      -4.972  11.735  19.149  0.00  0.00    +0.000 N 
ATOM      7  C   UNL     1      -4.161  12.570  19.919  0.00  0.00    +0.000 A 
ATOM      8  O   UNL     1      -4.621  13.321  20.781  0.00  0.00    +0.000 OA
ENDROOT
BRANCH   4   9
ATOM      9  C   UNL     1      -2.639  10.322  16.559  0.00  0.00    +0.000 C 
ATOM     10  F   UNL     1      -3.449   9.382  16.021  0.00  0.00    +0.000 F 
ATOM     11  F   UNL     1      -2.328  11.177  15.543  0.00  0.00    +0.000 F 
ATOM     12  F   UNL     1      -1.475   9.693  16.880  0.00  0.00    +0.000 F 
ENDBRANCH   4   9
BRANCH   6  13
ATOM     13  C   UNL     1      -6.404  11.557  19.499  0.00  0.00    +0.000 C 
ATOM     14  C   UNL     1      -7.305  12.474  18.665  0.00  0.00    +0.000 C 
ATOM     15  C   UNL     1      -6.870  10.101  19.421  0.00  0.00    +0.000 C 
ENDBRANCH   6  13
BRANCH   1  16
ATOM     16  C   UNL     1      -1.900  13.209  20.561  0.00  0.00    +0.000 C 
BRANCH  16  22
ATOM     17  C   UNL     1      -1.972  11.900  22.792  0.00  0.00    +0.000 A 
ATOM     18  O   UNL     1      -1.160  11.036  23.456  0.00  0.00    +0.000 OA
ATOM     19  N   UNL     1      -0.044  10.771  22.699  0.00  0.00    +0.000 NA
ATOM     20  C   UNL     1      -0.176  11.490  21.580  0.00  0.00    +0.000 A 
ATOM     21  C   UNL     1       0.870  11.383  20.535  0.00  0.00    +0.000 C 
ATOM     22  C   UNL     1      -1.377  12.263  21.596  0.00  0.00    +0.000 A 
BRANCH  17  24
ATOM     23  C   UNL     1      -3.235  13.659  24.062  0.00  0.00    +0.000 C 
ATOM     24  C   UNL     1      -3.247  12.258  23.466  0.00  0.00    +0.000 C 
ENDBRANCH  17  24
ENDBRANCH  16  22
ENDBRANCH   1  16
TORSDOF 5
ENDMDL
