MODEL 1
REMARK VINA RESULT:      -7.8      0.000      0.000
REMARK  Name = 
REMARK  5 active torsions:
REMARK  status: ('A' for Active; 'I' for Inactive)
REMARK    1  A    between atoms: C_1  and  C_2
REMARK    2  A    between atoms: C_8  and  N_9
REMARK    3  A    between atoms: C_10  and  C_12
REMARK    4  A    between atoms: C_19  and  C_21
REMARK    5  A    between atoms: C_21  and  C_22
REMARK                            x       y       z     vdW  Elec       q    Type
REMARK                         _______ _______ _______ _____ _____    ______ ____
ROOT
ATOM      1  C   UNL     1       2.225   7.672  19.121  0.00  0.00    +0.000 A 
ATOM      2  C   UNL     1       2.136   8.467  17.972  0.00  0.00    +0.000 A 
ATOM      3  C   UNL     1       1.388   9.655  17.988  0.00  0.00    +0.000 A 
ATOM      4  C   UNL     1       0.728  10.053  19.169  0.00  0.00    +0.000 A 
ATOM      5  N   UNL     1      -0.099  11.157  19.326  0.00  0.00    +0.000 NA
ATOM      6  C   UNL     1      -0.497  11.231  20.575  0.00  0.00    +0.000 A 
ATOM      7  N   UNL     1      -1.333  12.231  21.009  0.00  0.00    +0.000 N 
ATOM      8  C   UNL     1      -1.619  12.531  22.325  0.00  0.00    +0.000 C 
ATOM      9  O   UNL     1      -1.165  11.982  23.324  0.00  0.00    +0.000 OA
ATOM     10  S   UNL     1       0.029   9.989  21.607  0.00  0.00    +0.000 S 
ATOM     11  C   UNL     1       0.893   9.274  20.316  0.00  0.00    +0.000 A 
ATOM     12  C   UNL     1       1.649   8.095  20.323  0.00  0.00    +0.000 A 
ATOM     13  H   UNL     1      -1.639  12.849  20.270  0.00  0.00    +0.000 HD
ENDROOT
BRANCH   1  15
ATOM     14  N   UNL     1       2.158   5.360  18.426  0.00  0.00    +0.000 N 
ATOM     15  C   UNL     1       2.854   6.322  19.134  0.00  0.00    +0.000 C 
ATOM     16  O   UNL     1       3.889   6.149  19.764  0.00  0.00    +0.000 OA
ATOM     17  H   UNL     1       1.611   5.704  17.647  0.00  0.00    +0.000 HD
BRANCH  14  25
ATOM     18  C   UNL     1       4.416   4.702  16.540  0.00  0.00    +0.000 C 
ATOM     19  C   UNL     1       3.669   3.694  17.373  0.00  0.00    +0.000 A 
ATOM     20  C   UNL     1       4.122   2.360  17.352  0.00  0.00    +0.000 A 
ATOM     21  C   UNL     1       3.548   1.386  18.172  0.00  0.00    +0.000 A 
ATOM     22  C   UNL     1       2.518   1.726  19.038  0.00  0.00    +0.000 A 
ATOM     23  C   UNL     1       2.070   3.043  19.089  0.00  0.00    +0.000 A 
ATOM     24 CL   UNL     1       0.784   3.425  20.189  0.00  0.00    +0.000 Cl
ATOM     25  C   UNL     1       2.619   4.033  18.249  0.00  0.00    +0.000 A 
ENDBRANCH  14  25
ENDBRANCH   1  15
BRANCH   8  26
ATOM     26  C   UNL     1      -2.570  13.707  22.470  0.00  0.00    +0.000 C 
BRANCH  26  27
ATOM     27  C   UNL     1      -3.974  13.265  22.759  0.00  0.00    +0.000 C 
ATOM     28  C   UNL     1      -5.151  14.150  22.433  0.00  0.00    +0.000 C 
ATOM     29  C   UNL     1      -4.904  12.905  21.629  0.00  0.00    +0.000 C 
ENDBRANCH  26  27
ENDBRANCH   8  26
TORSDOF 4
ENDMDL
MODEL 2
REMARK VINA RESULT:      -7.8      2.235      2.953
REMARK  Name = 
REMARK  5 active torsions:
REMARK  status: ('A' for Active; 'I' for Inactive)
REMARK    1  A    between atoms: C_1  and  C_2
REMARK    2  A    between atoms: C_8  and  N_9
REMARK    3  A    between atoms: C_10  and  C_12
REMARK    4  A    between atoms: C_19  and  C_21
REMARK    5  A    between atoms: C_21  and  C_22
REMARK                            x       y       z     vdW  Elec       q    Type
REMARK                         _______ _______ _______ _____ _____    ______ ____
ROOT
ATOM      1  C   UNL     1       2.385   7.566  18.929  0.00  0.00    +0.000 A 
ATOM      2  C   UNL     1       2.177   6.747  20.044  0.00  0.00    +0.000 A 
ATOM      3  C   UNL     1       1.432   7.213  21.139  0.00  0.00    +0.000 A 
ATOM      4  C   UNL     1       0.884   8.512  21.112  0.00  0.00    +0.000 A 
ATOM      5  N   UNL     1       0.184   9.140  22.133  0.00  0.00    +0.000 NA
ATOM      6  C   UNL     1      -0.209  10.326  21.730  0.00  0.00    +0.000 A 
ATOM      7  N   UNL     1      -0.922  11.167  22.548  0.00  0.00    +0.000 N 
ATOM      8  C   UNL     1      -1.574  12.318  22.153  0.00  0.00    +0.000 C 
ATOM      9  O   UNL     1      -1.651  12.771  21.015  0.00  0.00    +0.000 OA
ATOM     10  S   UNL     1       0.264  10.783  20.164  0.00  0.00    +0.000 S 
ATOM     11  C   UNL     1       1.050   9.278  19.956  0.00  0.00    +0.000 A 
ATOM     12  C   UNL     1       1.777   8.823  18.849  0.00  0.00    +0.000 A 
ATOM     13  H   UNL     1      -1.056  10.804  23.481  0.00  0.00    +0.000 HD
ENDROOT
BRANCH   1  15
ATOM     14  N   UNL     1       4.143   6.145  18.078  0.00  0.00    +0.000 N 
ATOM     15  C   UNL     1       3.301   7.207  17.810  0.00  0.00    +0.000 C 
ATOM     16  O   UNL     1       3.271   7.864  16.777  0.00  0.00    +0.000 OA
ATOM     17  H   UNL     1       3.788   5.464  18.738  0.00  0.00    +0.000 HD
BRANCH  14  25
ATOM     18  C   UNL     1       6.805   7.428  17.478  0.00  0.00    +0.000 C 
ATOM     19  C   UNL     1       6.286   6.174  16.823  0.00  0.00    +0.000 A 
ATOM     20  C   UNL     1       7.145   5.489  15.941  0.00  0.00    +0.000 A 
ATOM     21  C   UNL     1       6.778   4.269  15.371  0.00  0.00    +0.000 A 
ATOM     22  C   UNL     1       5.549   3.700  15.679  0.00  0.00    +0.000 A 
ATOM     23  C   UNL     1       4.694   4.350  16.565  0.00  0.00    +0.000 A 
ATOM     24 CL   UNL     1       3.171   3.602  16.926  0.00  0.00    +0.000 Cl
ATOM     25  C   UNL     1       5.037   5.596  17.128  0.00  0.00    +0.000 A 
ENDBRANCH  14  25
ENDBRANCH   1  15
BRANCH   8  26
ATOM     26  C   UNL     1      -2.285  13.018  23.300  0.00  0.00    +0.000 C 
BRANCH  26  27
ATOM     27  C   UNL     1      -3.737  12.651  23.371  0.00  0.00    +0.000 C 
ATOM     28  C   UNL     1      -4.417  12.419  24.697  0.00  0.00    +0.000 C 
ATOM     29  C   UNL     1      -4.746  13.642  23.890  0.00  0.00    +0.000 C 
ENDBRANCH  26  27
ENDBRANCH   8  26
TORSDOF 4
ENDMDL
MODEL 3
REMARK VINA RESULT:      -7.6      3.181     10.102
REMARK  Name = 
REMARK  5 active torsions:
REMARK  status: ('A' for Active; 'I' for Inactive)
REMARK    1  A    between atoms: C_1  and  C_2
REMARK    2  A    between atoms: C_8  and  N_9
REMARK    3  A    between atoms: C_10  and  C_12
REMARK    4  A    between atoms: C_19  and  C_21
REMARK    5  A    between atoms: C_21  and  C_22
REMARK                            x       y       z     vdW  Elec       q    Type
REMARK                         _______ _______ _______ _____ _____    ______ ____
ROOT
ATOM      1  C   UNL     1       1.582   7.929  20.126  0.00  0.00    +0.000 A 
ATOM      2  C   UNL     1       1.547   6.689  20.774  0.00  0.00    +0.000 A 
ATOM      3  C   UNL     1       2.198   5.578  20.216  0.00  0.00    +0.000 A 
ATOM      4  C   UNL     1       2.899   5.713  18.999  0.00  0.00    +0.000 A 
ATOM      5  N   UNL     1       3.533   4.703  18.290  0.00  0.00    +0.000 NA
ATOM      6  C   UNL     1       4.115   5.212  17.229  0.00  0.00    +0.000 A 
ATOM      7  N   UNL     1       4.815   4.430  16.343  0.00  0.00    +0.000 N 
ATOM      8  C   UNL     1       5.646   4.889  15.341  0.00  0.00    +0.000 C 
ATOM      9  O   UNL     1       5.921   6.057  15.086  0.00  0.00    +0.000 OA
ATOM     10  S   UNL     1       3.903   6.879  16.982  0.00  0.00    +0.000 S 
ATOM     11  C   UNL     1       2.974   6.979  18.414  0.00  0.00    +0.000 A 
ATOM     12  C   UNL     1       2.343   8.102  18.965  0.00  0.00    +0.000 A 
ATOM     13  H   UNL     1       4.784   3.445  16.564  0.00  0.00    +0.000 HD
ENDROOT
BRANCH   1  15
ATOM     14  N   UNL     1       0.648  10.095  19.611  0.00  0.00    +0.000 N 
ATOM     15  C   UNL     1       0.779   9.105  20.565  0.00  0.00    +0.000 C 
ATOM     16  O   UNL     1       0.326   9.131  21.702  0.00  0.00    +0.000 OA
ATOM     17  H   UNL     1       0.682   9.781  18.649  0.00  0.00    +0.000 HD
BRANCH  14  25
ATOM     18  C   UNL     1       1.766  12.569  20.924  0.00  0.00    +0.000 C 
ATOM     19  C   UNL     1       0.357  12.429  20.408  0.00  0.00    +0.000 A 
ATOM     20  C   UNL     1      -0.471  13.568  20.445  0.00  0.00    +0.000 A 
ATOM     21  C   UNL     1      -1.755  13.551  19.896  0.00  0.00    +0.000 A 
ATOM     22  C   UNL     1      -2.234  12.398  19.288  0.00  0.00    +0.000 A 
ATOM     23  C   UNL     1      -1.423  11.268  19.222  0.00  0.00    +0.000 A 
ATOM     24 CL   UNL     1      -2.060   9.851  18.449  0.00  0.00    +0.000 Cl
ATOM     25  C   UNL     1      -0.136  11.260  19.796  0.00  0.00    +0.000 A 
ENDBRANCH  14  25
ENDBRANCH   1  15
BRANCH   8  26
ATOM     26  C   UNL     1       6.286   3.765  14.543  0.00  0.00    +0.000 C 
BRANCH  26  27
ATOM     27  C   UNL     1       6.184   3.995  13.064  0.00  0.00    +0.000 C 
ATOM     28  C   UNL     1       6.275   2.847  12.091  0.00  0.00    +0.000 C 
ATOM     29  C   UNL     1       4.961   3.544  12.308  0.00  0.00    +0.000 C 
ENDBRANCH  26  27
ENDBRANCH   8  26
TORSDOF 4
ENDMDL
MODEL 4
REMARK VINA RESULT:      -7.5      1.520      1.904
REMARK  Name = 
REMARK  5 active torsions:
REMARK  status: ('A' for Active; 'I' for Inactive)
REMARK    1  A    between atoms: C_1  and  C_2
REMARK    2  A    between atoms: C_8  and  N_9
REMARK    3  A    between atoms: C_10  and  C_12
REMARK    4  A    between atoms: C_19  and  C_21
REMARK    5  A    between atoms: C_21  and  C_22
REMARK                            x       y       z     vdW  Elec       q    Type
REMARK                         _______ _______ _______ _____ _____    ______ ____
ROOT
ATOM      1  C   UNL     1       2.340   7.720  18.621  0.00  0.00    +0.000 A 
ATOM      2  C   UNL     1       2.383   8.778  17.706  0.00  0.00    +0.000 A 
ATOM      3  C   UNL     1       1.714   9.982  17.979  0.00  0.00    +0.000 A 
ATOM      4  C   UNL     1       1.000  10.129  19.186  0.00  0.00    +0.000 A 
ATOM      5  N   UNL     1       0.237  11.222  19.572  0.00  0.00    +0.000 NA
ATOM      6  C   UNL     1      -0.242  11.019  20.778  0.00  0.00    +0.000 A 
ATOM      7  N   UNL     1      -1.040  11.945  21.404  0.00  0.00    +0.000 N 
ATOM      8  C   UNL     1      -1.397  11.934  22.737  0.00  0.00    +0.000 C 
ATOM      9  O   UNL     1      -1.051  11.121  23.589  0.00  0.00    +0.000 OA
ATOM     10  S   UNL     1       0.129   9.523  21.492  0.00  0.00    +0.000 S 
ATOM     11  C   UNL     1       1.034   9.081  20.109  0.00  0.00    +0.000 A 
ATOM     12  C   UNL     1       1.709   7.879  19.860  0.00  0.00    +0.000 A 
ATOM     13  H   UNL     1      -1.253  12.747  20.829  0.00  0.00    +0.000 HD
ENDROOT
BRANCH   1  15
ATOM     14  N   UNL     1       2.654   5.432  19.325  0.00  0.00    +0.000 N 
ATOM     15  C   UNL     1       2.878   6.362  18.329  0.00  0.00    +0.000 C 
ATOM     16  O   UNL     1       3.481   6.169  17.281  0.00  0.00    +0.000 OA
ATOM     17  H   UNL     1       1.825   5.586  19.887  0.00  0.00    +0.000 HD
BRANCH  14  25
ATOM     18  C   UNL     1       0.612   3.289  18.752  0.00  0.00    +0.000 C 
ATOM     19  C   UNL     1       2.085   3.043  18.953  0.00  0.00    +0.000 A 
ATOM     20  C   UNL     1       2.565   1.733  18.758  0.00  0.00    +0.000 A 
ATOM     21  C   UNL     1       3.929   1.442  18.827  0.00  0.00    +0.000 A 
ATOM     22  C   UNL     1       4.843   2.455  19.081  0.00  0.00    +0.000 A 
ATOM     23  C   UNL     1       4.391   3.761  19.256  0.00  0.00    +0.000 A 
ATOM     24 CL   UNL     1       5.568   4.997  19.566  0.00  0.00    +0.000 Cl
ATOM     25  C   UNL     1       3.016   4.067  19.217  0.00  0.00    +0.000 A 
ENDBRANCH  14  25
ENDBRANCH   1  15
BRANCH   8  26
ATOM     26  C   UNL     1      -2.279  13.110  23.122  0.00  0.00    +0.000 C 
BRANCH  26  27
ATOM     27  C   UNL     1      -3.715  12.710  23.282  0.00  0.00    +0.000 C 
ATOM     28  C   UNL     1      -4.310  12.479  24.648  0.00  0.00    +0.000 C 
ATOM     29  C   UNL     1      -4.716  13.684  23.849  0.00  0.00    +0.000 C 
ENDBRANCH  26  27
ENDBRANCH   8  26
TORSDOF 4
ENDMDL
MODEL 5
REMARK VINA RESULT:      -7.5      3.107      9.969
REMARK  Name = 
REMARK  5 active torsions:
REMARK  status: ('A' for Active; 'I' for Inactive)
REMARK    1  A    between atoms: C_1  and  C_2
REMARK    2  A    between atoms: C_8  and  N_9
REMARK    3  A    between atoms: C_10  and  C_12
REMARK    4  A    between atoms: C_19  and  C_21
REMARK    5  A    between atoms: C_21  and  C_22
REMARK                            x       y       z     vdW  Elec       q    Type
REMARK                         _______ _______ _______ _____ _____    ______ ____
ROOT
ATOM      1  C   UNL     1       1.410   7.111  20.462  0.00  0.00    +0.000 A 
ATOM      2  C   UNL     1       1.575   5.836  21.014  0.00  0.00    +0.000 A 
ATOM      3  C   UNL     1       2.400   4.890  20.385  0.00  0.00    +0.000 A 
ATOM      4  C   UNL     1       3.073   5.230  19.193  0.00  0.00    +0.000 A 
ATOM      5  N   UNL     1       3.866   4.393  18.420  0.00  0.00    +0.000 NA
ATOM      6  C   UNL     1       4.362   5.070  17.409  0.00  0.00    +0.000 A 
ATOM      7  N   UNL     1       5.182   4.482  16.479  0.00  0.00    +0.000 N 
ATOM      8  C   UNL     1       5.931   5.145  15.527  0.00  0.00    +0.000 C 
ATOM      9  O   UNL     1       6.013   6.358  15.365  0.00  0.00    +0.000 OA
ATOM     10  S   UNL     1       3.882   6.695  17.285  0.00  0.00    +0.000 S 
ATOM     11  C   UNL     1       2.944   6.533  18.706  0.00  0.00    +0.000 A 
ATOM     12  C   UNL     1       2.137   7.493  19.330  0.00  0.00    +0.000 A 
ATOM     13  H   UNL     1       5.311   3.491  16.625  0.00  0.00    +0.000 HD
ENDROOT
BRANCH   1  15
ATOM     14  N   UNL     1       0.830   9.421  20.863  0.00  0.00    +0.000 N 
ATOM     15  C   UNL     1       0.425   8.104  20.975  0.00  0.00    +0.000 C 
ATOM     16  O   UNL     1      -0.624   7.709  21.466  0.00  0.00    +0.000 OA
ATOM     17  H   UNL     1       1.462   9.618  20.097  0.00  0.00    +0.000 HD
BRANCH  14  25
ATOM     18  C   UNL     1      -0.283  11.309  18.793  0.00  0.00    +0.000 C 
ATOM     19  C   UNL     1      -0.517  11.423  20.277  0.00  0.00    +0.000 A 
ATOM     20  C   UNL     1      -1.403  12.422  20.727  0.00  0.00    +0.000 A 
ATOM     21  C   UNL     1      -1.751  12.530  22.075  0.00  0.00    +0.000 A 
ATOM     22  C   UNL     1      -1.229  11.636  23.000  0.00  0.00    +0.000 A 
ATOM     23  C   UNL     1      -0.368  10.628  22.573  0.00  0.00    +0.000 A 
ATOM     24 CL   UNL     1       0.256   9.530  23.761  0.00  0.00    +0.000 Cl
ATOM     25  C   UNL     1       0.015  10.522  21.220  0.00  0.00    +0.000 A 
ENDBRANCH  14  25
ENDBRANCH   1  15
BRANCH   8  26
ATOM     26  C   UNL     1       6.747   4.203  14.657  0.00  0.00    +0.000 C 
BRANCH  26  27
ATOM     27  C   UNL     1       6.387   4.323  13.205  0.00  0.00    +0.000 C 
ATOM     28  C   UNL     1       6.496   3.139  12.278  0.00  0.00    +0.000 C 
ATOM     29  C   UNL     1       5.143   3.659  12.675  0.00  0.00    +0.000 C 
ENDBRANCH  26  27
ENDBRANCH   8  26
TORSDOF 4
ENDMDL
MODEL 6
REMARK VINA RESULT:      -7.5      3.474     10.379
REMARK  Name = 
REMARK  5 active torsions:
REMARK  status: ('A' for Active; 'I' for Inactive)
REMARK    1  A    between atoms: C_1  and  C_2
REMARK    2  A    between atoms: C_8  and  N_9
REMARK    3  A    between atoms: C_10  and  C_12
REMARK    4  A    between atoms: C_19  and  C_21
REMARK    5  A    between atoms: C_21  and  C_22
REMARK                            x       y       z     vdW  Elec       q    Type
REMARK                         _______ _______ _______ _____ _____    ______ ____
ROOT
ATOM      1  C   UNL     1       1.472   8.578  19.717  0.00  0.00    +0.000 A 
ATOM      2  C   UNL     1       1.521   7.448  20.542  0.00  0.00    +0.000 A 
ATOM      3  C   UNL     1       2.226   6.303  20.138  0.00  0.00    +0.000 A 
ATOM      4  C   UNL     1       2.895   6.293  18.896  0.00  0.00    +0.000 A 
ATOM      5  N   UNL     1       3.574   5.225  18.328  0.00  0.00    +0.000 NA
ATOM      6  C   UNL     1       4.106   5.601  17.187  0.00  0.00    +0.000 A 
ATOM      7  N   UNL     1       4.833   4.734  16.409  0.00  0.00    +0.000 N 
ATOM      8  C   UNL     1       5.618   5.083  15.328  0.00  0.00    +0.000 C 
ATOM      9  O   UNL     1       5.819   6.213  14.894  0.00  0.00    +0.000 OA
ATOM     10  S   UNL     1       3.792   7.198  16.702  0.00  0.00    +0.000 S 
ATOM     11  C   UNL     1       2.885   7.459  18.128  0.00  0.00    +0.000 A 
ATOM     12  C   UNL     1       2.200   8.616  18.523  0.00  0.00    +0.000 A 
ATOM     13  H   UNL     1       4.865   3.793  16.775  0.00  0.00    +0.000 HD
ENDROOT
BRANCH   1  15
ATOM     14  N   UNL     1       1.005  10.508  21.089  0.00  0.00    +0.000 N 
ATOM     15  C   UNL     1       0.610   9.760  19.998  0.00  0.00    +0.000 C 
ATOM     16  O   UNL     1      -0.367   9.970  19.290  0.00  0.00    +0.000 OA
ATOM     17  H   UNL     1       1.996  10.489  21.295  0.00  0.00    +0.000 HD
BRANCH  14  25
ATOM     18  C   UNL     1      -1.154  10.547  23.194  0.00  0.00    +0.000 C 
ATOM     19  C   UNL     1      -0.644  11.761  22.461  0.00  0.00    +0.000 A 
ATOM     20  C   UNL     1      -1.133  13.021  22.857  0.00  0.00    +0.000 A 
ATOM     21  C   UNL     1      -0.638  14.201  22.298  0.00  0.00    +0.000 A 
ATOM     22  C   UNL     1       0.365  14.147  21.339  0.00  0.00    +0.000 A 
ATOM     23  C   UNL     1       0.877  12.912  20.949  0.00  0.00    +0.000 A 
ATOM     24 CL   UNL     1       2.133  12.892  19.753  0.00  0.00    +0.000 Cl
ATOM     25  C   UNL     1       0.370  11.711  21.484  0.00  0.00    +0.000 A 
ENDBRANCH  14  25
ENDBRANCH   1  15
BRANCH   8  26
ATOM     26  C   UNL     1       6.307   3.889  14.688  0.00  0.00    +0.000 C 
BRANCH  26  27
ATOM     27  C   UNL     1       6.333   3.988  13.192  0.00  0.00    +0.000 C 
ATOM     28  C   UNL     1       6.321   2.751  12.330  0.00  0.00    +0.000 C 
ATOM     29  C   UNL     1       5.109   3.636  12.386  0.00  0.00    +0.000 C 
ENDBRANCH  26  27
ENDBRANCH   8  26
TORSDOF 4
ENDMDL
MODEL 7
REMARK VINA RESULT:      -7.5      3.236     10.192
REMARK  Name = 
REMARK  5 active torsions:
REMARK  status: ('A' for Active; 'I' for Inactive)
REMARK    1  A    between atoms: C_1  and  C_2
REMARK    2  A    between atoms: C_8  and  N_9
REMARK    3  A    between atoms: C_10  and  C_12
REMARK    4  A    between atoms: C_19  and  C_21
REMARK    5  A    between atoms: C_21  and  C_22
REMARK                            x       y       z     vdW  Elec       q    Type
REMARK                         _______ _______ _______ _____ _____    ______ ____
ROOT
ATOM      1  C   UNL     1       1.463   8.399  19.830  0.00  0.00    +0.000 A 
ATOM      2  C   UNL     1       1.489   7.236  20.608  0.00  0.00    +0.000 A 
ATOM      3  C   UNL     1       2.188   6.102  20.167  0.00  0.00    +0.000 A 
ATOM      4  C   UNL     1       2.876   6.136  18.936  0.00  0.00    +0.000 A 
ATOM      5  N   UNL     1       3.553   5.085  18.334  0.00  0.00    +0.000 NA
ATOM      6  C   UNL     1       4.105   5.502  17.218  0.00  0.00    +0.000 A 
ATOM      7  N   UNL     1       4.836   4.661  16.415  0.00  0.00    +0.000 N 
ATOM      8  C   UNL     1       5.640   5.046  15.361  0.00  0.00    +0.000 C 
ATOM      9  O   UNL     1       5.858   6.191  14.978  0.00  0.00    +0.000 OA
ATOM     10  S   UNL     1       3.814   7.121  16.794  0.00  0.00    +0.000 S 
ATOM     11  C   UNL     1       2.889   7.333  18.217  0.00  0.00    +0.000 A 
ATOM     12  C   UNL     1       2.210   8.479  18.649  0.00  0.00    +0.000 A 
ATOM     13  H   UNL     1       4.852   3.705  16.741  0.00  0.00    +0.000 HD
ENDROOT
BRANCH   1  15
ATOM     14  N   UNL     1       1.080  10.364  21.181  0.00  0.00    +0.000 N 
ATOM     15  C   UNL     1       0.609   9.578  20.147  0.00  0.00    +0.000 C 
ATOM     16  O   UNL     1      -0.426   9.755  19.517  0.00  0.00    +0.000 OA
ATOM     17  H   UNL     1       2.085  10.364  21.304  0.00  0.00    +0.000 HD
BRANCH  14  25
ATOM     18  C   UNL     1       1.722  13.003  19.873  0.00  0.00    +0.000 C 
ATOM     19  C   UNL     1       0.742  12.817  21.002  0.00  0.00    +0.000 A 
ATOM     20  C   UNL     1      -0.008  13.938  21.413  0.00  0.00    +0.000 A 
ATOM     21  C   UNL     1      -1.006  13.827  22.383  0.00  0.00    +0.000 A 
ATOM     22  C   UNL     1      -1.284  12.594  22.956  0.00  0.00    +0.000 A 
ATOM     23  C   UNL     1      -0.568  11.470  22.550  0.00  0.00    +0.000 A 
ATOM     24 CL   UNL     1      -0.951   9.948  23.288  0.00  0.00    +0.000 Cl
ATOM     25  C   UNL     1       0.461  11.569  21.591  0.00  0.00    +0.000 A 
ENDBRANCH  14  25
ENDBRANCH   1  15
BRANCH   8  26
ATOM     26  C   UNL     1       6.326   3.872  14.682  0.00  0.00    +0.000 C 
BRANCH  26  27
ATOM     27  C   UNL     1       6.307   3.995  13.187  0.00  0.00    +0.000 C 
ATOM     28  C   UNL     1       6.258   2.771  12.307  0.00  0.00    +0.000 C 
ATOM     29  C   UNL     1       5.056   3.666  12.415  0.00  0.00    +0.000 C 
ENDBRANCH  26  27
ENDBRANCH   8  26
TORSDOF 4
ENDMDL
MODEL 8
REMARK VINA RESULT:      -7.4      3.330     10.162
REMARK  Name = 
REMARK  5 active torsions:
REMARK  status: ('A' for Active; 'I' for Inactive)
REMARK    1  A    between atoms: C_1  and  C_2
REMARK    2  A    between atoms: C_8  and  N_9
REMARK    3  A    between atoms: C_10  and  C_12
REMARK    4  A    between atoms: C_19  and  C_21
REMARK    5  A    between atoms: C_21  and  C_22
REMARK                            x       y       z     vdW  Elec       q    Type
REMARK                         _______ _______ _______ _____ _____    ______ ____
ROOT
ATOM      1  C   UNL     1       1.547   8.015  20.022  0.00  0.00    +0.000 A 
ATOM      2  C   UNL     1       1.584   6.810  20.733  0.00  0.00    +0.000 A 
ATOM      3  C   UNL     1       2.282   5.705  20.220  0.00  0.00    +0.000 A 
ATOM      4  C   UNL     1       2.955   5.811  18.986  0.00  0.00    +0.000 A 
ATOM      5  N   UNL     1       3.628   4.798  18.318  0.00  0.00    +0.000 NA
ATOM      6  C   UNL     1       4.167   5.280  17.221  0.00  0.00    +0.000 A 
ATOM      7  N   UNL     1       4.891   4.488  16.364  0.00  0.00    +0.000 N 
ATOM      8  C   UNL     1       5.682   4.935  15.325  0.00  0.00    +0.000 C 
ATOM      9  O   UNL     1       5.894   6.100  15.005  0.00  0.00    +0.000 OA
ATOM     10  S   UNL     1       3.867   6.919  16.893  0.00  0.00    +0.000 S 
ATOM     11  C   UNL     1       2.957   7.047  18.336  0.00  0.00    +0.000 A 
ATOM     12  C   UNL     1       2.280   8.165  18.840  0.00  0.00    +0.000 A 
ATOM     13  H   UNL     1       4.914   3.515  16.635  0.00  0.00    +0.000 HD
ENDROOT
BRANCH   1  15
ATOM     14  N   UNL     1       0.581  10.153  19.449  0.00  0.00    +0.000 N 
ATOM     15  C   UNL     1       0.693   9.171  20.415  0.00  0.00    +0.000 C 
ATOM     16  O   UNL     1       0.186   9.191  21.529  0.00  0.00    +0.000 OA
ATOM     17  H   UNL     1       0.669   9.834  18.492  0.00  0.00    +0.000 HD
BRANCH  14  25
ATOM     18  C   UNL     1      -2.272  10.187  18.474  0.00  0.00    +0.000 C 
ATOM     19  C   UNL     1      -1.576  11.344  19.141  0.00  0.00    +0.000 A 
ATOM     20  C   UNL     1      -2.340  12.494  19.426  0.00  0.00    +0.000 A 
ATOM     21  C   UNL     1      -1.797  13.570  20.131  0.00  0.00    +0.000 A 
ATOM     22  C   UNL     1      -0.483  13.516  20.576  0.00  0.00    +0.000 A 
ATOM     23  C   UNL     1       0.283  12.381  20.323  0.00  0.00    +0.000 A 
ATOM     24 CL   UNL     1       1.917  12.353  20.902  0.00  0.00    +0.000 Cl
ATOM     25  C   UNL     1      -0.241  11.297  19.589  0.00  0.00    +0.000 A 
ENDBRANCH  14  25
ENDBRANCH   1  15
BRANCH   8  26
ATOM     26  C   UNL     1       6.364   3.804  14.573  0.00  0.00    +0.000 C 
BRANCH  26  27
ATOM     27  C   UNL     1       6.276   3.981  13.086  0.00  0.00    +0.000 C 
ATOM     28  C   UNL     1       6.260   2.790  12.161  0.00  0.00    +0.000 C 
ATOM     29  C   UNL     1       5.015   3.610  12.350  0.00  0.00    +0.000 C 
ENDBRANCH  26  27
ENDBRANCH   8  26
TORSDOF 4
ENDMDL
MODEL 9
REMARK VINA RESULT:      -7.4      2.857     10.587
REMARK  Name = 
REMARK  5 active torsions:
REMARK  status: ('A' for Active; 'I' for Inactive)
REMARK    1  A    between atoms: C_1  and  C_2
REMARK    2  A    between atoms: C_8  and  N_9
REMARK    3  A    between atoms: C_10  and  C_12
REMARK    4  A    between atoms: C_19  and  C_21
REMARK    5  A    between atoms: C_21  and  C_22
REMARK                            x       y       z     vdW  Elec       q    Type
REMARK                         _______ _______ _______ _____ _____    ______ ____
ROOT
ATOM      1  C   UNL     1      -1.270  11.656  22.043  0.00  0.00    +0.000 A 
ATOM      2  C   UNL     1      -1.030  10.818  23.138  0.00  0.00    +0.000 A 
ATOM      3  C   UNL     1      -0.248   9.662  22.990  0.00  0.00    +0.000 A 
ATOM      4  C   UNL     1       0.306   9.347  21.732  0.00  0.00    +0.000 A 
ATOM      5  N   UNL     1       1.041   8.214  21.410  0.00  0.00    +0.000 NA
ATOM      6  C   UNL     1       1.428   8.286  20.157  0.00  0.00    +0.000 A 
ATOM      7  N   UNL     1       2.171   7.290  19.572  0.00  0.00    +0.000 N 
ATOM      8  C   UNL     1       2.816   7.372  18.354  0.00  0.00    +0.000 C 
ATOM      9  O   UNL     1       2.859   8.342  17.604  0.00  0.00    +0.000 OA
ATOM     10  S   UNL     1       0.907   9.648  19.286  0.00  0.00    +0.000 S 
ATOM     11  C   UNL     1       0.107  10.239  20.677  0.00  0.00    +0.000 A 
ATOM     12  C   UNL     1      -0.658  11.405  20.810  0.00  0.00    +0.000 A 
ATOM     13  H   UNL     1       2.333   6.499  20.178  0.00  0.00    +0.000 HD
ENDROOT
BRANCH   1  15
ATOM     14  N   UNL     1      -3.272  12.641  22.966  0.00  0.00    +0.000 N 
ATOM     15  C   UNL     1      -2.223  12.801  22.081  0.00  0.00    +0.000 C 
ATOM     16  O   UNL     1      -2.040  13.758  21.340  0.00  0.00    +0.000 OA
ATOM     17  H   UNL     1      -3.077  12.061  23.772  0.00  0.00    +0.000 HD
BRANCH  14  25
ATOM     18  C   UNL     1      -2.804  14.864  24.949  0.00  0.00    +0.000 C 
ATOM     19  C   UNL     1      -4.058  14.687  24.134  0.00  0.00    +0.000 A 
ATOM     20  C   UNL     1      -5.046  15.688  24.223  0.00  0.00    +0.000 A 
ATOM     21  C   UNL     1      -6.192  15.650  23.426  0.00  0.00    +0.000 A 
ATOM     22  C   UNL     1      -6.370  14.618  22.515  0.00  0.00    +0.000 A 
ATOM     23  C   UNL     1      -5.396  13.631  22.395  0.00  0.00    +0.000 A 
ATOM     24 CL   UNL     1      -5.656  12.363  21.240  0.00  0.00    +0.000 Cl
ATOM     25  C   UNL     1      -4.246  13.639  23.211  0.00  0.00    +0.000 A 
ENDBRANCH  14  25
ENDBRANCH   1  15
BRANCH   8  26
ATOM     26  C   UNL     1       3.567   6.100  17.997  0.00  0.00    +0.000 C 
BRANCH  26  27
ATOM     27  C   UNL     1       2.655   4.913  17.907  0.00  0.00    +0.000 C 
ATOM     28  C   UNL     1       3.102   3.638  17.236  0.00  0.00    +0.000 C 
ATOM     29  C   UNL     1       2.931   3.679  18.728  0.00  0.00    +0.000 C 
ENDBRANCH  26  27
ENDBRANCH   8  26
TORSDOF 4
ENDMDL
