MODEL 1
REMARK VINA RESULT:      -7.6      0.000      0.000
REMARK  Name = 
REMARK  12 active torsions:
REMARK  status: ('A' for Active; 'I' for Inactive)
REMARK    1  A    between atoms: C_1  and  O_2
REMARK    2  A    between atoms: O_2  and  C_3
REMARK    3  A    between atoms: C_6  and  C_7
REMARK    4  A    between atoms: C_7  and  C_8
REMARK    5  A    between atoms: C_8  and  C_9
REMARK    6  A    between atoms: C_9  and  C_10
REMARK    7  A    between atoms: C_10  and  N_11
REMARK    8  A    between atoms: N_11  and  C_12
REMARK    9  A    between atoms: C_12  and  C_13
REMARK   10  A    between atoms: C_13  and  O_14
REMARK   11  A    between atoms: O_14  and  C_15
REMARK   12  A    between atoms: C_25  and  O_26
REMARK                            x       y       z     vdW  Elec       q    Type
REMARK                         _______ _______ _______ _____ _____    ______ ____
ROOT
ATOM      1  C   UNL     1       7.255   5.189  17.594  0.00  0.00    +0.000 C 
ENDROOT
BRANCH   1   2
ATOM      2  N   UNL     1       7.998   5.681  18.768  0.00  0.00    +0.000 NA
ATOM      3  H   UNL     1       7.502   5.396  19.613  0.00  0.00    +0.000 HD
BRANCH   2   4
ATOM      4  C   UNL     1       8.241   7.128  18.826  0.00  0.00    +0.000 C 
BRANCH   4   5
ATOM      5  C   UNL     1       7.730   7.922  17.612  0.00  0.00    +0.000 C 
BRANCH   5   6
ATOM      6  C   UNL     1       8.117   9.409  17.691  0.00  0.00    +0.000 C 
BRANCH   6   7
ATOM      7  C   UNL     1       8.976   9.684  18.932  0.00  0.00    +0.000 C 
BRANCH   7  11
ATOM      8  C   UNL     1      11.066  13.481  18.824  0.00  0.00    +0.000 A 
ATOM      9  C   UNL     1      10.206  13.175  19.880  0.00  0.00    +0.000 A 
ATOM     10  C   UNL     1       9.524  11.951  19.917  0.00  0.00    +0.000 A 
ATOM     11  C   UNL     1       9.689  11.022  18.879  0.00  0.00    +0.000 A 
ATOM     12  C   UNL     1      10.529  11.352  17.802  0.00  0.00    +0.000 A 
ATOM     13  C   UNL     1      11.211  12.577  17.773  0.00  0.00    +0.000 A 
BRANCH   8  15
ATOM     14  C   UNL     1      11.582  15.365  20.157  0.00  0.00    +0.000 C 
ATOM     15  O   UNL     1      11.676  14.703  18.902  0.00  0.00    +0.000 OA
ENDBRANCH   8  15
ENDBRANCH   7  11
ENDBRANCH   6   7
ENDBRANCH   5   6
ENDBRANCH   4   5
ENDBRANCH   2   4
ENDBRANCH   1   2
BRANCH   1  16
ATOM     16  C   UNL     1       6.092   4.192  17.835  0.00  0.00    +0.000 C 
BRANCH  16  17
ATOM     17  O   UNL     1       5.504   4.309  19.155  0.00  0.00    +0.000 OA
BRANCH  17  18
ATOM     18  C   UNL     1       4.178   4.679  19.098  0.00  0.00    +0.000 A 
ATOM     19  C   UNL     1       3.904   6.027  18.965  0.00  0.00    +0.000 A 
ATOM     20  C   UNL     1       2.746   6.515  19.564  0.00  0.00    +0.000 A 
ATOM     21  F   UNL     1       2.399   7.795  19.384  0.00  0.00    +0.000 F 
ATOM     22  C   UNL     1       1.966   5.705  20.398  0.00  0.00    +0.000 A 
ATOM     23  C   UNL     1       2.202   4.336  20.414  0.00  0.00    +0.000 A 
ATOM     24  C   UNL     1       3.132   3.859  19.501  0.00  0.00    +0.000 A 
ATOM     25  O   UNL     1       2.669   2.875  18.622  0.00  0.00    +0.000 OA
ATOM     26  C   UNL     1       1.206   2.844  18.630  0.00  0.00    +0.000 C 
ATOM     27  C   UNL     1       0.756   2.364  20.005  0.00  0.00    +0.000 C 
ATOM     28  C   UNL     1       1.340   3.298  21.075  0.00  0.00    +0.000 C 
BRANCH  28  29
ATOM     29  O   UNL     1       2.160   2.526  21.959  0.00  0.00    +0.000 OA
ATOM     30  H   UNL     1       2.634   1.853  21.416  0.00  0.00    +0.000 HD
ENDBRANCH  28  29
ENDBRANCH  17  18
ENDBRANCH  16  17
ENDBRANCH   1  16
TORSDOF 11
ENDMDL
MODEL 2
REMARK VINA RESULT:      -7.6      4.510      7.822
REMARK  Name = 
REMARK  12 active torsions:
REMARK  status: ('A' for Active; 'I' for Inactive)
REMARK    1  A    between atoms: C_1  and  O_2
REMARK    2  A    between atoms: O_2  and  C_3
REMARK    3  A    between atoms: C_6  and  C_7
REMARK    4  A    between atoms: C_7  and  C_8
REMARK    5  A    between atoms: C_8  and  C_9
REMARK    6  A    between atoms: C_9  and  C_10
REMARK    7  A    between atoms: C_10  and  N_11
REMARK    8  A    between atoms: N_11  and  C_12
REMARK    9  A    between atoms: C_12  and  C_13
REMARK   10  A    between atoms: C_13  and  O_14
REMARK   11  A    between atoms: O_14  and  C_15
REMARK   12  A    between atoms: C_25  and  O_26
REMARK                            x       y       z     vdW  Elec       q    Type
REMARK                         _______ _______ _______ _____ _____    ______ ____
ROOT
ATOM      1  C   UNL     1       1.722   3.132  17.582  0.00  0.00    +0.000 C 
ENDROOT
BRANCH   1   2
ATOM      2  N   UNL     1       1.425   2.385  18.818  0.00  0.00    +0.000 NA
ATOM      3  H   UNL     1       0.414   2.362  18.953  0.00  0.00    +0.000 HD
BRANCH   2   4
ATOM      4  C   UNL     1       2.057   2.882  20.047  0.00  0.00    +0.000 C 
BRANCH   4   5
ATOM      5  C   UNL     1       1.285   4.000  20.767  0.00  0.00    +0.000 C 
BRANCH   5   6
ATOM      6  C   UNL     1       2.183   5.209  21.083  0.00  0.00    +0.000 C 
BRANCH   6   7
ATOM      7  C   UNL     1       2.575   5.948  19.797  0.00  0.00    +0.000 C 
BRANCH   7  11
ATOM      8  C   UNL     1       0.963   9.968  19.589  0.00  0.00    +0.000 A 
ATOM      9  C   UNL     1       1.563   9.386  18.471  0.00  0.00    +0.000 A 
ATOM     10  C   UNL     1       2.091   8.089  18.534  0.00  0.00    +0.000 A 
ATOM     11  C   UNL     1       2.033   7.364  19.734  0.00  0.00    +0.000 A 
ATOM     12  C   UNL     1       1.459   7.970  20.864  0.00  0.00    +0.000 A 
ATOM     13  C   UNL     1       0.930   9.267  20.793  0.00  0.00    +0.000 A 
BRANCH   8  15
ATOM     14  C   UNL     1      -0.738  11.336  18.680  0.00  0.00    +0.000 C 
ATOM     15  O   UNL     1       0.483  11.235  19.401  0.00  0.00    +0.000 OA
ENDBRANCH   8  15
ENDBRANCH   7  11
ENDBRANCH   6   7
ENDBRANCH   5   6
ENDBRANCH   4   5
ENDBRANCH   2   4
ENDBRANCH   1   2
BRANCH   1  16
ATOM     16  C   UNL     1       3.205   3.455  17.267  0.00  0.00    +0.000 C 
BRANCH  16  17
ATOM     17  O   UNL     1       3.479   4.878  17.203  0.00  0.00    +0.000 OA
BRANCH  17  18
ATOM     18  C   UNL     1       4.734   5.140  16.698  0.00  0.00    +0.000 A 
ATOM     19  C   UNL     1       5.105   4.467  15.549  0.00  0.00    +0.000 A 
ATOM     20  C   UNL     1       6.449   4.143  15.392  0.00  0.00    +0.000 A 
ATOM     21  F   UNL     1       6.862   3.572  14.254  0.00  0.00    +0.000 F 
ATOM     22  C   UNL     1       7.369   4.354  16.426  0.00  0.00    +0.000 A 
ATOM     23  C   UNL     1       6.990   5.133  17.513  0.00  0.00    +0.000 A 
ATOM     24  C   UNL     1       5.747   5.745  17.429  0.00  0.00    +0.000 A 
ATOM     25  O   UNL     1       5.748   7.138  17.557  0.00  0.00    +0.000 OA
ATOM     26  C   UNL     1       7.104   7.657  17.379  0.00  0.00    +0.000 C 
ATOM     27  C   UNL     1       7.948   7.169  18.551  0.00  0.00    +0.000 C 
ATOM     28  C   UNL     1       7.898   5.636  18.600  0.00  0.00    +0.000 C 
BRANCH  28  29
ATOM     29  O   UNL     1       7.355   5.235  19.862  0.00  0.00    +0.000 OA
ATOM     30  H   UNL     1       7.783   5.785  20.560  0.00  0.00    +0.000 HD
ENDBRANCH  28  29
ENDBRANCH  17  18
ENDBRANCH  16  17
ENDBRANCH   1  16
TORSDOF 11
ENDMDL
MODEL 3
REMARK VINA RESULT:      -7.5      1.604      1.878
REMARK  Name = 
REMARK  12 active torsions:
REMARK  status: ('A' for Active; 'I' for Inactive)
REMARK    1  A    between atoms: C_1  and  O_2
REMARK    2  A    between atoms: O_2  and  C_3
REMARK    3  A    between atoms: C_6  and  C_7
REMARK    4  A    between atoms: C_7  and  C_8
REMARK    5  A    between atoms: C_8  and  C_9
REMARK    6  A    between atoms: C_9  and  C_10
REMARK    7  A    between atoms: C_10  and  N_11
REMARK    8  A    between atoms: N_11  and  C_12
REMARK    9  A    between atoms: C_12  and  C_13
REMARK   10  A    between atoms: C_13  and  O_14
REMARK   11  A    between atoms: O_14  and  C_15
REMARK   12  A    between atoms: C_25  and  O_26
REMARK                            x       y       z     vdW  Elec       q    Type
REMARK                         _______ _______ _______ _____ _____    ______ ____
ROOT
ATOM      1  C   UNL     1       6.340   6.188  16.134  0.00  0.00    +0.000 C 
ENDROOT
BRANCH   1   2
ATOM      2  N   UNL     1       7.637   6.679  16.635  0.00  0.00    +0.000 NA
ATOM      3  H   UNL     1       8.254   5.880  16.787  0.00  0.00    +0.000 HD
BRANCH   2   4
ATOM      4  C   UNL     1       7.599   7.489  17.859  0.00  0.00    +0.000 C 
BRANCH   4   5
ATOM      5  C   UNL     1       8.026   8.955  17.681  0.00  0.00    +0.000 C 
BRANCH   5   6
ATOM      6  C   UNL     1       9.178   9.339  18.626  0.00  0.00    +0.000 C 
BRANCH   6   7
ATOM      7  C   UNL     1       8.904  10.690  19.300  0.00  0.00    +0.000 C 
BRANCH   7  11
ATOM      8  C   UNL     1      11.039  14.003  17.495  0.00  0.00    +0.000 A 
ATOM      9  C   UNL     1       9.822  14.214  18.144  0.00  0.00    +0.000 A 
ATOM     10  C   UNL     1       9.125  13.145  18.725  0.00  0.00    +0.000 A 
ATOM     11  C   UNL     1       9.641  11.843  18.646  0.00  0.00    +0.000 A 
ATOM     12  C   UNL     1      10.849  11.634  17.960  0.00  0.00    +0.000 A 
ATOM     13  C   UNL     1      11.543  12.708  17.384  0.00  0.00    +0.000 A 
BRANCH   8  15
ATOM     14  C   UNL     1      10.796  16.274  16.886  0.00  0.00    +0.000 C 
ATOM     15  O   UNL     1      11.625  15.123  16.972  0.00  0.00    +0.000 OA
ENDBRANCH   8  15
ENDBRANCH   7  11
ENDBRANCH   6   7
ENDBRANCH   5   6
ENDBRANCH   4   5
ENDBRANCH   2   4
ENDBRANCH   1   2
BRANCH   1  16
ATOM     16  C   UNL     1       5.341   5.599  17.162  0.00  0.00    +0.000 C 
BRANCH  16  17
ATOM     17  O   UNL     1       4.058   6.275  17.164  0.00  0.00    +0.000 OA
BRANCH  17  18
ATOM     18  C   UNL     1       3.167   5.688  18.035  0.00  0.00    +0.000 A 
ATOM     19  C   UNL     1       2.465   6.526  18.881  0.00  0.00    +0.000 A 
ATOM     20  C   UNL     1       2.130   6.042  20.143  0.00  0.00    +0.000 A 
ATOM     21  F   UNL     1       1.375   6.789  20.957  0.00  0.00    +0.000 F 
ATOM     22  C   UNL     1       2.615   4.810  20.597  0.00  0.00    +0.000 A 
ATOM     23  C   UNL     1       3.213   3.948  19.686  0.00  0.00    +0.000 A 
ATOM     24  C   UNL     1       3.178   4.336  18.353  0.00  0.00    +0.000 A 
ATOM     25  O   UNL     1       2.578   3.430  17.473  0.00  0.00    +0.000 OA
ATOM     26  C   UNL     1       1.796   2.447  18.223  0.00  0.00    +0.000 C 
ATOM     27  C   UNL     1       2.767   1.598  19.035  0.00  0.00    +0.000 C 
ATOM     28  C   UNL     1       3.596   2.518  19.942  0.00  0.00    +0.000 C 
BRANCH  28  29
ATOM     29  O   UNL     1       4.981   2.356  19.616  0.00  0.00    +0.000 OA
ATOM     30  H   UNL     1       5.245   1.442  19.876  0.00  0.00    +0.000 HD
ENDBRANCH  28  29
ENDBRANCH  17  18
ENDBRANCH  16  17
ENDBRANCH   1  16
TORSDOF 11
ENDMDL
MODEL 4
REMARK VINA RESULT:      -7.5      1.386      1.590
REMARK  Name = 
REMARK  12 active torsions:
REMARK  status: ('A' for Active; 'I' for Inactive)
REMARK    1  A    between atoms: C_1  and  O_2
REMARK    2  A    between atoms: O_2  and  C_3
REMARK    3  A    between atoms: C_6  and  C_7
REMARK    4  A    between atoms: C_7  and  C_8
REMARK    5  A    between atoms: C_8  and  C_9
REMARK    6  A    between atoms: C_9  and  C_10
REMARK    7  A    between atoms: C_10  and  N_11
REMARK    8  A    between atoms: N_11  and  C_12
REMARK    9  A    between atoms: C_12  and  C_13
REMARK   10  A    between atoms: C_13  and  O_14
REMARK   11  A    between atoms: O_14  and  C_15
REMARK   12  A    between atoms: C_25  and  O_26
REMARK                            x       y       z     vdW  Elec       q    Type
REMARK                         _______ _______ _______ _____ _____    ______ ____
ROOT
ATOM      1  C   UNL     1       6.415   4.257  17.375  0.00  0.00    +0.000 C 
ENDROOT
BRANCH   1   2
ATOM      2  N   UNL     1       7.671   5.028  17.376  0.00  0.00    +0.000 NA
ATOM      3  H   UNL     1       8.441   4.402  17.615  0.00  0.00    +0.000 HD
BRANCH   2   4
ATOM      4  C   UNL     1       7.717   6.197  18.264  0.00  0.00    +0.000 C 
BRANCH   4   5
ATOM      5  C   UNL     1       7.644   7.557  17.551  0.00  0.00    +0.000 C 
BRANCH   5   6
ATOM      6  C   UNL     1       8.343   8.668  18.354  0.00  0.00    +0.000 C 
BRANCH   6   7
ATOM      7  C   UNL     1       8.326   9.994  17.582  0.00  0.00    +0.000 C 
BRANCH   7  11
ATOM      8  C   UNL     1      10.646  13.110  19.505  0.00  0.00    +0.000 A 
ATOM      9  C   UNL     1      10.593  11.827  20.051  0.00  0.00    +0.000 A 
ATOM     10  C   UNL     1       9.840  10.817  19.436  0.00  0.00    +0.000 A 
ATOM     11  C   UNL     1       9.116  11.092  18.266  0.00  0.00    +0.000 A 
ATOM     12  C   UNL     1       9.147  12.396  17.743  0.00  0.00    +0.000 A 
ATOM     13  C   UNL     1       9.905  13.401  18.361  0.00  0.00    +0.000 A 
BRANCH   8  15
ATOM     14  C   UNL     1      10.709  14.995  20.931  0.00  0.00    +0.000 C 
ATOM     15  O   UNL     1      11.417  14.007  20.194  0.00  0.00    +0.000 OA
ENDBRANCH   8  15
ENDBRANCH   7  11
ENDBRANCH   6   7
ENDBRANCH   5   6
ENDBRANCH   4   5
ENDBRANCH   2   4
ENDBRANCH   1   2
BRANCH   1  16
ATOM     16  C   UNL     1       5.358   4.591  16.291  0.00  0.00    +0.000 C 
BRANCH  16  17
ATOM     17  O   UNL     1       4.607   5.798  16.578  0.00  0.00    +0.000 OA
BRANCH  17  18
ATOM     18  C   UNL     1       3.613   5.578  17.506  0.00  0.00    +0.000 A 
ATOM     19  C   UNL     1       3.114   6.683  18.171  0.00  0.00    +0.000 A 
ATOM     20  C   UNL     1       2.686   6.511  19.484  0.00  0.00    +0.000 A 
ATOM     21  F   UNL     1       2.116   7.534  20.132  0.00  0.00    +0.000 F 
ATOM     22  C   UNL     1       2.893   5.302  20.160  0.00  0.00    +0.000 A 
ATOM     23  C   UNL     1       3.285   4.186  19.432  0.00  0.00    +0.000 A 
ATOM     24  C   UNL     1       3.331   4.333  18.052  0.00  0.00    +0.000 A 
ATOM     25  O   UNL     1       2.544   3.437  17.320  0.00  0.00    +0.000 OA
ATOM     26  C   UNL     1       1.569   2.793  18.200  0.00  0.00    +0.000 C 
ATOM     27  C   UNL     1       2.336   1.910  19.179  0.00  0.00    +0.000 C 
ATOM     28  C   UNL     1       3.349   2.774  19.943  0.00  0.00    +0.000 C 
BRANCH  28  29
ATOM     29  O   UNL     1       4.664   2.264  19.697  0.00  0.00    +0.000 OA
ATOM     30  H   UNL     1       4.567   1.390  19.252  0.00  0.00    +0.000 HD
ENDBRANCH  28  29
ENDBRANCH  17  18
ENDBRANCH  16  17
ENDBRANCH   1  16
TORSDOF 11
ENDMDL
MODEL 5
REMARK VINA RESULT:      -7.4      1.009      1.053
REMARK  Name = 
REMARK  12 active torsions:
REMARK  status: ('A' for Active; 'I' for Inactive)
REMARK    1  A    between atoms: C_1  and  O_2
REMARK    2  A    between atoms: O_2  and  C_3
REMARK    3  A    between atoms: C_6  and  C_7
REMARK    4  A    between atoms: C_7  and  C_8
REMARK    5  A    between atoms: C_8  and  C_9
REMARK    6  A    between atoms: C_9  and  C_10
REMARK    7  A    between atoms: C_10  and  N_11
REMARK    8  A    between atoms: N_11  and  C_12
REMARK    9  A    between atoms: C_12  and  C_13
REMARK   10  A    between atoms: C_13  and  O_14
REMARK   11  A    between atoms: O_14  and  C_15
REMARK   12  A    between atoms: C_25  and  O_26
REMARK                            x       y       z     vdW  Elec       q    Type
REMARK                         _______ _______ _______ _____ _____    ______ ____
ROOT
ATOM      1  C   UNL     1       6.159   5.734  15.697  0.00  0.00    +0.000 C 
ENDROOT
BRANCH   1   2
ATOM      2  N   UNL     1       7.234   6.145  16.618  0.00  0.00    +0.000 NA
ATOM      3  H   UNL     1       7.480   5.352  17.211  0.00  0.00    +0.000 HD
BRANCH   2   4
ATOM      4  C   UNL     1       6.951   7.305  17.473  0.00  0.00    +0.000 C 
BRANCH   4   5
ATOM      5  C   UNL     1       8.166   7.866  18.230  0.00  0.00    +0.000 C 
BRANCH   5   6
ATOM      6  C   UNL     1       8.327   9.382  18.019  0.00  0.00    +0.000 C 
BRANCH   6   7
ATOM      7  C   UNL     1       9.012  10.032  19.229  0.00  0.00    +0.000 C 
BRANCH   7  11
ATOM      8  C   UNL     1      11.115  13.706  18.296  0.00  0.00    +0.000 A 
ATOM      9  C   UNL     1      10.212  13.657  19.359  0.00  0.00    +0.000 A 
ATOM     10  C   UNL     1       9.525  12.473  19.662  0.00  0.00    +0.000 A 
ATOM     11  C   UNL     1       9.730  11.322  18.884  0.00  0.00    +0.000 A 
ATOM     12  C   UNL     1      10.615  11.391  17.794  0.00  0.00    +0.000 A 
ATOM     13  C   UNL     1      11.301  12.578  17.500  0.00  0.00    +0.000 A 
BRANCH   8  15
ATOM     14  C   UNL     1      11.463  15.907  19.088  0.00  0.00    +0.000 C 
ATOM     15  O   UNL     1      11.725  14.916  18.103  0.00  0.00    +0.000 OA
ENDBRANCH   8  15
ENDBRANCH   7  11
ENDBRANCH   6   7
ENDBRANCH   5   6
ENDBRANCH   4   5
ENDBRANCH   2   4
ENDBRANCH   1   2
BRANCH   1  16
ATOM     16  C   UNL     1       5.013   4.857  16.263  0.00  0.00    +0.000 C 
BRANCH  16  17
ATOM     17  O   UNL     1       5.011   4.784  17.712  0.00  0.00    +0.000 OA
BRANCH  17  18
ATOM     18  C   UNL     1       3.780   5.100  18.243  0.00  0.00    +0.000 A 
ATOM     19  C   UNL     1       3.448   6.440  18.313  0.00  0.00    +0.000 A 
ATOM     20  C   UNL     1       2.646   6.855  19.372  0.00  0.00    +0.000 A 
ATOM     21  F   UNL     1       2.230   8.126  19.425  0.00  0.00    +0.000 F 
ATOM     22  C   UNL     1       2.312   5.980  20.412  0.00  0.00    +0.000 A 
ATOM     23  C   UNL     1       2.560   4.623  20.252  0.00  0.00    +0.000 A 
ATOM     24  C   UNL     1       3.022   4.222  19.006  0.00  0.00    +0.000 A 
ATOM     25  O   UNL     1       2.248   3.256  18.354  0.00  0.00    +0.000 OA
ATOM     26  C   UNL     1       0.929   3.165  18.980  0.00  0.00    +0.000 C 
ATOM     27  C   UNL     1       1.118   2.611  20.388  0.00  0.00    +0.000 C 
ATOM     28  C   UNL     1       2.082   3.524  21.159  0.00  0.00    +0.000 C 
BRANCH  28  29
ATOM     29  O   UNL     1       3.216   2.751  21.568  0.00  0.00    +0.000 OA
ATOM     30  H   UNL     1       3.053   1.816  21.301  0.00  0.00    +0.000 HD
ENDBRANCH  28  29
ENDBRANCH  17  18
ENDBRANCH  16  17
ENDBRANCH   1  16
TORSDOF 11
ENDMDL
MODEL 6
REMARK VINA RESULT:      -7.4      1.118      1.526
REMARK  Name = 
REMARK  12 active torsions:
REMARK  status: ('A' for Active; 'I' for Inactive)
REMARK    1  A    between atoms: C_1  and  O_2
REMARK    2  A    between atoms: O_2  and  C_3
REMARK    3  A    between atoms: C_6  and  C_7
REMARK    4  A    between atoms: C_7  and  C_8
REMARK    5  A    between atoms: C_8  and  C_9
REMARK    6  A    between atoms: C_9  and  C_10
REMARK    7  A    between atoms: C_10  and  N_11
REMARK    8  A    between atoms: N_11  and  C_12
REMARK    9  A    between atoms: C_12  and  C_13
REMARK   10  A    between atoms: C_13  and  O_14
REMARK   11  A    between atoms: O_14  and  C_15
REMARK   12  A    between atoms: C_25  and  O_26
REMARK                            x       y       z     vdW  Elec       q    Type
REMARK                         _______ _______ _______ _____ _____    ______ ____
ROOT
ATOM      1  C   UNL     1       5.748   4.225  18.862  0.00  0.00    +0.000 C 
ENDROOT
BRANCH   1   2
ATOM      2  N   UNL     1       6.466   5.360  19.469  0.00  0.00    +0.000 NA
ATOM      3  H   UNL     1       5.846   6.171  19.482  0.00  0.00    +0.000 HD
BRANCH   2   4
ATOM      4  C   UNL     1       7.734   5.743  18.836  0.00  0.00    +0.000 C 
BRANCH   4   5
ATOM      5  C   UNL     1       7.702   7.076  18.070  0.00  0.00    +0.000 C 
BRANCH   5   6
ATOM      6  C   UNL     1       8.623   8.130  18.710  0.00  0.00    +0.000 C 
BRANCH   6   7
ATOM      7  C   UNL     1       8.391   9.510  18.081  0.00  0.00    +0.000 C 
BRANCH   7  11
ATOM      8  C   UNL     1      10.945  12.626  19.682  0.00  0.00    +0.000 A 
ATOM      9  C   UNL     1      10.846  12.430  18.304  0.00  0.00    +0.000 A 
ATOM     10  C   UNL     1      10.025  11.420  17.781  0.00  0.00    +0.000 A 
ATOM     11  C   UNL     1       9.303  10.583  18.645  0.00  0.00    +0.000 A 
ATOM     12  C   UNL     1       9.437  10.765  20.032  0.00  0.00    +0.000 A 
ATOM     13  C   UNL     1      10.256  11.779  20.548  0.00  0.00    +0.000 A 
BRANCH   8  15
ATOM     14  C   UNL     1      11.164  14.920  20.212  0.00  0.00    +0.000 C 
ATOM     15  O   UNL     1      11.774  13.644  20.070  0.00  0.00    +0.000 OA
ENDBRANCH   8  15
ENDBRANCH   7  11
ENDBRANCH   6   7
ENDBRANCH   5   6
ENDBRANCH   4   5
ENDBRANCH   2   4
ENDBRANCH   1   2
BRANCH   1  16
ATOM     16  C   UNL     1       5.429   4.293  17.346  0.00  0.00    +0.000 C 
BRANCH  16  17
ATOM     17  O   UNL     1       4.083   3.856  17.025  0.00  0.00    +0.000 OA
BRANCH  17  18
ATOM     18  C   UNL     1       3.143   4.432  17.851  0.00  0.00    +0.000 A 
ATOM     19  C   UNL     1       3.028   5.809  17.814  0.00  0.00    +0.000 A 
ATOM     20  C   UNL     1       2.673   6.463  18.990  0.00  0.00    +0.000 A 
ATOM     21  F   UNL     1       2.465   7.784  18.973  0.00  0.00    +0.000 F 
ATOM     22  C   UNL     1       2.585   5.770  20.204  0.00  0.00    +0.000 A 
ATOM     23  C   UNL     1       2.591   4.381  20.185  0.00  0.00    +0.000 A 
ATOM     24  C   UNL     1       2.568   3.780  18.934  0.00  0.00    +0.000 A 
ATOM     25  O   UNL     1       1.507   2.898  18.705  0.00  0.00    +0.000 OA
ATOM     26  C   UNL     1       0.462   3.099  19.710  0.00  0.00    +0.000 C 
ATOM     27  C   UNL     1       1.025   2.670  21.060  0.00  0.00    +0.000 C 
ATOM     28  C   UNL     1       2.296   3.480  21.351  0.00  0.00    +0.000 C 
BRANCH  28  29
ATOM     29  O   UNL     1       3.392   2.572  21.508  0.00  0.00    +0.000 OA
ATOM     30  H   UNL     1       3.470   2.360  22.468  0.00  0.00    +0.000 HD
ENDBRANCH  28  29
ENDBRANCH  17  18
ENDBRANCH  16  17
ENDBRANCH   1  16
TORSDOF 11
ENDMDL
MODEL 7
REMARK VINA RESULT:      -7.4      4.744      8.940
REMARK  Name = 
REMARK  12 active torsions:
REMARK  status: ('A' for Active; 'I' for Inactive)
REMARK    1  A    between atoms: C_1  and  O_2
REMARK    2  A    between atoms: O_2  and  C_3
REMARK    3  A    between atoms: C_6  and  C_7
REMARK    4  A    between atoms: C_7  and  C_8
REMARK    5  A    between atoms: C_8  and  C_9
REMARK    6  A    between atoms: C_9  and  C_10
REMARK    7  A    between atoms: C_10  and  N_11
REMARK    8  A    between atoms: N_11  and  C_12
REMARK    9  A    between atoms: C_12  and  C_13
REMARK   10  A    between atoms: C_13  and  O_14
REMARK   11  A    between atoms: O_14  and  C_15
REMARK   12  A    between atoms: C_25  and  O_26
REMARK                            x       y       z     vdW  Elec       q    Type
REMARK                         _______ _______ _______ _____ _____    ______ ____
ROOT
ATOM      1  C   UNL     1       2.590   5.440  19.855  0.00  0.00    +0.000 C 
ENDROOT
BRANCH   1   2
ATOM      2  N   UNL     1       2.904   6.859  20.099  0.00  0.00    +0.000 NA
ATOM      3  H   UNL     1       3.310   6.950  21.031  0.00  0.00    +0.000 HD
BRANCH   2   4
ATOM      4  C   UNL     1       1.787   7.805  19.974  0.00  0.00    +0.000 C 
BRANCH   4   5
ATOM      5  C   UNL     1       1.369   8.493  21.284  0.00  0.00    +0.000 C 
BRANCH   5   6
ATOM      6  C   UNL     1      -0.073   9.026  21.221  0.00  0.00    +0.000 C 
BRANCH   6   7
ATOM      7  C   UNL     1      -0.099  10.464  20.685  0.00  0.00    +0.000 C 
BRANCH   7  11
ATOM      8  C   UNL     1      -2.606  10.996  17.188  0.00  0.00    +0.000 A 
ATOM      9  C   UNL     1      -2.804  11.777  18.327  0.00  0.00    +0.000 A 
ATOM     10  C   UNL     1      -1.999  11.606  19.462  0.00  0.00    +0.000 A 
ATOM     11  C   UNL     1      -0.991  10.630  19.469  0.00  0.00    +0.000 A 
ATOM     12  C   UNL     1      -0.822   9.824  18.331  0.00  0.00    +0.000 A 
ATOM     13  C   UNL     1      -1.628  10.003  17.197  0.00  0.00    +0.000 A 
BRANCH   8  15
ATOM     14  C   UNL     1      -3.185  10.554  14.938  0.00  0.00    +0.000 C 
ATOM     15  O   UNL     1      -3.451  11.259  16.144  0.00  0.00    +0.000 OA
ENDBRANCH   8  15
ENDBRANCH   7  11
ENDBRANCH   6   7
ENDBRANCH   5   6
ENDBRANCH   4   5
ENDBRANCH   2   4
ENDBRANCH   1   2
BRANCH   1  16
ATOM     16  C   UNL     1       3.521   4.643  18.905  0.00  0.00    +0.000 C 
BRANCH  16  17
ATOM     17  O   UNL     1       3.411   5.054  17.519  0.00  0.00    +0.000 OA
BRANCH  17  18
ATOM     18  C   UNL     1       4.645   5.236  16.936  0.00  0.00    +0.000 A 
ATOM     19  C   UNL     1       4.925   4.493  15.804  0.00  0.00    +0.000 A 
ATOM     20  C   UNL     1       6.245   4.104  15.593  0.00  0.00    +0.000 A 
ATOM     21  F   UNL     1       6.571   3.461  14.465  0.00  0.00    +0.000 F 
ATOM     22  C   UNL     1       7.228   4.324  16.565  0.00  0.00    +0.000 A 
ATOM     23  C   UNL     1       6.941   5.171  17.629  0.00  0.00    +0.000 A 
ATOM     24  C   UNL     1       5.721   5.832  17.580  0.00  0.00    +0.000 A 
ATOM     25  O   UNL     1       5.786   7.228  17.637  0.00  0.00    +0.000 OA
ATOM     26  C   UNL     1       7.150   7.678  17.361  0.00  0.00    +0.000 C 
ATOM     27  C   UNL     1       8.037   7.212  18.511  0.00  0.00    +0.000 C 
ATOM     28  C   UNL     1       7.927   5.686  18.639  0.00  0.00    +0.000 C 
BRANCH  28  29
ATOM     29  O   UNL     1       7.439   5.370  19.947  0.00  0.00    +0.000 OA
ATOM     30  H   UNL     1       6.739   6.028  20.172  0.00  0.00    +0.000 HD
ENDBRANCH  28  29
ENDBRANCH  17  18
ENDBRANCH  16  17
ENDBRANCH   1  16
TORSDOF 11
ENDMDL
MODEL 8
REMARK VINA RESULT:      -7.4      4.681      7.604
REMARK  Name = 
REMARK  12 active torsions:
REMARK  status: ('A' for Active; 'I' for Inactive)
REMARK    1  A    between atoms: C_1  and  O_2
REMARK    2  A    between atoms: O_2  and  C_3
REMARK    3  A    between atoms: C_6  and  C_7
REMARK    4  A    between atoms: C_7  and  C_8
REMARK    5  A    between atoms: C_8  and  C_9
REMARK    6  A    between atoms: C_9  and  C_10
REMARK    7  A    between atoms: C_10  and  N_11
REMARK    8  A    between atoms: N_11  and  C_12
REMARK    9  A    between atoms: C_12  and  C_13
REMARK   10  A    between atoms: C_13  and  O_14
REMARK   11  A    between atoms: O_14  and  C_15
REMARK   12  A    between atoms: C_25  and  O_26
REMARK                            x       y       z     vdW  Elec       q    Type
REMARK                         _______ _______ _______ _____ _____    ______ ____
ROOT
ATOM      1  C   UNL     1       3.010   2.206  19.021  0.00  0.00    +0.000 C 
ENDROOT
BRANCH   1   2
ATOM      2  N   UNL     1       3.033   2.165  20.494  0.00  0.00    +0.000 NA
ATOM      3  H   UNL     1       3.048   1.190  20.795  0.00  0.00    +0.000 HD
BRANCH   2   4
ATOM      4  C   UNL     1       1.937   2.857  21.183  0.00  0.00    +0.000 C 
BRANCH   4   5
ATOM      5  C   UNL     1       2.180   4.351  21.455  0.00  0.00    +0.000 C 
BRANCH   5   6
ATOM      6  C   UNL     1       1.477   5.247  20.421  0.00  0.00    +0.000 C 
BRANCH   6   7
ATOM      7  C   UNL     1       2.497   6.098  19.653  0.00  0.00    +0.000 C 
BRANCH   7  11
ATOM      8  C   UNL     1       1.118  10.155  18.990  0.00  0.00    +0.000 A 
ATOM      9  C   UNL     1       1.784   9.459  17.980  0.00  0.00    +0.000 A 
ATOM     10  C   UNL     1       2.237   8.149  18.191  0.00  0.00    +0.000 A 
ATOM     11  C   UNL     1       2.036   7.526  19.432  0.00  0.00    +0.000 A 
ATOM     12  C   UNL     1       1.395   8.247  20.455  0.00  0.00    +0.000 A 
ATOM     13  C   UNL     1       0.942   9.555  20.236  0.00  0.00    +0.000 A 
BRANCH   8  15
ATOM     14  C   UNL     1       1.005  12.429  19.626  0.00  0.00    +0.000 C 
ATOM     15  O   UNL     1       0.722  11.423  18.663  0.00  0.00    +0.000 OA
ENDBRANCH   8  15
ENDBRANCH   7  11
ENDBRANCH   6   7
ENDBRANCH   5   6
ENDBRANCH   4   5
ENDBRANCH   2   4
ENDBRANCH   1   2
BRANCH   1  16
ATOM     16  C   UNL     1       4.119   3.014  18.299  0.00  0.00    +0.000 C 
BRANCH  16  17
ATOM     17  O   UNL     1       3.651   3.680  17.098  0.00  0.00    +0.000 OA
BRANCH  17  18
ATOM     18  C   UNL     1       4.659   4.379  16.471  0.00  0.00    +0.000 A 
ATOM     19  C   UNL     1       4.967   4.014  15.173  0.00  0.00    +0.000 A 
ATOM     20  C   UNL     1       6.290   4.141  14.760  0.00  0.00    +0.000 A 
ATOM     21  F   UNL     1       6.611   3.883  13.487  0.00  0.00    +0.000 F 
ATOM     22  C   UNL     1       7.301   4.481  15.667  0.00  0.00    +0.000 A 
ATOM     23  C   UNL     1       6.944   4.952  16.924  0.00  0.00    +0.000 A 
ATOM     24  C   UNL     1       5.589   5.160  17.144  0.00  0.00    +0.000 A 
ATOM     25  O   UNL     1       5.229   6.456  17.529  0.00  0.00    +0.000 OA
ATOM     26  C   UNL     1       6.326   7.384  17.252  0.00  0.00    +0.000 C 
ATOM     27  C   UNL     1       7.486   7.024  18.173  0.00  0.00    +0.000 C 
ATOM     28  C   UNL     1       7.873   5.557  17.939  0.00  0.00    +0.000 C 
BRANCH  28  29
ATOM     29  O   UNL     1       7.723   4.842  19.170  0.00  0.00    +0.000 OA
ATOM     30  H   UNL     1       8.625   4.606  19.490  0.00  0.00    +0.000 HD
ENDBRANCH  28  29
ENDBRANCH  17  18
ENDBRANCH  16  17
ENDBRANCH   1  16
TORSDOF 11
ENDMDL
MODEL 9
REMARK VINA RESULT:      -7.3      1.689      2.171
REMARK  Name = 
REMARK  12 active torsions:
REMARK  status: ('A' for Active; 'I' for Inactive)
REMARK    1  A    between atoms: C_1  and  O_2
REMARK    2  A    between atoms: O_2  and  C_3
REMARK    3  A    between atoms: C_6  and  C_7
REMARK    4  A    between atoms: C_7  and  C_8
REMARK    5  A    between atoms: C_8  and  C_9
REMARK    6  A    between atoms: C_9  and  C_10
REMARK    7  A    between atoms: C_10  and  N_11
REMARK    8  A    between atoms: N_11  and  C_12
REMARK    9  A    between atoms: C_12  and  C_13
REMARK   10  A    between atoms: C_13  and  O_14
REMARK   11  A    between atoms: O_14  and  C_15
REMARK   12  A    between atoms: C_25  and  O_26
REMARK                            x       y       z     vdW  Elec       q    Type
REMARK                         _______ _______ _______ _____ _____    ______ ____
ROOT
ATOM      1  C   UNL     1       6.521   6.194  16.742  0.00  0.00    +0.000 C 
ENDROOT
BRANCH   1   2
ATOM      2  N   UNL     1       7.809   6.910  16.795  0.00  0.00    +0.000 NA
ATOM      3  H   UNL     1       8.565   6.236  16.666  0.00  0.00    +0.000 HD
BRANCH   2   4
ATOM      4  C   UNL     1       8.072   7.691  18.010  0.00  0.00    +0.000 C 
BRANCH   4   5
ATOM      5  C   UNL     1       8.040   9.216  17.822  0.00  0.00    +0.000 C 
BRANCH   5   6
ATOM      6  C   UNL     1       8.946   9.941  18.833  0.00  0.00    +0.000 C 
BRANCH   6   7
ATOM      7  C   UNL     1       9.816  10.991  18.130  0.00  0.00    +0.000 C 
BRANCH   7  11
ATOM      8  C   UNL     1       9.923  14.831  20.141  0.00  0.00    +0.000 A 
ATOM      9  C   UNL     1      10.725  13.777  20.582  0.00  0.00    +0.000 A 
ATOM     10  C   UNL     1      10.690  12.532  19.939  0.00  0.00    +0.000 A 
ATOM     11  C   UNL     1       9.833  12.328  18.847  0.00  0.00    +0.000 A 
ATOM     12  C   UNL     1       9.004  13.384  18.431  0.00  0.00    +0.000 A 
ATOM     13  C   UNL     1       9.046  14.628  19.077  0.00  0.00    +0.000 A 
BRANCH   8  15
ATOM     14  C   UNL     1       8.983  16.926  20.703  0.00  0.00    +0.000 C 
ATOM     15  O   UNL     1      10.048  15.996  20.847  0.00  0.00    +0.000 OA
ENDBRANCH   8  15
ENDBRANCH   7  11
ENDBRANCH   6   7
ENDBRANCH   5   6
ENDBRANCH   4   5
ENDBRANCH   2   4
ENDBRANCH   1   2
BRANCH   1  16
ATOM     16  C   UNL     1       5.637   6.195  18.016  0.00  0.00    +0.000 C 
BRANCH  16  17
ATOM     17  O   UNL     1       4.285   6.661  17.773  0.00  0.00    +0.000 OA
BRANCH  17  18
ATOM     18  C   UNL     1       3.345   5.833  18.345  0.00  0.00    +0.000 A 
ATOM     19  C   UNL     1       2.414   6.420  19.182  0.00  0.00    +0.000 A 
ATOM     20  C   UNL     1       1.939   5.668  20.253  0.00  0.00    +0.000 A 
ATOM     21  F   UNL     1       0.973   6.167  21.033  0.00  0.00    +0.000 F 
ATOM     22  C   UNL     1       2.494   4.421  20.563  0.00  0.00    +0.000 A 
ATOM     23  C   UNL     1       3.338   3.814  19.641  0.00  0.00    +0.000 A 
ATOM     24  C   UNL     1       3.474   4.453  18.415  0.00  0.00    +0.000 A 
ATOM     25  O   UNL     1       3.146   3.685  17.293  0.00  0.00    +0.000 OA
ATOM     26  C   UNL     1       2.381   2.506  17.698  0.00  0.00    +0.000 C 
ATOM     27  C   UNL     1       3.305   1.608  18.513  0.00  0.00    +0.000 C 
ATOM     28  C   UNL     1       3.851   2.404  19.706  0.00  0.00    +0.000 C 
BRANCH  28  29
ATOM     29  O   UNL     1       5.280   2.439  19.618  0.00  0.00    +0.000 OA
ATOM     30  H   UNL     1       5.518   3.006  18.848  0.00  0.00    +0.000 HD
ENDBRANCH  28  29
ENDBRANCH  17  18
ENDBRANCH  16  17
ENDBRANCH   1  16
TORSDOF 11
ENDMDL
