MODEL 1
REMARK VINA RESULT:      -7.3      0.000      0.000
REMARK  Name = 
REMARK  4 active torsions:
REMARK  status: ('A' for Active; 'I' for Inactive)
REMARK    1  A    between atoms: N_2  and  C_4
REMARK    2  A    between atoms: C_7  and  C_8
REMARK    3  A    between atoms: C_8  and  N_9
REMARK    4  A    between atoms: N_9  and  C_10
REMARK                            x       y       z     vdW  Elec       q    Type
REMARK                         _______ _______ _______ _____ _____    ______ ____
ROOT
ATOM      1  C   UNL     1       5.133   5.560  19.267  0.00  0.00    +0.000 C 
ENDROOT
BRANCH   1   5
ATOM      2  C   UNL     1       6.666   5.087  15.256  0.00  0.00    +0.000 A 
ATOM      3  C   UNL     1       7.352   4.519  16.339  0.00  0.00    +0.000 A 
ATOM      4  C   UNL     1       6.852   4.682  17.631  0.00  0.00    +0.000 A 
ATOM      5  C   UNL     1       5.668   5.402  17.858  0.00  0.00    +0.000 A 
ATOM      6  C   UNL     1       5.001   5.984  16.766  0.00  0.00    +0.000 A 
ATOM      7  C   UNL     1       5.493   5.823  15.466  0.00  0.00    +0.000 A 
BRANCH   2   9
ATOM      8  O   UNL     1       8.142   5.602  13.540  0.00  0.00    +0.000 OA
ATOM      9  N   UNL     1       7.184   4.903  13.896  0.00  0.00    +0.000 N 
ATOM     10  O   UNL     1       6.632   4.055  13.180  0.00  0.00    +0.000 OA
ENDBRANCH   2   9
ENDBRANCH   1   5
BRANCH   1  11
ATOM     11  N   UNL     1       3.713   5.867  19.219  0.00  0.00    +0.000 N 
ATOM     12  H   UNL     1       3.465   6.700  19.746  0.00  0.00    +0.000 HD
BRANCH  11  13
ATOM     13  C   UNL     1       2.754   4.862  19.380  0.00  0.00    +0.000 A 
ATOM     14  C   UNL     1       2.027   4.464  18.248  0.00  0.00    +0.000 A 
ATOM     15  C   UNL     1       1.062   3.453  18.312  0.00  0.00    +0.000 A 
ATOM     16  C   UNL     1       0.809   2.816  19.522  0.00  0.00    +0.000 A 
ATOM     17  C   UNL     1       1.545   3.176  20.647  0.00  0.00    +0.000 A 
ATOM     18 CL   UNL     1       1.235   2.393  22.150  0.00  0.00    +0.000 Cl
ATOM     19  C   UNL     1       2.526   4.172  20.575  0.00  0.00    +0.000 A 
ENDBRANCH  11  13
ENDBRANCH   1  11
TORSDOF 4
ENDMDL
MODEL 2
REMARK VINA RESULT:      -7.2      0.140      1.363
REMARK  Name = 
REMARK  4 active torsions:
REMARK  status: ('A' for Active; 'I' for Inactive)
REMARK    1  A    between atoms: N_2  and  C_4
REMARK    2  A    between atoms: C_7  and  C_8
REMARK    3  A    between atoms: C_8  and  N_9
REMARK    4  A    between atoms: N_9  and  C_10
REMARK                            x       y       z     vdW  Elec       q    Type
REMARK                         _______ _______ _______ _____ _____    ______ ____
ROOT
ATOM      1  C   UNL     1       5.271   5.432  19.260  0.00  0.00    +0.000 C 
ENDROOT
BRANCH   1   5
ATOM      2  C   UNL     1       6.718   5.027  15.211  0.00  0.00    +0.000 A 
ATOM      3  C   UNL     1       5.485   5.648  15.453  0.00  0.00    +0.000 A 
ATOM      4  C   UNL     1       5.024   5.769  16.765  0.00  0.00    +0.000 A 
ATOM      5  C   UNL     1       5.782   5.282  17.841  0.00  0.00    +0.000 A 
ATOM      6  C   UNL     1       7.007   4.643  17.581  0.00  0.00    +0.000 A 
ATOM      7  C   UNL     1       7.480   4.519  16.271  0.00  0.00    +0.000 A 
BRANCH   2   9
ATOM      8  O   UNL     1       6.650   4.104  13.080  0.00  0.00    +0.000 OA
ATOM      9  N   UNL     1       7.210   4.913  13.833  0.00  0.00    +0.000 N 
ATOM     10  O   UNL     1       8.160   5.635  13.499  0.00  0.00    +0.000 OA
ENDBRANCH   2   9
ENDBRANCH   1   5
BRANCH   1  11
ATOM     11  N   UNL     1       3.864   5.798  19.236  0.00  0.00    +0.000 N 
ATOM     12  H   UNL     1       3.658   6.632  19.779  0.00  0.00    +0.000 HD
BRANCH  11  13
ATOM     13  C   UNL     1       2.867   4.831  19.397  0.00  0.00    +0.000 A 
ATOM     14  C   UNL     1       2.064   4.529  18.286  0.00  0.00    +0.000 A 
ATOM     15  C   UNL     1       1.055   3.562  18.350  0.00  0.00    +0.000 A 
ATOM     16  C   UNL     1       0.834   2.873  19.537  0.00  0.00    +0.000 A 
ATOM     17  C   UNL     1       1.643   3.137  20.638  0.00  0.00    +0.000 A 
ATOM     18 CL   UNL     1       1.372   2.289  22.113  0.00  0.00    +0.000 Cl
ATOM     19  C   UNL     1       2.666   4.089  20.565  0.00  0.00    +0.000 A 
ENDBRANCH  11  13
ENDBRANCH   1  11
TORSDOF 4
ENDMDL
MODEL 3
REMARK VINA RESULT:      -7.0      0.556      1.253
REMARK  Name = 
REMARK  4 active torsions:
REMARK  status: ('A' for Active; 'I' for Inactive)
REMARK    1  A    between atoms: N_2  and  C_4
REMARK    2  A    between atoms: C_7  and  C_8
REMARK    3  A    between atoms: C_8  and  N_9
REMARK    4  A    between atoms: N_9  and  C_10
REMARK                            x       y       z     vdW  Elec       q    Type
REMARK                         _______ _______ _______ _____ _____    ______ ____
ROOT
ATOM      1  C   UNL     1       4.421   6.297  19.185  0.00  0.00    +0.000 C 
ENDROOT
BRANCH   1   5
ATOM      2  C   UNL     1       6.299   5.163  15.464  0.00  0.00    +0.000 A 
ATOM      3  C   UNL     1       5.335   6.181  15.479  0.00  0.00    +0.000 A 
ATOM      4  C   UNL     1       4.730   6.536  16.685  0.00  0.00    +0.000 A 
ATOM      5  C   UNL     1       5.080   5.890  17.882  0.00  0.00    +0.000 A 
ATOM      6  C   UNL     1       6.033   4.858  17.849  0.00  0.00    +0.000 A 
ATOM      7  C   UNL     1       6.647   4.496  16.646  0.00  0.00    +0.000 A 
BRANCH   2   9
ATOM      8  O   UNL     1       7.919   5.468  13.829  0.00  0.00    +0.000 OA
ATOM      9  N   UNL     1       6.945   4.799  14.198  0.00  0.00    +0.000 N 
ATOM     10  O   UNL     1       6.479   3.838  13.570  0.00  0.00    +0.000 OA
ENDBRANCH   2   9
ENDBRANCH   1   5
BRANCH   1  11
ATOM     11  N   UNL     1       2.976   6.202  19.052  0.00  0.00    +0.000 N 
ATOM     12  H   UNL     1       2.481   6.960  19.516  0.00  0.00    +0.000 HD
BRANCH  11  13
ATOM     13  C   UNL     1       2.316   4.983  19.230  0.00  0.00    +0.000 A 
ATOM     14  C   UNL     1       1.817   4.336  18.088  0.00  0.00    +0.000 A 
ATOM     15  C   UNL     1       1.160   3.104  18.170  0.00  0.00    +0.000 A 
ATOM     16  C   UNL     1       0.994   2.491  19.407  0.00  0.00    +0.000 A 
ATOM     17  C   UNL     1       1.512   3.102  20.544  0.00  0.00    +0.000 A 
ATOM     18 CL   UNL     1       1.306   2.351  22.080  0.00  0.00    +0.000 Cl
ATOM     19  C   UNL     1       2.189   4.325  20.457  0.00  0.00    +0.000 A 
ENDBRANCH  11  13
ENDBRANCH   1  11
TORSDOF 4
ENDMDL
MODEL 4
REMARK VINA RESULT:      -6.9      4.506      7.127
REMARK  Name = 
REMARK  4 active torsions:
REMARK  status: ('A' for Active; 'I' for Inactive)
REMARK    1  A    between atoms: N_2  and  C_4
REMARK    2  A    between atoms: C_7  and  C_8
REMARK    3  A    between atoms: C_8  and  N_9
REMARK    4  A    between atoms: N_9  and  C_10
REMARK                            x       y       z     vdW  Elec       q    Type
REMARK                         _______ _______ _______ _____ _____    ______ ____
ROOT
ATOM      1  C   UNL     1       5.073   5.793  16.393  0.00  0.00    +0.000 C 
ENDROOT
BRANCH   1   5
ATOM      2  C   UNL     1       2.051   3.651  18.615  0.00  0.00    +0.000 A 
ATOM      3  C   UNL     1       2.943   2.949  17.793  0.00  0.00    +0.000 A 
ATOM      4  C   UNL     1       3.913   3.650  17.075  0.00  0.00    +0.000 A 
ATOM      5  C   UNL     1       4.007   5.048  17.171  0.00  0.00    +0.000 A 
ATOM      6  C   UNL     1       3.092   5.741  17.983  0.00  0.00    +0.000 A 
ATOM      7  C   UNL     1       2.119   5.047  18.709  0.00  0.00    +0.000 A 
BRANCH   2   9
ATOM      8  O   UNL     1       1.052   3.021  20.615  0.00  0.00    +0.000 OA
ATOM      9  N   UNL     1       1.041   2.912  19.382  0.00  0.00    +0.000 N 
ATOM     10  O   UNL     1       0.230   2.222  18.748  0.00  0.00    +0.000 OA
ENDBRANCH   2   9
ENDBRANCH   1   5
BRANCH   1  11
ATOM     11  N   UNL     1       6.127   4.871  16.003  0.00  0.00    +0.000 N 
ATOM     12  H   UNL     1       6.979   4.982  16.547  0.00  0.00    +0.000 HD
BRANCH  11  13
ATOM     13  C   UNL     1       6.415   4.636  14.656  0.00  0.00    +0.000 A 
ATOM     14  C   UNL     1       7.488   5.338  14.084  0.00  0.00    +0.000 A 
ATOM     15  C   UNL     1       7.859   5.152  12.748  0.00  0.00    +0.000 A 
ATOM     16  C   UNL     1       7.158   4.250  11.956  0.00  0.00    +0.000 A 
ATOM     17  C   UNL     1       6.113   3.522  12.516  0.00  0.00    +0.000 A 
ATOM     18 CL   UNL     1       5.237   2.405  11.539  0.00  0.00    +0.000 Cl
ATOM     19  C   UNL     1       5.758   3.693  13.859  0.00  0.00    +0.000 A 
ENDBRANCH  11  13
ENDBRANCH   1  11
TORSDOF 4
ENDMDL
MODEL 5
REMARK VINA RESULT:      -6.8      4.532      6.799
REMARK  Name = 
REMARK  4 active torsions:
REMARK  status: ('A' for Active; 'I' for Inactive)
REMARK    1  A    between atoms: N_2  and  C_4
REMARK    2  A    between atoms: C_7  and  C_8
REMARK    3  A    between atoms: C_8  and  N_9
REMARK    4  A    between atoms: N_9  and  C_10
REMARK                            x       y       z     vdW  Elec       q    Type
REMARK                         _______ _______ _______ _____ _____    ______ ____
ROOT
ATOM      1  C   UNL     1       4.670   4.405  16.027  0.00  0.00    +0.000 C 
ENDROOT
BRANCH   1   5
ATOM      2  C   UNL     1       2.772   3.235  19.726  0.00  0.00    +0.000 A 
ATOM      3  C   UNL     1       2.868   4.593  19.388  0.00  0.00    +0.000 A 
ATOM      4  C   UNL     1       3.488   4.961  18.194  0.00  0.00    +0.000 A 
ATOM      5  C   UNL     1       4.010   3.988  17.326  0.00  0.00    +0.000 A 
ATOM      6  C   UNL     1       3.926   2.633  17.687  0.00  0.00    +0.000 A 
ATOM      7  C   UNL     1       3.304   2.253  18.881  0.00  0.00    +0.000 A 
BRANCH   2   9
ATOM      8  O   UNL     1       0.870   2.834  20.996  0.00  0.00    +0.000 OA
ATOM      9  N   UNL     1       2.108   2.847  20.976  0.00  0.00    +0.000 N 
ATOM     10  O   UNL     1       2.826   2.552  21.942  0.00  0.00    +0.000 OA
ENDBRANCH   2   9
ENDBRANCH   1   5
BRANCH   1  11
ATOM     11  N   UNL     1       6.116   4.348  16.172  0.00  0.00    +0.000 N 
ATOM     12  H   UNL     1       6.475   3.399  16.237  0.00  0.00    +0.000 HD
BRANCH  11  13
ATOM     13  C   UNL     1       6.784   5.202  17.054  0.00  0.00    +0.000 A 
ATOM     14  C   UNL     1       7.403   4.631  18.177  0.00  0.00    +0.000 A 
ATOM     15  C   UNL     1       8.110   5.407  19.101  0.00  0.00    +0.000 A 
ATOM     16  C   UNL     1       8.212   6.781  18.913  0.00  0.00    +0.000 A 
ATOM     17  C   UNL     1       7.632   7.359  17.788  0.00  0.00    +0.000 A 
ATOM     18 CL   UNL     1       7.752   9.061  17.551  0.00  0.00    +0.000 Cl
ATOM     19  C   UNL     1       6.945   6.577  16.853  0.00  0.00    +0.000 A 
ENDBRANCH  11  13
ENDBRANCH   1  11
TORSDOF 4
ENDMDL
MODEL 6
REMARK VINA RESULT:      -6.8      3.296      3.834
REMARK  Name = 
REMARK  4 active torsions:
REMARK  status: ('A' for Active; 'I' for Inactive)
REMARK    1  A    between atoms: N_2  and  C_4
REMARK    2  A    between atoms: C_7  and  C_8
REMARK    3  A    between atoms: C_8  and  N_9
REMARK    4  A    between atoms: N_9  and  C_10
REMARK                            x       y       z     vdW  Elec       q    Type
REMARK                         _______ _______ _______ _____ _____    ______ ____
ROOT
ATOM      1  C   UNL     1       2.462   5.506  18.864  0.00  0.00    +0.000 C 
ENDROOT
BRANCH   1   5
ATOM      2  C   UNL     1       5.523   4.944  15.868  0.00  0.00    +0.000 A 
ATOM      3  C   UNL     1       5.273   6.225  16.381  0.00  0.00    +0.000 A 
ATOM      4  C   UNL     1       4.279   6.397  17.345  0.00  0.00    +0.000 A 
ATOM      5  C   UNL     1       3.531   5.303  17.809  0.00  0.00    +0.000 A 
ATOM      6  C   UNL     1       3.778   4.028  17.271  0.00  0.00    +0.000 A 
ATOM      7  C   UNL     1       4.775   3.845  16.307  0.00  0.00    +0.000 A 
BRANCH   2   9
ATOM      8  O   UNL     1       7.580   5.486  14.936  0.00  0.00    +0.000 OA
ATOM      9  N   UNL     1       6.578   4.761  14.865  0.00  0.00    +0.000 N 
ATOM     10  O   UNL     1       6.408   3.887  14.003  0.00  0.00    +0.000 OA
ENDBRANCH   2   9
ENDBRANCH   1   5
BRANCH   1  11
ATOM     11  N   UNL     1       2.824   6.627  19.716  0.00  0.00    +0.000 N 
ATOM     12  H   UNL     1       3.263   6.342  20.588  0.00  0.00    +0.000 HD
BRANCH  11  13
ATOM     13  C   UNL     1       1.940   7.690  19.919  0.00  0.00    +0.000 A 
ATOM     14  C   UNL     1       1.717   8.571  18.848  0.00  0.00    +0.000 A 
ATOM     15  C   UNL     1       0.835   9.651  18.956  0.00  0.00    +0.000 A 
ATOM     16  C   UNL     1       0.151   9.867  20.147  0.00  0.00    +0.000 A 
ATOM     17  C   UNL     1       0.335   8.985  21.208  0.00  0.00    +0.000 A 
ATOM     18 CL   UNL     1      -0.506   9.249  22.687  0.00  0.00    +0.000 Cl
ATOM     19  C   UNL     1       1.201   7.892  21.090  0.00  0.00    +0.000 A 
ENDBRANCH  11  13
ENDBRANCH   1  11
TORSDOF 4
ENDMDL
MODEL 7
REMARK VINA RESULT:      -6.8      3.586      4.261
REMARK  Name = 
REMARK  4 active torsions:
REMARK  status: ('A' for Active; 'I' for Inactive)
REMARK    1  A    between atoms: N_2  and  C_4
REMARK    2  A    between atoms: C_7  and  C_8
REMARK    3  A    between atoms: C_8  and  N_9
REMARK    4  A    between atoms: N_9  and  C_10
REMARK                            x       y       z     vdW  Elec       q    Type
REMARK                         _______ _______ _______ _____ _____    ______ ____
ROOT
ATOM      1  C   UNL     1       2.341   5.295  19.738  0.00  0.00    +0.000 C 
ENDROOT
BRANCH   1   5
ATOM      2  C   UNL     1       5.777   4.589  17.217  0.00  0.00    +0.000 A 
ATOM      3  C   UNL     1       5.954   5.077  18.519  0.00  0.00    +0.000 A 
ATOM      4  C   UNL     1       4.837   5.307  19.324  0.00  0.00    +0.000 A 
ATOM      5  C   UNL     1       3.542   5.050  18.846  0.00  0.00    +0.000 A 
ATOM      6  C   UNL     1       3.378   4.580  17.532  0.00  0.00    +0.000 A 
ATOM      7  C   UNL     1       4.491   4.343  16.718  0.00  0.00    +0.000 A 
BRANCH   2   9
ATOM      8  O   UNL     1       6.768   4.121  15.169  0.00  0.00    +0.000 OA
ATOM      9  N   UNL     1       6.951   4.333  16.375  0.00  0.00    +0.000 N 
ATOM     10  O   UNL     1       8.064   4.346  16.921  0.00  0.00    +0.000 OA
ENDBRANCH   2   9
ENDBRANCH   1   5
BRANCH   1  11
ATOM     11  N   UNL     1       2.493   6.568  20.423  0.00  0.00    +0.000 N 
ATOM     12  H   UNL     1       2.316   6.509  21.423  0.00  0.00    +0.000 HD
BRANCH  11  13
ATOM     13  C   UNL     1       1.962   7.743  19.884  0.00  0.00    +0.000 A 
ATOM     14  C   UNL     1       2.241   8.031  18.538  0.00  0.00    +0.000 A 
ATOM     15  C   UNL     1       1.735   9.174  17.911  0.00  0.00    +0.000 A 
ATOM     16  C   UNL     1       0.931  10.055  18.626  0.00  0.00    +0.000 A 
ATOM     17  C   UNL     1       0.618   9.768  19.951  0.00  0.00    +0.000 A 
ATOM     18 CL   UNL     1      -0.375  10.856  20.844  0.00  0.00    +0.000 Cl
ATOM     19  C   UNL     1       1.106   8.611  20.570  0.00  0.00    +0.000 A 
ENDBRANCH  11  13
ENDBRANCH   1  11
TORSDOF 4
ENDMDL
MODEL 8
REMARK VINA RESULT:      -6.8      2.774      3.375
REMARK  Name = 
REMARK  4 active torsions:
REMARK  status: ('A' for Active; 'I' for Inactive)
REMARK    1  A    between atoms: N_2  and  C_4
REMARK    2  A    between atoms: C_7  and  C_8
REMARK    3  A    between atoms: C_8  and  N_9
REMARK    4  A    between atoms: N_9  and  C_10
REMARK                            x       y       z     vdW  Elec       q    Type
REMARK                         _______ _______ _______ _____ _____    ______ ____
ROOT
ATOM      1  C   UNL     1       4.489   5.287  19.403  0.00  0.00    +0.000 C 
ENDROOT
BRANCH   1   5
ATOM      2  C   UNL     1       6.375   4.931  15.533  0.00  0.00    +0.000 A 
ATOM      3  C   UNL     1       5.214   4.198  15.815  0.00  0.00    +0.000 A 
ATOM      4  C   UNL     1       4.615   4.315  17.070  0.00  0.00    +0.000 A 
ATOM      5  C   UNL     1       5.159   5.163  18.049  0.00  0.00    +0.000 A 
ATOM      6  C   UNL     1       6.335   5.876  17.760  0.00  0.00    +0.000 A 
ATOM      7  C   UNL     1       6.941   5.768  16.504  0.00  0.00    +0.000 A 
BRANCH   2   9
ATOM      8  O   UNL     1       6.559   3.959  13.432  0.00  0.00    +0.000 OA
ATOM      9  N   UNL     1       6.997   4.819  14.209  0.00  0.00    +0.000 N 
ATOM     10  O   UNL     1       7.925   5.595  13.941  0.00  0.00    +0.000 OA
ENDBRANCH   2   9
ENDBRANCH   1   5
BRANCH   1  11
ATOM     11  N   UNL     1       3.059   5.482  19.225  0.00  0.00    +0.000 N 
ATOM     12  H   UNL     1       2.662   4.892  18.498  0.00  0.00    +0.000 HD
BRANCH  11  13
ATOM     13  C   UNL     1       2.508   6.765  19.192  0.00  0.00    +0.000 A 
ATOM     14  C   UNL     1       2.484   7.437  17.959  0.00  0.00    +0.000 A 
ATOM     15  C   UNL     1       1.933   8.716  17.830  0.00  0.00    +0.000 A 
ATOM     16  C   UNL     1       1.390   9.349  18.942  0.00  0.00    +0.000 A 
ATOM     17  C   UNL     1       1.375   8.685  20.164  0.00  0.00    +0.000 A 
ATOM     18 CL   UNL     1       0.706   9.464  21.547  0.00  0.00    +0.000 Cl
ATOM     19  C   UNL     1       1.906   7.395  20.286  0.00  0.00    +0.000 A 
ENDBRANCH  11  13
ENDBRANCH   1  11
TORSDOF 4
ENDMDL
MODEL 9
REMARK VINA RESULT:      -6.8      1.727      2.197
REMARK  Name = 
REMARK  4 active torsions:
REMARK  status: ('A' for Active; 'I' for Inactive)
REMARK    1  A    between atoms: N_2  and  C_4
REMARK    2  A    between atoms: C_7  and  C_8
REMARK    3  A    between atoms: C_8  and  N_9
REMARK    4  A    between atoms: N_9  and  C_10
REMARK                            x       y       z     vdW  Elec       q    Type
REMARK                         _______ _______ _______ _____ _____    ______ ____
ROOT
ATOM      1  C   UNL     1       5.794   4.378  18.957  0.00  0.00    +0.000 C 
ENDROOT
BRANCH   1   5
ATOM      2  C   UNL     1       6.658   4.504  14.727  0.00  0.00    +0.000 A 
ATOM      3  C   UNL     1       5.390   4.101  15.170  0.00  0.00    +0.000 A 
ATOM      4  C   UNL     1       5.122   4.058  16.538  0.00  0.00    +0.000 A 
ATOM      5  C   UNL     1       6.105   4.419  17.474  0.00  0.00    +0.000 A 
ATOM      6  C   UNL     1       7.378   4.802  17.017  0.00  0.00    +0.000 A 
ATOM      7  C   UNL     1       7.655   4.851  15.647  0.00  0.00    +0.000 A 
BRANCH   2   9
ATOM      8  O   UNL     1       6.410   3.710  12.559  0.00  0.00    +0.000 OA
ATOM      9  N   UNL     1       6.934   4.563  13.287  0.00  0.00    +0.000 N 
ATOM     10  O   UNL     1       7.678   5.467  12.880  0.00  0.00    +0.000 OA
ENDBRANCH   2   9
ENDBRANCH   1   5
BRANCH   1  11
ATOM     11  N   UNL     1       4.820   3.331  19.223  0.00  0.00    +0.000 N 
ATOM     12  H   UNL     1       4.802   2.609  18.507  0.00  0.00    +0.000 HD
BRANCH  11  13
ATOM     13  C   UNL     1       3.529   3.644  19.657  0.00  0.00    +0.000 A 
ATOM     14  C   UNL     1       2.614   2.590  19.806  0.00  0.00    +0.000 A 
ATOM     15  C   UNL     1       1.307   2.808  20.254  0.00  0.00    +0.000 A 
ATOM     16  C   UNL     1       0.891   4.098  20.565  0.00  0.00    +0.000 A 
ATOM     17  C   UNL     1       1.794   5.150  20.455  0.00  0.00    +0.000 A 
ATOM     18 CL   UNL     1       1.284   6.750  20.836  0.00  0.00    +0.000 Cl
ATOM     19  C   UNL     1       3.108   4.926  20.029  0.00  0.00    +0.000 A 
ENDBRANCH  11  13
ENDBRANCH   1  11
TORSDOF 4
ENDMDL
