MODEL 1
REMARK VINA RESULT:      -6.7      0.000      0.000
REMARK  Name = 
REMARK  12 active torsions:
REMARK  status: ('A' for Active; 'I' for Inactive)
REMARK    1  A    between atoms: C_1  and  C_2
REMARK    2  A    between atoms: C_2  and  C_3
REMARK    3  A    between atoms: C_3  and  C_4
REMARK    4  A    between atoms: C_4  and  C_5
REMARK    5  A    between atoms: N_8  and  C_9
REMARK    6  A    between atoms: C_13  and  C_15
REMARK    7  A    between atoms: C_15  and  N_16
REMARK    8  A    between atoms: C_26  and  C_27
REMARK    9  A    between atoms: C_30  and  O_31
REMARK   10  A    between atoms: O_31  and  C_32
REMARK   11  A    between atoms: C_33  and  O_34
REMARK   12  A    between atoms: O_34  and  C_35
REMARK                            x       y       z     vdW  Elec       q    Type
REMARK                         _______ _______ _______ _____ _____    ______ ____
ROOT
ATOM      1  C   UNL     1       2.712   5.634  19.205  0.00  0.00    +0.000 C 
ATOM      2  C   UNL     1       3.748   5.035  20.151  0.00  0.00    +0.000 C 
ATOM      3  C   UNL     1       1.825   6.611  19.954  0.00  0.00    +0.000 C 
ATOM      4  O   UNL     1       1.158   6.364  20.945  0.00  0.00    +0.000 OA
ATOM      5  N   UNL     1       1.823   7.775  19.172  0.00  0.00    +0.000 N 
ATOM      6  N   UNL     1       2.735   7.740  18.140  0.00  0.00    +0.000 NA
ATOM      7  C   UNL     1       3.319   6.575  18.172  0.00  0.00    +0.000 C 
ENDROOT
BRANCH   5   8
ATOM      8  C   UNL     1       0.687   8.702  19.146  0.00  0.00    +0.000 C 
ATOM      9  C   UNL     1       0.741   9.735  18.011  0.00  0.00    +0.000 C 
ATOM     10  C   UNL     1       1.775  10.825  18.274  0.00  0.00    +0.000 C 
ATOM     11  N   UNL     1       1.596  11.429  19.596  0.00  0.00    +0.000 N 
ATOM     12  C   UNL     1       1.936  12.772  19.753  0.00  0.00    +0.000 C 
ATOM     13  O   UNL     1       2.404  13.427  18.818  0.00  0.00    +0.000 OA
ATOM     14  C   UNL     1       1.529  10.483  20.705  0.00  0.00    +0.000 C 
ATOM     15  C   UNL     1       0.471   9.421  20.477  0.00  0.00    +0.000 C 
BRANCH  12  16
ATOM     16  C   UNL     1       1.715  13.438  21.121  0.00  0.00    +0.000 C 
BRANCH  16  17
ATOM     17  N   UNL     1       0.357  13.932  21.264  0.00  0.00    +0.000 N 
ATOM     18  C   UNL     1      -0.045  15.174  20.872  0.00  0.00    +0.000 C 
ATOM     19  O   UNL     1       0.632  16.033  20.331  0.00  0.00    +0.000 OA
ATOM     20  C   UNL     1      -1.467  15.390  21.297  0.00  0.00    +0.000 C 
ATOM     21  C   UNL     1      -1.860  14.080  21.948  0.00  0.00    +0.000 C 
ATOM     22  C   UNL     1      -0.561  13.344  22.082  0.00  0.00    +0.000 C 
ATOM     23  O   UNL     1      -0.387  12.394  22.829  0.00  0.00    +0.000 OA
ENDBRANCH  16  17
ENDBRANCH  12  16
ENDBRANCH   5   8
BRANCH   7  24
ATOM     24  C   UNL     1       4.457   6.233  17.282  0.00  0.00    +0.000 A 
ATOM     25  C   UNL     1       4.405   5.212  16.343  0.00  0.00    +0.000 A 
ATOM     26  C   UNL     1       5.522   4.941  15.552  0.00  0.00    +0.000 A 
ATOM     27  C   UNL     1       6.709   5.674  15.689  0.00  0.00    +0.000 A 
ATOM     28  C   UNL     1       6.777   6.700  16.649  0.00  0.00    +0.000 A 
ATOM     29  C   UNL     1       5.642   6.972  17.430  0.00  0.00    +0.000 A 
BRANCH  27  30
ATOM     30  O   UNL     1       7.674   5.246  14.817  0.00  0.00    +0.000 OA
ATOM     31  C   UNL     1       7.279   4.745  13.549  0.00  0.00    +0.000 C 
ENDBRANCH  27  30
BRANCH  28  32
ATOM     32  O   UNL     1       7.955   7.383  16.792  0.00  0.00    +0.000 OA
ATOM     33  C   UNL     1       8.041   8.382  17.801  0.00  0.00    +0.000 C 
ENDBRANCH  28  32
ENDBRANCH   7  24
BRANCH   1  34
ATOM     34  C   UNL     1       1.762   4.572  18.592  0.00  0.00    +0.000 C 
BRANCH  34  36
ATOM     35  C   UNL     1       2.558   2.268  17.883  0.00  0.00    +0.000 C 
ATOM     36  C   UNL     1       2.057   3.125  19.028  0.00  0.00    +0.000 C 
ENDBRANCH  34  36
ENDBRANCH   1  34
TORSDOF 8
ENDMDL
MODEL 2
REMARK VINA RESULT:      -6.6      1.462      2.196
REMARK  Name = 
REMARK  12 active torsions:
REMARK  status: ('A' for Active; 'I' for Inactive)
REMARK    1  A    between atoms: C_1  and  C_2
REMARK    2  A    between atoms: C_2  and  C_3
REMARK    3  A    between atoms: C_3  and  C_4
REMARK    4  A    between atoms: C_4  and  C_5
REMARK    5  A    between atoms: N_8  and  C_9
REMARK    6  A    between atoms: C_13  and  C_15
REMARK    7  A    between atoms: C_15  and  N_16
REMARK    8  A    between atoms: C_26  and  C_27
REMARK    9  A    between atoms: C_30  and  O_31
REMARK   10  A    between atoms: O_31  and  C_32
REMARK   11  A    between atoms: C_33  and  O_34
REMARK   12  A    between atoms: O_34  and  C_35
REMARK                            x       y       z     vdW  Elec       q    Type
REMARK                         _______ _______ _______ _____ _____    ______ ____
ROOT
ATOM      1  C   UNL     1       2.673   5.716  19.295  0.00  0.00    +0.000 C 
ATOM      2  C   UNL     1       3.704   5.110  20.243  0.00  0.00    +0.000 C 
ATOM      3  C   UNL     1       1.803   6.712  20.040  0.00  0.00    +0.000 C 
ATOM      4  O   UNL     1       1.135   6.483  21.034  0.00  0.00    +0.000 OA
ATOM      5  N   UNL     1       1.816   7.870  19.248  0.00  0.00    +0.000 N 
ATOM      6  N   UNL     1       2.724   7.814  18.214  0.00  0.00    +0.000 NA
ATOM      7  C   UNL     1       3.291   6.641  18.253  0.00  0.00    +0.000 C 
ENDROOT
BRANCH   5   8
ATOM      8  C   UNL     1       0.694   8.814  19.218  0.00  0.00    +0.000 C 
ATOM      9  C   UNL     1       0.712   9.778  18.024  0.00  0.00    +0.000 C 
ATOM     10  C   UNL     1       1.772  10.864  18.177  0.00  0.00    +0.000 C 
ATOM     11  N   UNL     1       1.662  11.546  19.468  0.00  0.00    +0.000 N 
ATOM     12  C   UNL     1       2.028  12.890  19.531  0.00  0.00    +0.000 C 
ATOM     13  O   UNL     1       2.463  13.482  18.540  0.00  0.00    +0.000 OA
ATOM     14  C   UNL     1       1.631  10.666  20.632  0.00  0.00    +0.000 C 
ATOM     15  C   UNL     1       0.549   9.611  20.513  0.00  0.00    +0.000 C 
BRANCH  12  16
ATOM     16  C   UNL     1       1.879  13.637  20.867  0.00  0.00    +0.000 C 
BRANCH  16  17
ATOM     17  N   UNL     1       2.854  14.706  20.995  0.00  0.00    +0.000 N 
ATOM     18  C   UNL     1       4.017  14.593  21.699  0.00  0.00    +0.000 C 
ATOM     19  O   UNL     1       4.429  13.608  22.290  0.00  0.00    +0.000 OA
ATOM     20  C   UNL     1       4.705  15.925  21.733  0.00  0.00    +0.000 C 
ATOM     21  C   UNL     1       3.810  16.823  20.904  0.00  0.00    +0.000 C 
ATOM     22  C   UNL     1       2.568  16.007  20.707  0.00  0.00    +0.000 C 
ATOM     23  O   UNL     1       1.491  16.471  20.369  0.00  0.00    +0.000 OA
ENDBRANCH  16  17
ENDBRANCH  12  16
ENDBRANCH   5   8
BRANCH   7  24
ATOM     24  C   UNL     1       4.422   6.276  17.363  0.00  0.00    +0.000 A 
ATOM     25  C   UNL     1       4.360   5.234  16.447  0.00  0.00    +0.000 A 
ATOM     26  C   UNL     1       5.470   4.942  15.654  0.00  0.00    +0.000 A 
ATOM     27  C   UNL     1       6.660   5.674  15.766  0.00  0.00    +0.000 A 
ATOM     28  C   UNL     1       6.738   6.720  16.703  0.00  0.00    +0.000 A 
ATOM     29  C   UNL     1       5.610   7.014  17.486  0.00  0.00    +0.000 A 
BRANCH  27  30
ATOM     30  O   UNL     1       7.617   5.223  14.896  0.00  0.00    +0.000 OA
ATOM     31  C   UNL     1       7.209   4.639  13.670  0.00  0.00    +0.000 C 
ENDBRANCH  27  30
BRANCH  28  32
ATOM     32  O   UNL     1       7.919   7.403  16.821  0.00  0.00    +0.000 OA
ATOM     33  C   UNL     1       8.004   8.448  17.782  0.00  0.00    +0.000 C 
ENDBRANCH  28  32
ENDBRANCH   7  24
BRANCH   1  34
ATOM     34  C   UNL     1       1.707   4.664  18.693  0.00  0.00    +0.000 C 
BRANCH  34  36
ATOM     35  C   UNL     1       2.375   2.398  17.765  0.00  0.00    +0.000 C 
ATOM     36  C   UNL     1       2.074   3.203  19.013  0.00  0.00    +0.000 C 
ENDBRANCH  34  36
ENDBRANCH   1  34
TORSDOF 8
ENDMDL
MODEL 3
REMARK VINA RESULT:      -6.5      3.569      6.268
REMARK  Name = 
REMARK  12 active torsions:
REMARK  status: ('A' for Active; 'I' for Inactive)
REMARK    1  A    between atoms: C_1  and  C_2
REMARK    2  A    between atoms: C_2  and  C_3
REMARK    3  A    between atoms: C_3  and  C_4
REMARK    4  A    between atoms: C_4  and  C_5
REMARK    5  A    between atoms: N_8  and  C_9
REMARK    6  A    between atoms: C_13  and  C_15
REMARK    7  A    between atoms: C_15  and  N_16
REMARK    8  A    between atoms: C_26  and  C_27
REMARK    9  A    between atoms: C_30  and  O_31
REMARK   10  A    between atoms: O_31  and  C_32
REMARK   11  A    between atoms: C_33  and  O_34
REMARK   12  A    between atoms: O_34  and  C_35
REMARK                            x       y       z     vdW  Elec       q    Type
REMARK                         _______ _______ _______ _____ _____    ______ ____
ROOT
ATOM      1  C   UNL     1      -0.319   9.968  20.263  0.00  0.00    +0.000 C 
ATOM      2  C   UNL     1      -0.467   8.983  21.419  0.00  0.00    +0.000 C 
ATOM      3  C   UNL     1      -0.365  11.393  20.783  0.00  0.00    +0.000 C 
ATOM      4  O   UNL     1      -1.267  11.893  21.434  0.00  0.00    +0.000 OA
ATOM      5  N   UNL     1       0.753  12.023  20.218  0.00  0.00    +0.000 N 
ATOM      6  N   UNL     1       1.604  11.151  19.576  0.00  0.00    +0.000 NA
ATOM      7  C   UNL     1       1.075   9.962  19.648  0.00  0.00    +0.000 C 
ENDROOT
BRANCH   5   8
ATOM      8  C   UNL     1       0.781  13.459  19.925  0.00  0.00    +0.000 C 
ATOM      9  C   UNL     1       1.199  13.803  18.488  0.00  0.00    +0.000 C 
ATOM     10  C   UNL     1       2.695  13.610  18.263  0.00  0.00    +0.000 C 
ATOM     11  N   UNL     1       3.487  14.308  19.277  0.00  0.00    +0.000 N 
ATOM     12  C   UNL     1       4.736  14.804  18.905  0.00  0.00    +0.000 C 
ATOM     13  O   UNL     1       5.179  14.633  17.766  0.00  0.00    +0.000 OA
ATOM     14  C   UNL     1       3.117  14.019  20.659  0.00  0.00    +0.000 C 
ATOM     15  C   UNL     1       1.640  14.254  20.908  0.00  0.00    +0.000 C 
BRANCH  12  16
ATOM     16  C   UNL     1       5.566  15.579  19.942  0.00  0.00    +0.000 C 
BRANCH  16  17
ATOM     17  N   UNL     1       6.969  15.636  19.572  0.00  0.00    +0.000 N 
ATOM     18  C   UNL     1       7.927  14.818  20.095  0.00  0.00    +0.000 C 
ATOM     19  O   UNL     1       7.768  13.919  20.904  0.00  0.00    +0.000 OA
ATOM     20  C   UNL     1       9.273  15.249  19.593  0.00  0.00    +0.000 C 
ATOM     21  C   UNL     1       8.965  16.402  18.660  0.00  0.00    +0.000 C 
ATOM     22  C   UNL     1       7.521  16.700  18.923  0.00  0.00    +0.000 C 
ATOM     23  O   UNL     1       6.971  17.746  18.616  0.00  0.00    +0.000 OA
ENDBRANCH  16  17
ENDBRANCH  12  16
ENDBRANCH   5   8
BRANCH   7  24
ATOM     24  C   UNL     1       1.785   8.747  19.174  0.00  0.00    +0.000 A 
ATOM     25  C   UNL     1       2.360   8.648  17.913  0.00  0.00    +0.000 A 
ATOM     26  C   UNL     1       2.999   7.467  17.535  0.00  0.00    +0.000 A 
ATOM     27  C   UNL     1       3.067   6.365  18.398  0.00  0.00    +0.000 A 
ATOM     28  C   UNL     1       2.474   6.449  19.670  0.00  0.00    +0.000 A 
ATOM     29  C   UNL     1       1.845   7.648  20.046  0.00  0.00    +0.000 A 
BRANCH  27  30
ATOM     30  O   UNL     1       3.738   5.315  17.828  0.00  0.00    +0.000 OA
ATOM     31  C   UNL     1       2.993   4.226  17.309  0.00  0.00    +0.000 C 
ENDBRANCH  27  30
BRANCH  28  32
ATOM     32  O   UNL     1       2.522   5.352  20.487  0.00  0.00    +0.000 OA
ATOM     33  C   UNL     1       1.357   4.546  20.609  0.00  0.00    +0.000 C 
ENDBRANCH  28  32
ENDBRANCH   7  24
BRANCH   1  34
ATOM     34  C   UNL     1      -1.457   9.853  19.216  0.00  0.00    +0.000 C 
BRANCH  34  36
ATOM     35  C   UNL     1      -2.177  10.041  16.789  0.00  0.00    +0.000 C 
ATOM     36  C   UNL     1      -1.038  10.204  17.777  0.00  0.00    +0.000 C 
ENDBRANCH  34  36
ENDBRANCH   1  34
TORSDOF 8
ENDMDL
MODEL 4
REMARK VINA RESULT:      -6.5      3.347      7.600
REMARK  Name = 
REMARK  12 active torsions:
REMARK  status: ('A' for Active; 'I' for Inactive)
REMARK    1  A    between atoms: C_1  and  C_2
REMARK    2  A    between atoms: C_2  and  C_3
REMARK    3  A    between atoms: C_3  and  C_4
REMARK    4  A    between atoms: C_4  and  C_5
REMARK    5  A    between atoms: N_8  and  C_9
REMARK    6  A    between atoms: C_13  and  C_15
REMARK    7  A    between atoms: C_15  and  N_16
REMARK    8  A    between atoms: C_26  and  C_27
REMARK    9  A    between atoms: C_30  and  O_31
REMARK   10  A    between atoms: O_31  and  C_32
REMARK   11  A    between atoms: C_33  and  O_34
REMARK   12  A    between atoms: O_34  and  C_35
REMARK                            x       y       z     vdW  Elec       q    Type
REMARK                         _______ _______ _______ _____ _____    ______ ____
ROOT
ATOM      1  C   UNL     1       3.281   5.003  18.418  0.00  0.00    +0.000 C 
ATOM      2  C   UNL     1       1.970   4.514  17.810  0.00  0.00    +0.000 C 
ATOM      3  C   UNL     1       4.457   4.460  17.627  0.00  0.00    +0.000 C 
ATOM      4  O   UNL     1       4.697   3.284  17.409  0.00  0.00    +0.000 OA
ATOM      5  N   UNL     1       5.261   5.577  17.358  0.00  0.00    +0.000 N 
ATOM      6  N   UNL     1       4.666   6.772  17.696  0.00  0.00    +0.000 NA
ATOM      7  C   UNL     1       3.507   6.498  18.225  0.00  0.00    +0.000 C 
ENDROOT
BRANCH   5   8
ATOM      8  C   UNL     1       6.715   5.476  17.194  0.00  0.00    +0.000 C 
ATOM      9  C   UNL     1       7.505   5.534  18.510  0.00  0.00    +0.000 C 
ATOM     10  C   UNL     1       7.550   6.944  19.091  0.00  0.00    +0.000 C 
ATOM     11  N   UNL     1       8.008   7.920  18.100  0.00  0.00    +0.000 N 
ATOM     12  C   UNL     1       8.724   9.027  18.555  0.00  0.00    +0.000 C 
ATOM     13  O   UNL     1       8.940   9.200  19.757  0.00  0.00    +0.000 OA
ATOM     14  C   UNL     1       7.291   7.894  16.829  0.00  0.00    +0.000 C 
ATOM     15  C   UNL     1       7.280   6.506  16.218  0.00  0.00    +0.000 C 
BRANCH  12  16
ATOM     16  C   UNL     1       9.251  10.042  17.527  0.00  0.00    +0.000 C 
BRANCH  16  17
ATOM     17  N   UNL     1       9.297  11.386  18.076  0.00  0.00    +0.000 N 
ATOM     18  C   UNL     1       8.454  12.390  17.700  0.00  0.00    +0.000 C 
ATOM     19  O   UNL     1       7.539  12.322  16.896  0.00  0.00    +0.000 OA
ATOM     20  C   UNL     1       8.877  13.666  18.363  0.00  0.00    +0.000 C 
ATOM     21  C   UNL     1      10.056  13.259  19.224  0.00  0.00    +0.000 C 
ATOM     22  C   UNL     1      10.369  11.866  18.767  0.00  0.00    +0.000 C 
ATOM     23  O   UNL     1      11.429  11.299  18.978  0.00  0.00    +0.000 OA
ENDBRANCH  16  17
ENDBRANCH  12  16
ENDBRANCH   5   8
BRANCH   7  24
ATOM     24  C   UNL     1       2.530   7.555  18.588  0.00  0.00    +0.000 A 
ATOM     25  C   UNL     1       2.130   8.553  17.709  0.00  0.00    +0.000 A 
ATOM     26  C   UNL     1       1.218   9.521  18.129  0.00  0.00    +0.000 A 
ATOM     27  C   UNL     1       0.697   9.517  19.430  0.00  0.00    +0.000 A 
ATOM     28  C   UNL     1       1.108   8.521  20.333  0.00  0.00    +0.000 A 
ATOM     29  C   UNL     1       2.017   7.544  19.895  0.00  0.00    +0.000 A 
BRANCH  27  30
ATOM     30  O   UNL     1      -0.179  10.551  19.628  0.00  0.00    +0.000 OA
ATOM     31  C   UNL     1      -1.380  10.587  18.873  0.00  0.00    +0.000 C 
ENDBRANCH  27  30
BRANCH  28  32
ATOM     32  O   UNL     1       0.614   8.553  21.610  0.00  0.00    +0.000 OA
ATOM     33  C   UNL     1       1.316   9.308  22.589  0.00  0.00    +0.000 C 
ENDBRANCH  28  32
ENDBRANCH   7  24
BRANCH   1  34
ATOM     34  C   UNL     1       3.488   4.530  19.880  0.00  0.00    +0.000 C 
BRANCH  34  36
ATOM     35  C   UNL     1       2.077   3.329  21.615  0.00  0.00    +0.000 C 
ATOM     36  C   UNL     1       2.727   3.243  20.248  0.00  0.00    +0.000 C 
ENDBRANCH  34  36
ENDBRANCH   1  34
TORSDOF 8
ENDMDL
MODEL 5
REMARK VINA RESULT:      -6.5      0.750      1.438
REMARK  Name = 
REMARK  12 active torsions:
REMARK  status: ('A' for Active; 'I' for Inactive)
REMARK    1  A    between atoms: C_1  and  C_2
REMARK    2  A    between atoms: C_2  and  C_3
REMARK    3  A    between atoms: C_3  and  C_4
REMARK    4  A    between atoms: C_4  and  C_5
REMARK    5  A    between atoms: N_8  and  C_9
REMARK    6  A    between atoms: C_13  and  C_15
REMARK    7  A    between atoms: C_15  and  N_16
REMARK    8  A    between atoms: C_26  and  C_27
REMARK    9  A    between atoms: C_30  and  O_31
REMARK   10  A    between atoms: O_31  and  C_32
REMARK   11  A    between atoms: C_33  and  O_34
REMARK   12  A    between atoms: O_34  and  C_35
REMARK                            x       y       z     vdW  Elec       q    Type
REMARK                         _______ _______ _______ _____ _____    ______ ____
ROOT
ATOM      1  C   UNL     1       2.546   5.671  19.365  0.00  0.00    +0.000 C 
ATOM      2  C   UNL     1       3.534   5.044  20.345  0.00  0.00    +0.000 C 
ATOM      3  C   UNL     1       1.697   6.710  20.073  0.00  0.00    +0.000 C 
ATOM      4  O   UNL     1       1.000   6.522  21.057  0.00  0.00    +0.000 OA
ATOM      5  N   UNL     1       1.770   7.853  19.263  0.00  0.00    +0.000 N 
ATOM      6  N   UNL     1       2.697   7.746  18.250  0.00  0.00    +0.000 NA
ATOM      7  C   UNL     1       3.219   6.554  18.321  0.00  0.00    +0.000 C 
ENDROOT
BRANCH   5   8
ATOM      8  C   UNL     1       0.683   8.835  19.193  0.00  0.00    +0.000 C 
ATOM      9  C   UNL     1       0.736   9.748  17.959  0.00  0.00    +0.000 C 
ATOM     10  C   UNL     1       1.837  10.798  18.067  0.00  0.00    +0.000 C 
ATOM     11  N   UNL     1       1.752  11.537  19.328  0.00  0.00    +0.000 N 
ATOM     12  C   UNL     1       2.169  12.868  19.336  0.00  0.00    +0.000 C 
ATOM     13  O   UNL     1       2.625  13.402  18.321  0.00  0.00    +0.000 OA
ATOM     14  C   UNL     1       1.690  10.709  20.529  0.00  0.00    +0.000 C 
ATOM     15  C   UNL     1       0.569   9.691  20.453  0.00  0.00    +0.000 C 
BRANCH  12  16
ATOM     16  C   UNL     1       2.049  13.676  20.638  0.00  0.00    +0.000 C 
BRANCH  16  17
ATOM     17  N   UNL     1       0.957  14.632  20.578  0.00  0.00    +0.000 N 
ATOM     18  C   UNL     1      -0.359  14.289  20.680  0.00  0.00    +0.000 C 
ATOM     19  O   UNL     1      -0.820  13.174  20.860  0.00  0.00    +0.000 OA
ATOM     20  C   UNL     1      -1.206  15.503  20.436  0.00  0.00    +0.000 C 
ATOM     21  C   UNL     1      -0.201  16.617  20.230  0.00  0.00    +0.000 C 
ATOM     22  C   UNL     1       1.108  15.899  20.100  0.00  0.00    +0.000 C 
ATOM     23  O   UNL     1       2.115  16.393  19.617  0.00  0.00    +0.000 OA
ENDBRANCH  16  17
ENDBRANCH  12  16
ENDBRANCH   5   8
BRANCH   7  24
ATOM     24  C   UNL     1       4.355   6.133  17.462  0.00  0.00    +0.000 A 
ATOM     25  C   UNL     1       4.320   4.999  16.661  0.00  0.00    +0.000 A 
ATOM     26  C   UNL     1       5.434   4.660  15.892  0.00  0.00    +0.000 A 
ATOM     27  C   UNL     1       6.600   5.437  15.914  0.00  0.00    +0.000 A 
ATOM     28  C   UNL     1       6.651   6.578  16.735  0.00  0.00    +0.000 A 
ATOM     29  C   UNL     1       5.519   6.916  17.495  0.00  0.00    +0.000 A 
BRANCH  27  30
ATOM     30  O   UNL     1       7.564   4.927  15.086  0.00  0.00    +0.000 OA
ATOM     31  C   UNL     1       7.221   4.608  13.747  0.00  0.00    +0.000 C 
ENDBRANCH  27  30
BRANCH  28  32
ATOM     32  O   UNL     1       7.810   7.306  16.768  0.00  0.00    +0.000 OA
ATOM     33  C   UNL     1       7.890   8.411  17.660  0.00  0.00    +0.000 C 
ENDBRANCH  28  32
ENDBRANCH   7  24
BRANCH   1  34
ATOM     34  C   UNL     1       1.555   4.643  18.759  0.00  0.00    +0.000 C 
BRANCH  34  36
ATOM     35  C   UNL     1       2.296   2.288  18.171  0.00  0.00    +0.000 C 
ATOM     36  C   UNL     1       1.752   3.198  19.254  0.00  0.00    +0.000 C 
ENDBRANCH  34  36
ENDBRANCH   1  34
TORSDOF 8
ENDMDL
MODEL 6
REMARK VINA RESULT:      -6.5      3.612     10.266
REMARK  Name = 
REMARK  12 active torsions:
REMARK  status: ('A' for Active; 'I' for Inactive)
REMARK    1  A    between atoms: C_1  and  C_2
REMARK    2  A    between atoms: C_2  and  C_3
REMARK    3  A    between atoms: C_3  and  C_4
REMARK    4  A    between atoms: C_4  and  C_5
REMARK    5  A    between atoms: N_8  and  C_9
REMARK    6  A    between atoms: C_13  and  C_15
REMARK    7  A    between atoms: C_15  and  N_16
REMARK    8  A    between atoms: C_26  and  C_27
REMARK    9  A    between atoms: C_30  and  O_31
REMARK   10  A    between atoms: O_31  and  C_32
REMARK   11  A    between atoms: C_33  and  O_34
REMARK   12  A    between atoms: O_34  and  C_35
REMARK                            x       y       z     vdW  Elec       q    Type
REMARK                         _______ _______ _______ _____ _____    ______ ____
ROOT
ATOM      1  C   UNL     1      -2.390  12.772  21.798  0.00  0.00    +0.000 C 
ATOM      2  C   UNL     1      -3.555  12.329  22.678  0.00  0.00    +0.000 C 
ATOM      3  C   UNL     1      -1.104  12.117  22.266  0.00  0.00    +0.000 C 
ATOM      4  O   UNL     1      -0.624  12.191  23.385  0.00  0.00    +0.000 OA
ATOM      5  N   UNL     1      -0.533  11.566  21.109  0.00  0.00    +0.000 N 
ATOM      6  N   UNL     1      -1.369  11.610  20.015  0.00  0.00    +0.000 NA
ATOM      7  C   UNL     1      -2.464  12.213  20.382  0.00  0.00    +0.000 C 
ENDROOT
BRANCH   5   8
ATOM      8  C   UNL     1       0.915  11.405  20.948  0.00  0.00    +0.000 C 
ATOM      9  C   UNL     1       1.390  11.384  19.489  0.00  0.00    +0.000 C 
ATOM     10  C   UNL     1       1.049  10.071  18.791  0.00  0.00    +0.000 C 
ATOM     11  N   UNL     1       1.509   8.916  19.564  0.00  0.00    +0.000 N 
ATOM     12  C   UNL     1       1.894   7.773  18.865  0.00  0.00    +0.000 C 
ATOM     13  O   UNL     1       1.821   7.720  17.634  0.00  0.00    +0.000 OA
ATOM     14  C   UNL     1       1.089   8.899  20.962  0.00  0.00    +0.000 C 
ATOM     15  C   UNL     1       1.465  10.181  21.679  0.00  0.00    +0.000 C 
BRANCH  12  16
ATOM     16  C   UNL     1       2.421   6.563  19.654  0.00  0.00    +0.000 C 
BRANCH  16  17
ATOM     17  N   UNL     1       2.260   5.326  18.910  0.00  0.00    +0.000 N 
ATOM     18  C   UNL     1       1.448   4.303  19.304  0.00  0.00    +0.000 C 
ATOM     19  O   UNL     1       0.729   4.269  20.289  0.00  0.00    +0.000 OA
ATOM     20  C   UNL     1       1.636   3.139  18.377  0.00  0.00    +0.000 C 
ATOM     21  C   UNL     1       2.633   3.641  17.353  0.00  0.00    +0.000 C 
ATOM     22  C   UNL     1       3.128   4.929  17.937  0.00  0.00    +0.000 C 
ATOM     23  O   UNL     1       4.156   5.488  17.589  0.00  0.00    +0.000 OA
ENDBRANCH  16  17
ENDBRANCH  12  16
ENDBRANCH   5   8
BRANCH   7  24
ATOM     24  C   UNL     1      -3.647  12.323  19.490  0.00  0.00    +0.000 A 
ATOM     25  C   UNL     1      -4.813  12.982  19.855  0.00  0.00    +0.000 A 
ATOM     26  C   UNL     1      -5.888  13.031  18.966  0.00  0.00    +0.000 A 
ATOM     27  C   UNL     1      -5.823  12.418  17.708  0.00  0.00    +0.000 A 
ATOM     28  C   UNL     1      -4.652  11.733  17.336  0.00  0.00    +0.000 A 
ATOM     29  C   UNL     1      -3.571  11.702  18.233  0.00  0.00    +0.000 A 
BRANCH  27  30
ATOM     30  O   UNL     1      -6.982  12.589  17.000  0.00  0.00    +0.000 OA
ATOM     31  C   UNL     1      -7.324  13.889  16.546  0.00  0.00    +0.000 C 
ENDBRANCH  27  30
BRANCH  28  32
ATOM     32  O   UNL     1      -4.619  11.112  16.116  0.00  0.00    +0.000 OA
ATOM     33  C   UNL     1      -3.352  10.821  15.538  0.00  0.00    +0.000 C 
ENDBRANCH  28  32
ENDBRANCH   7  24
BRANCH   1  34
ATOM     34  C   UNL     1      -2.138  14.302  21.846  0.00  0.00    +0.000 C 
BRANCH  34  36
ATOM     35  C   UNL     1      -2.244  15.759  23.921  0.00  0.00    +0.000 C 
ATOM     36  C   UNL     1      -3.040  15.066  22.833  0.00  0.00    +0.000 C 
ENDBRANCH  34  36
ENDBRANCH   1  34
TORSDOF 8
ENDMDL
MODEL 7
REMARK VINA RESULT:      -6.4      3.219      7.592
REMARK  Name = 
REMARK  12 active torsions:
REMARK  status: ('A' for Active; 'I' for Inactive)
REMARK    1  A    between atoms: C_1  and  C_2
REMARK    2  A    between atoms: C_2  and  C_3
REMARK    3  A    between atoms: C_3  and  C_4
REMARK    4  A    between atoms: C_4  and  C_5
REMARK    5  A    between atoms: N_8  and  C_9
REMARK    6  A    between atoms: C_13  and  C_15
REMARK    7  A    between atoms: C_15  and  N_16
REMARK    8  A    between atoms: C_26  and  C_27
REMARK    9  A    between atoms: C_30  and  O_31
REMARK   10  A    between atoms: O_31  and  C_32
REMARK   11  A    between atoms: C_33  and  O_34
REMARK   12  A    between atoms: O_34  and  C_35
REMARK                            x       y       z     vdW  Elec       q    Type
REMARK                         _______ _______ _______ _____ _____    ______ ____
ROOT
ATOM      1  C   UNL     1       3.227   4.673  18.463  0.00  0.00    +0.000 C 
ATOM      2  C   UNL     1       1.882   4.344  17.823  0.00  0.00    +0.000 C 
ATOM      3  C   UNL     1       4.357   4.316  17.515  0.00  0.00    +0.000 C 
ATOM      4  O   UNL     1       4.566   3.218  17.026  0.00  0.00    +0.000 OA
ATOM      5  N   UNL     1       5.169   5.458  17.469  0.00  0.00    +0.000 N 
ATOM      6  N   UNL     1       4.610   6.550  18.097  0.00  0.00    +0.000 NA
ATOM      7  C   UNL     1       3.471   6.170  18.604  0.00  0.00    +0.000 C 
ENDROOT
BRANCH   5   8
ATOM      8  C   UNL     1       6.612   5.387  17.219  0.00  0.00    +0.000 C 
ATOM      9  C   UNL     1       7.477   5.457  18.485  0.00  0.00    +0.000 C 
ATOM     10  C   UNL     1       7.530   6.865  19.069  0.00  0.00    +0.000 C 
ATOM     11  N   UNL     1       7.908   7.853  18.056  0.00  0.00    +0.000 N 
ATOM     12  C   UNL     1       8.628   8.973  18.472  0.00  0.00    +0.000 C 
ATOM     13  O   UNL     1       8.912   9.147  19.659  0.00  0.00    +0.000 OA
ATOM     14  C   UNL     1       7.118   7.816  16.830  0.00  0.00    +0.000 C 
ATOM     15  C   UNL     1       7.097   6.431  16.214  0.00  0.00    +0.000 C 
BRANCH  12  16
ATOM     16  C   UNL     1       9.073  10.001  17.419  0.00  0.00    +0.000 C 
BRANCH  16  17
ATOM     17  N   UNL     1       9.194  11.333  17.986  0.00  0.00    +0.000 N 
ATOM     18  C   UNL     1       8.366  12.370  17.672  0.00  0.00    +0.000 C 
ATOM     19  O   UNL     1       7.409  12.348  16.917  0.00  0.00    +0.000 OA
ATOM     20  C   UNL     1       8.868  13.619  18.334  0.00  0.00    +0.000 C 
ATOM     21  C   UNL     1      10.076  13.158  19.123  0.00  0.00    +0.000 C 
ATOM     22  C   UNL     1      10.316  11.764  18.628  0.00  0.00    +0.000 C 
ATOM     23  O   UNL     1      11.366  11.157  18.773  0.00  0.00    +0.000 OA
ENDBRANCH  16  17
ENDBRANCH  12  16
ENDBRANCH   5   8
BRANCH   7  24
ATOM     24  C   UNL     1       2.530   7.125  19.243  0.00  0.00    +0.000 A 
ATOM     25  C   UNL     1       1.960   6.907  20.490  0.00  0.00    +0.000 A 
ATOM     26  C   UNL     1       1.072   7.844  21.019  0.00  0.00    +0.000 A 
ATOM     27  C   UNL     1       0.731   9.006  20.313  0.00  0.00    +0.000 A 
ATOM     28  C   UNL     1       1.289   9.227  19.041  0.00  0.00    +0.000 A 
ATOM     29  C   UNL     1       2.193   8.283  18.525  0.00  0.00    +0.000 A 
BRANCH  27  30
ATOM     30  O   UNL     1      -0.151   9.785  21.014  0.00  0.00    +0.000 OA
ATOM     31  C   UNL     1       0.199  10.211  22.321  0.00  0.00    +0.000 C 
ENDBRANCH  27  30
BRANCH  28  32
ATOM     32  O   UNL     1       0.919  10.351  18.352  0.00  0.00    +0.000 OA
ATOM     33  C   UNL     1       1.705  11.527  18.501  0.00  0.00    +0.000 C 
ENDBRANCH  28  32
ENDBRANCH   7  24
BRANCH   1  34
ATOM     34  C   UNL     1       3.490   3.878  19.768  0.00  0.00    +0.000 C 
BRANCH  34  36
ATOM     35  C   UNL     1       1.626   3.068  21.289  0.00  0.00    +0.000 C 
ATOM     36  C   UNL     1       2.461   2.770  20.059  0.00  0.00    +0.000 C 
ENDBRANCH  34  36
ENDBRANCH   1  34
TORSDOF 8
ENDMDL
MODEL 8
REMARK VINA RESULT:      -6.4      1.255      1.597
REMARK  Name = 
REMARK  12 active torsions:
REMARK  status: ('A' for Active; 'I' for Inactive)
REMARK    1  A    between atoms: C_1  and  C_2
REMARK    2  A    between atoms: C_2  and  C_3
REMARK    3  A    between atoms: C_3  and  C_4
REMARK    4  A    between atoms: C_4  and  C_5
REMARK    5  A    between atoms: N_8  and  C_9
REMARK    6  A    between atoms: C_13  and  C_15
REMARK    7  A    between atoms: C_15  and  N_16
REMARK    8  A    between atoms: C_26  and  C_27
REMARK    9  A    between atoms: C_30  and  O_31
REMARK   10  A    between atoms: O_31  and  C_32
REMARK   11  A    between atoms: C_33  and  O_34
REMARK   12  A    between atoms: O_34  and  C_35
REMARK                            x       y       z     vdW  Elec       q    Type
REMARK                         _______ _______ _______ _____ _____    ______ ____
ROOT
ATOM      1  C   UNL     1       2.511   5.713  19.429  0.00  0.00    +0.000 C 
ATOM      2  C   UNL     1       3.503   5.082  20.402  0.00  0.00    +0.000 C 
ATOM      3  C   UNL     1       1.690   6.775  20.137  0.00  0.00    +0.000 C 
ATOM      4  O   UNL     1       1.006   6.612  21.133  0.00  0.00    +0.000 OA
ATOM      5  N   UNL     1       1.768   7.906  19.310  0.00  0.00    +0.000 N 
ATOM      6  N   UNL     1       2.678   7.770  18.284  0.00  0.00    +0.000 NA
ATOM      7  C   UNL     1       3.181   6.570  18.363  0.00  0.00    +0.000 C 
ENDROOT
BRANCH   5   8
ATOM      8  C   UNL     1       0.698   8.905  19.243  0.00  0.00    +0.000 C 
ATOM      9  C   UNL     1       0.720   9.771  17.976  0.00  0.00    +0.000 C 
ATOM     10  C   UNL     1       1.842  10.804  18.004  0.00  0.00    +0.000 C 
ATOM     11  N   UNL     1       1.818  11.590  19.240  0.00  0.00    +0.000 N 
ATOM     12  C   UNL     1       2.257  12.912  19.182  0.00  0.00    +0.000 C 
ATOM     13  O   UNL     1       2.684  13.400  18.133  0.00  0.00    +0.000 OA
ATOM     14  C   UNL     1       1.786  10.807  20.471  0.00  0.00    +0.000 C 
ATOM     15  C   UNL     1       0.645   9.809  20.474  0.00  0.00    +0.000 C 
BRANCH  12  16
ATOM     16  C   UNL     1       2.200  13.769  20.458  0.00  0.00    +0.000 C 
BRANCH  16  17
ATOM     17  N   UNL     1       1.828  15.142  20.166  0.00  0.00    +0.000 N 
ATOM     18  C   UNL     1       2.676  16.203  20.296  0.00  0.00    +0.000 C 
ATOM     19  O   UNL     1       3.847  16.174  20.636  0.00  0.00    +0.000 OA
ATOM     20  C   UNL     1       1.920  17.473  20.045  0.00  0.00    +0.000 C 
ATOM     21  C   UNL     1       0.521  17.006  19.698  0.00  0.00    +0.000 C 
ATOM     22  C   UNL     1       0.533  15.549  20.047  0.00  0.00    +0.000 C 
ATOM     23  O   UNL     1      -0.472  14.877  20.214  0.00  0.00    +0.000 OA
ENDBRANCH  16  17
ENDBRANCH  12  16
ENDBRANCH   5   8
BRANCH   7  24
ATOM     24  C   UNL     1       4.296   6.119  17.492  0.00  0.00    +0.000 A 
ATOM     25  C   UNL     1       4.232   4.971  16.712  0.00  0.00    +0.000 A 
ATOM     26  C   UNL     1       5.327   4.604  15.930  0.00  0.00    +0.000 A 
ATOM     27  C   UNL     1       6.503   5.366  15.917  0.00  0.00    +0.000 A 
ATOM     28  C   UNL     1       6.584   6.520  16.716  0.00  0.00    +0.000 A 
ATOM     29  C   UNL     1       5.471   6.887  17.490  0.00  0.00    +0.000 A 
BRANCH  27  30
ATOM     30  O   UNL     1       7.446   4.828  15.082  0.00  0.00    +0.000 OA
ATOM     31  C   UNL     1       7.071   4.473  13.761  0.00  0.00    +0.000 C 
ENDBRANCH  27  30
BRANCH  28  32
ATOM     32  O   UNL     1       7.753   7.233  16.716  0.00  0.00    +0.000 OA
ATOM     33  C   UNL     1       7.918   8.264  17.683  0.00  0.00    +0.000 C 
ENDBRANCH  28  32
ENDBRANCH   7  24
BRANCH   1  34
ATOM     34  C   UNL     1       1.493   4.694  18.853  0.00  0.00    +0.000 C 
BRANCH  34  36
ATOM     35  C   UNL     1       1.534   2.156  18.886  0.00  0.00    +0.000 C 
ATOM     36  C   UNL     1       1.320   3.418  19.698  0.00  0.00    +0.000 C 
ENDBRANCH  34  36
ENDBRANCH   1  34
TORSDOF 8
ENDMDL
MODEL 9
REMARK VINA RESULT:      -6.2      4.450      9.443
REMARK  Name = 
REMARK  12 active torsions:
REMARK  status: ('A' for Active; 'I' for Inactive)
REMARK    1  A    between atoms: C_1  and  C_2
REMARK    2  A    between atoms: C_2  and  C_3
REMARK    3  A    between atoms: C_3  and  C_4
REMARK    4  A    between atoms: C_4  and  C_5
REMARK    5  A    between atoms: N_8  and  C_9
REMARK    6  A    between atoms: C_13  and  C_15
REMARK    7  A    between atoms: C_15  and  N_16
REMARK    8  A    between atoms: C_26  and  C_27
REMARK    9  A    between atoms: C_30  and  O_31
REMARK   10  A    between atoms: O_31  and  C_32
REMARK   11  A    between atoms: C_33  and  O_34
REMARK   12  A    between atoms: O_34  and  C_35
REMARK                            x       y       z     vdW  Elec       q    Type
REMARK                         _______ _______ _______ _____ _____    ______ ____
ROOT
ATOM      1  C   UNL     1       0.873  15.329  20.852  0.00  0.00    +0.000 C 
ATOM      2  C   UNL     1       0.412  14.646  22.136  0.00  0.00    +0.000 C 
ATOM      3  C   UNL     1       2.173  16.074  21.094  0.00  0.00    +0.000 C 
ATOM      4  O   UNL     1       2.359  16.943  21.929  0.00  0.00    +0.000 OA
ATOM      5  N   UNL     1       3.026  15.662  20.061  0.00  0.00    +0.000 N 
ATOM      6  N   UNL     1       2.519  14.620  19.317  0.00  0.00    +0.000 NA
ATOM      7  C   UNL     1       1.334  14.345  19.783  0.00  0.00    +0.000 C 
ENDROOT
BRANCH   5   8
ATOM      8  C   UNL     1       4.089  16.522  19.531  0.00  0.00    +0.000 C 
ATOM      9  C   UNL     1       4.413  16.285  18.049  0.00  0.00    +0.000 C 
ATOM     10  C   UNL     1       5.190  14.991  17.829  0.00  0.00    +0.000 C 
ATOM     11  N   UNL     1       6.367  14.917  18.695  0.00  0.00    +0.000 N 
ATOM     12  C   UNL     1       7.487  14.234  18.221  0.00  0.00    +0.000 C 
ATOM     13  O   UNL     1       7.479  13.681  17.118  0.00  0.00    +0.000 OA
ATOM     14  C   UNL     1       6.108  15.146  20.113  0.00  0.00    +0.000 C 
ATOM     15  C   UNL     1       5.378  16.453  20.349  0.00  0.00    +0.000 C 
BRANCH  12  16
ATOM     16  C   UNL     1       8.750  14.181  19.096  0.00  0.00    +0.000 C 
BRANCH  16  17
ATOM     17  N   UNL     1       9.017  12.835  19.572  0.00  0.00    +0.000 N 
ATOM     18  C   UNL     1       8.881  12.447  20.872  0.00  0.00    +0.000 C 
ATOM     19  O   UNL     1       8.501  13.129  21.810  0.00  0.00    +0.000 OA
ATOM     20  C   UNL     1       9.373  11.038  21.022  0.00  0.00    +0.000 C 
ATOM     21  C   UNL     1       9.766  10.635  19.616  0.00  0.00    +0.000 C 
ATOM     22  C   UNL     1       9.726  11.922  18.849  0.00  0.00    +0.000 C 
ATOM     23  O   UNL     1      10.271  12.094  17.771  0.00  0.00    +0.000 OA
ENDBRANCH  16  17
ENDBRANCH  12  16
ENDBRANCH   5   8
BRANCH   7  24
ATOM     24  C   UNL     1       0.542  13.184  19.305  0.00  0.00    +0.000 A 
ATOM     25  C   UNL     1      -0.776  13.288  18.880  0.00  0.00    +0.000 A 
ATOM     26  C   UNL     1      -1.460  12.148  18.457  0.00  0.00    +0.000 A 
ATOM     27  C   UNL     1      -0.848  10.887  18.459  0.00  0.00    +0.000 A 
ATOM     28  C   UNL     1       0.482  10.768  18.903  0.00  0.00    +0.000 A 
ATOM     29  C   UNL     1       1.164  11.926  19.314  0.00  0.00    +0.000 A 
BRANCH  27  30
ATOM     30  O   UNL     1      -1.695   9.911  18.005  0.00  0.00    +0.000 OA
ATOM     31  C   UNL     1      -2.160   9.975  16.667  0.00  0.00    +0.000 C 
ENDBRANCH  27  30
BRANCH  28  32
ATOM     32  O   UNL     1       1.052   9.524  18.929  0.00  0.00    +0.000 OA
ATOM     33  C   UNL     1       1.927   9.158  17.868  0.00  0.00    +0.000 C 
ENDBRANCH  28  32
ENDBRANCH   7  24
BRANCH   1  34
ATOM     34  C   UNL     1      -0.138  16.383  20.327  0.00  0.00    +0.000 C 
BRANCH  34  36
ATOM     35  C   UNL     1      -0.989  17.468  18.196  0.00  0.00    +0.000 C 
ATOM     36  C   UNL     1       0.230  16.996  18.963  0.00  0.00    +0.000 C 
ENDBRANCH  34  36
ENDBRANCH   1  34
TORSDOF 8
ENDMDL
