MODEL 1
REMARK VINA RESULT:      -7.0      0.000      0.000
REMARK  Name = 
REMARK  8 active torsions:
REMARK  status: ('A' for Active; 'I' for Inactive)
REMARK    1  A    between atoms: C_1  and  N_2
REMARK    2  A    between atoms: N_2  and  C_3
REMARK    3  A    between atoms: N_2  and  C_4
REMARK    4  A    between atoms: C_4  and  C_5
REMARK    5  A    between atoms: C_5  and  O_6
REMARK    6  A    between atoms: O_6  and  C_7
REMARK    7  A    between atoms: C_10  and  N_11
REMARK    8  A    between atoms: N_14  and  C_15
REMARK                            x       y       z     vdW  Elec       q    Type
REMARK                         _______ _______ _______ _____ _____    ______ ____
ROOT
ATOM      1  N   UNL     1       8.637   8.000  18.956  0.00  0.00    +0.000 N 
ATOM      2  C   UNL     1       8.646   9.313  18.506  0.00  0.00    +0.000 C 
ATOM      3  O   UNL     1       7.868   9.777  17.677  0.00  0.00    +0.000 OA
ATOM      4  N   UNL     1       9.666  10.061  19.080  0.00  0.00    +0.000 N 
ATOM      5  H   UNL     1       8.987   7.841  19.889  0.00  0.00    +0.000 HD
ATOM      6  H   UNL     1      10.507   9.533  19.265  0.00  0.00    +0.000 HD
ENDROOT
BRANCH   4   7
ATOM      7  C   UNL     1       9.829  11.429  18.749  0.00  0.00    +0.000 A 
ATOM      8  C   UNL     1       9.175  12.439  19.466  0.00  0.00    +0.000 A 
ATOM      9  C   UNL     1       9.323  13.782  19.098  0.00  0.00    +0.000 A 
ATOM     10  C   UNL     1      10.116  14.105  18.001  0.00  0.00    +0.000 A 
ATOM     11 CL   UNL     1      10.288  15.755  17.529  0.00  0.00    +0.000 Cl
ATOM     12  C   UNL     1      10.771  13.109  17.283  0.00  0.00    +0.000 A 
ATOM     13  C   UNL     1      10.642  11.768  17.667  0.00  0.00    +0.000 A 
ENDBRANCH   4   7
BRANCH   1  17
ATOM     14  C   UNL     1       6.282   4.941  17.186  0.00  0.00    +0.000 A 
ATOM     15  C   UNL     1       7.086   4.682  18.296  0.00  0.00    +0.000 A 
ATOM     16  C   UNL     1       7.837   5.691  18.887  0.00  0.00    +0.000 A 
ATOM     17  C   UNL     1       7.827   6.990  18.379  0.00  0.00    +0.000 A 
ATOM     18  C   UNL     1       6.984   7.278  17.298  0.00  0.00    +0.000 A 
ATOM     19  C   UNL     1       6.225   6.248  16.699  0.00  0.00    +0.000 A 
BRANCH  14  20
ATOM     20  O   UNL     1       5.533   3.977  16.541  0.00  0.00    +0.000 OA
BRANCH  20  21
ATOM     21  C   UNL     1       4.139   4.008  16.896  0.00  0.00    +0.000 C 
BRANCH  21  22
ATOM     22  C   UNL     1       3.681   2.766  17.671  0.00  0.00    +0.000 C 
BRANCH  22  24
ATOM     23  C   UNL     1       4.386   2.394  19.952  0.00  0.00    +0.000 C 
ATOM     24  N   UNL     1       3.399   3.054  19.097  0.00  0.00    +0.000 NA
ATOM     25  C   UNL     1       3.371   4.489  19.398  0.00  0.00    +0.000 C 
ENDBRANCH  22  24
ENDBRANCH  21  22
ENDBRANCH  20  21
ENDBRANCH  14  20
ENDBRANCH   1  17
TORSDOF 6
ENDMDL
MODEL 2
REMARK VINA RESULT:      -6.9      0.970      1.368
REMARK  Name = 
REMARK  8 active torsions:
REMARK  status: ('A' for Active; 'I' for Inactive)
REMARK    1  A    between atoms: C_1  and  N_2
REMARK    2  A    between atoms: N_2  and  C_3
REMARK    3  A    between atoms: N_2  and  C_4
REMARK    4  A    between atoms: C_4  and  C_5
REMARK    5  A    between atoms: C_5  and  O_6
REMARK    6  A    between atoms: O_6  and  C_7
REMARK    7  A    between atoms: C_10  and  N_11
REMARK    8  A    between atoms: N_14  and  C_15
REMARK                            x       y       z     vdW  Elec       q    Type
REMARK                         _______ _______ _______ _____ _____    ______ ____
ROOT
ATOM      1  N   UNL     1       8.482   7.610  18.927  0.00  0.00    +0.000 N 
ATOM      2  C   UNL     1       8.493   8.952  18.576  0.00  0.00    +0.000 C 
ATOM      3  O   UNL     1       7.680   9.489  17.826  0.00  0.00    +0.000 OA
ATOM      4  N   UNL     1       9.555   9.640  19.149  0.00  0.00    +0.000 N 
ATOM      5  H   UNL     1       8.878   7.376  19.826  0.00  0.00    +0.000 HD
ATOM      6  H   UNL     1      10.394   9.088  19.248  0.00  0.00    +0.000 HD
ENDROOT
BRANCH   4   7
ATOM      7  C   UNL     1       9.726  11.027  18.911  0.00  0.00    +0.000 A 
ATOM      8  C   UNL     1       9.186  11.989  19.774  0.00  0.00    +0.000 A 
ATOM      9  C   UNL     1       9.337  13.354  19.500  0.00  0.00    +0.000 A 
ATOM     10  C   UNL     1      10.019  13.748  18.353  0.00  0.00    +0.000 A 
ATOM     11 CL   UNL     1      10.193  15.426  17.998  0.00  0.00    +0.000 Cl
ATOM     12  C   UNL     1      10.561  12.799  17.490  0.00  0.00    +0.000 A 
ATOM     13  C   UNL     1      10.430  11.434  17.778  0.00  0.00    +0.000 A 
ENDBRANCH   4   7
BRANCH   1  17
ATOM     14  C   UNL     1       5.846   4.821  17.107  0.00  0.00    +0.000 A 
ATOM     15  C   UNL     1       6.468   5.821  16.359  0.00  0.00    +0.000 A 
ATOM     16  C   UNL     1       7.349   6.717  16.954  0.00  0.00    +0.000 A 
ATOM     17  C   UNL     1       7.624   6.658  18.320  0.00  0.00    +0.000 A 
ATOM     18  C   UNL     1       7.049   5.628  19.074  0.00  0.00    +0.000 A 
ATOM     19  C   UNL     1       6.152   4.721  18.465  0.00  0.00    +0.000 A 
BRANCH  14  20
ATOM     20  O   UNL     1       4.945   3.918  16.579  0.00  0.00    +0.000 OA
BRANCH  20  21
ATOM     21  C   UNL     1       4.345   3.067  17.572  0.00  0.00    +0.000 C 
BRANCH  21  22
ATOM     22  C   UNL     1       2.830   3.266  17.708  0.00  0.00    +0.000 C 
BRANCH  22  24
ATOM     23  C   UNL     1       2.775   2.821  20.082  0.00  0.00    +0.000 C 
ATOM     24  N   UNL     1       2.238   2.430  18.779  0.00  0.00    +0.000 NA
ATOM     25  C   UNL     1       0.774   2.492  18.813  0.00  0.00    +0.000 C 
ENDBRANCH  22  24
ENDBRANCH  21  22
ENDBRANCH  20  21
ENDBRANCH  14  20
ENDBRANCH   1  17
TORSDOF 6
ENDMDL
MODEL 3
REMARK VINA RESULT:      -6.9      0.640      1.239
REMARK  Name = 
REMARK  8 active torsions:
REMARK  status: ('A' for Active; 'I' for Inactive)
REMARK    1  A    between atoms: C_1  and  N_2
REMARK    2  A    between atoms: N_2  and  C_3
REMARK    3  A    between atoms: N_2  and  C_4
REMARK    4  A    between atoms: C_4  and  C_5
REMARK    5  A    between atoms: C_5  and  O_6
REMARK    6  A    between atoms: O_6  and  C_7
REMARK    7  A    between atoms: C_10  and  N_11
REMARK    8  A    between atoms: N_14  and  C_15
REMARK                            x       y       z     vdW  Elec       q    Type
REMARK                         _______ _______ _______ _____ _____    ______ ____
ROOT
ATOM      1  N   UNL     1       8.604   7.844  18.943  0.00  0.00    +0.000 N 
ATOM      2  C   UNL     1       8.590   9.166  18.518  0.00  0.00    +0.000 C 
ATOM      3  O   UNL     1       7.779   9.641  17.728  0.00  0.00    +0.000 OA
ATOM      4  N   UNL     1       9.627   9.908  19.068  0.00  0.00    +0.000 N 
ATOM      5  H   UNL     1       8.990   7.670  19.859  0.00  0.00    +0.000 HD
ATOM      6  H   UNL     1      10.477   9.382  19.211  0.00  0.00    +0.000 HD
ENDROOT
BRANCH   4   7
ATOM      7  C   UNL     1       9.771  11.283  18.757  0.00  0.00    +0.000 A 
ATOM      8  C   UNL     1      10.510  11.709  17.645  0.00  0.00    +0.000 A 
ATOM      9  C   UNL     1      10.670  13.073  17.378  0.00  0.00    +0.000 A 
ATOM     10  C   UNL     1      10.097  14.008  18.235  0.00  0.00    +0.000 A 
ATOM     11 CL   UNL     1      10.304  15.692  17.923  0.00  0.00    +0.000 Cl
ATOM     12  C   UNL     1       9.359  13.596  19.341  0.00  0.00    +0.000 A 
ATOM     13  C   UNL     1       9.180  12.229  19.595  0.00  0.00    +0.000 A 
ENDBRANCH   4   7
BRANCH   1  17
ATOM     14  C   UNL     1       6.197   4.785  17.245  0.00  0.00    +0.000 A 
ATOM     15  C   UNL     1       6.553   4.759  18.593  0.00  0.00    +0.000 A 
ATOM     16  C   UNL     1       7.321   5.775  19.151  0.00  0.00    +0.000 A 
ATOM     17  C   UNL     1       7.777   6.841  18.377  0.00  0.00    +0.000 A 
ATOM     18  C   UNL     1       7.385   6.910  17.035  0.00  0.00    +0.000 A 
ATOM     19  C   UNL     1       6.606   5.873  16.472  0.00  0.00    +0.000 A 
BRANCH  14  20
ATOM     20  O   UNL     1       5.458   3.795  16.628  0.00  0.00    +0.000 OA
BRANCH  20  21
ATOM     21  C   UNL     1       4.064   3.823  16.982  0.00  0.00    +0.000 C 
BRANCH  21  22
ATOM     22  C   UNL     1       3.623   2.610  17.811  0.00  0.00    +0.000 C 
BRANCH  22  24
ATOM     23  C   UNL     1       3.194   3.792  19.875  0.00  0.00    +0.000 C 
ATOM     24  N   UNL     1       2.603   2.956  18.831  0.00  0.00    +0.000 NA
ATOM     25  C   UNL     1       1.432   3.632  18.264  0.00  0.00    +0.000 C 
ENDBRANCH  22  24
ENDBRANCH  21  22
ENDBRANCH  20  21
ENDBRANCH  14  20
ENDBRANCH   1  17
TORSDOF 6
ENDMDL
MODEL 4
REMARK VINA RESULT:      -6.8      1.633      2.037
REMARK  Name = 
REMARK  8 active torsions:
REMARK  status: ('A' for Active; 'I' for Inactive)
REMARK    1  A    between atoms: C_1  and  N_2
REMARK    2  A    between atoms: N_2  and  C_3
REMARK    3  A    between atoms: N_2  and  C_4
REMARK    4  A    between atoms: C_4  and  C_5
REMARK    5  A    between atoms: C_5  and  O_6
REMARK    6  A    between atoms: O_6  and  C_7
REMARK    7  A    between atoms: C_10  and  N_11
REMARK    8  A    between atoms: N_14  and  C_15
REMARK                            x       y       z     vdW  Elec       q    Type
REMARK                         _______ _______ _______ _____ _____    ______ ____
ROOT
ATOM      1  N   UNL     1       8.017   8.721  17.330  0.00  0.00    +0.000 N 
ATOM      2  C   UNL     1       8.615   9.635  18.186  0.00  0.00    +0.000 C 
ATOM      3  O   UNL     1       8.844   9.437  19.377  0.00  0.00    +0.000 OA
ATOM      4  N   UNL     1       8.911  10.836  17.555  0.00  0.00    +0.000 N 
ATOM      5  H   UNL     1       8.263   8.792  16.354  0.00  0.00    +0.000 HD
ATOM      6  H   UNL     1       8.245  11.099  16.843  0.00  0.00    +0.000 HD
ENDROOT
BRANCH   4   7
ATOM      7  C   UNL     1       9.533  11.891  18.269  0.00  0.00    +0.000 A 
ATOM      8  C   UNL     1       8.812  13.015  18.691  0.00  0.00    +0.000 A 
ATOM      9  C   UNL     1       9.455  14.061  19.363  0.00  0.00    +0.000 A 
ATOM     10  C   UNL     1      10.825  13.981  19.598  0.00  0.00    +0.000 A 
ATOM     11 CL   UNL     1      11.629  15.273  20.409  0.00  0.00    +0.000 Cl
ATOM     12  C   UNL     1      11.550  12.867  19.184  0.00  0.00    +0.000 A 
ATOM     13  C   UNL     1      10.901  11.810  18.533  0.00  0.00    +0.000 A 
ENDBRANCH   4   7
BRANCH   1  17
ATOM     14  C   UNL     1       6.239   5.122  18.715  0.00  0.00    +0.000 A 
ATOM     15  C   UNL     1       5.625   5.900  17.734  0.00  0.00    +0.000 A 
ATOM     16  C   UNL     1       6.221   7.065  17.266  0.00  0.00    +0.000 A 
ATOM     17  C   UNL     1       7.443   7.504  17.776  0.00  0.00    +0.000 A 
ATOM     18  C   UNL     1       8.098   6.708  18.722  0.00  0.00    +0.000 A 
ATOM     19  C   UNL     1       7.486   5.525  19.197  0.00  0.00    +0.000 A 
BRANCH  14  20
ATOM     20  O   UNL     1       5.686   3.970  19.237  0.00  0.00    +0.000 OA
BRANCH  20  21
ATOM     21  C   UNL     1       4.331   3.746  18.810  0.00  0.00    +0.000 C 
BRANCH  21  22
ATOM     22  C   UNL     1       3.302   3.917  19.935  0.00  0.00    +0.000 C 
BRANCH  22  24
ATOM     23  C   UNL     1       1.449   2.958  21.153  0.00  0.00    +0.000 C 
ATOM     24  N   UNL     1       2.470   2.706  20.137  0.00  0.00    +0.000 NA
ATOM     25  C   UNL     1       1.830   2.238  18.903  0.00  0.00    +0.000 C 
ENDBRANCH  22  24
ENDBRANCH  21  22
ENDBRANCH  20  21
ENDBRANCH  14  20
ENDBRANCH   1  17
TORSDOF 6
ENDMDL
MODEL 5
REMARK VINA RESULT:      -6.8      1.537      1.784
REMARK  Name = 
REMARK  8 active torsions:
REMARK  status: ('A' for Active; 'I' for Inactive)
REMARK    1  A    between atoms: C_1  and  N_2
REMARK    2  A    between atoms: N_2  and  C_3
REMARK    3  A    between atoms: N_2  and  C_4
REMARK    4  A    between atoms: C_4  and  C_5
REMARK    5  A    between atoms: C_5  and  O_6
REMARK    6  A    between atoms: O_6  and  C_7
REMARK    7  A    between atoms: C_10  and  N_11
REMARK    8  A    between atoms: N_14  and  C_15
REMARK                            x       y       z     vdW  Elec       q    Type
REMARK                         _______ _______ _______ _____ _____    ______ ____
ROOT
ATOM      1  N   UNL     1       7.870   8.650  17.318  0.00  0.00    +0.000 N 
ATOM      2  C   UNL     1       8.558   9.545  18.125  0.00  0.00    +0.000 C 
ATOM      3  O   UNL     1       8.872   9.338  19.295  0.00  0.00    +0.000 OA
ATOM      4  N   UNL     1       8.840  10.737  17.471  0.00  0.00    +0.000 N 
ATOM      5  H   UNL     1       8.041   8.715  16.326  0.00  0.00    +0.000 HD
ATOM      6  H   UNL     1       8.130  11.021  16.812  0.00  0.00    +0.000 HD
ENDROOT
BRANCH   4   7
ATOM      7  C   UNL     1       9.547  11.772  18.134  0.00  0.00    +0.000 A 
ATOM      8  C   UNL     1       8.884  12.881  18.675  0.00  0.00    +0.000 A 
ATOM      9  C   UNL     1       9.607  13.908  19.293  0.00  0.00    +0.000 A 
ATOM     10  C   UNL     1      10.994  13.826  19.354  0.00  0.00    +0.000 A 
ATOM     11 CL   UNL     1      11.893  15.096  20.098  0.00  0.00    +0.000 Cl
ATOM     12  C   UNL     1      11.662  12.727  18.822  0.00  0.00    +0.000 A 
ATOM     13  C   UNL     1      10.937  11.687  18.224  0.00  0.00    +0.000 A 
ENDBRANCH   4   7
BRANCH   1  17
ATOM     14  C   UNL     1       6.201   5.009  18.733  0.00  0.00    +0.000 A 
ATOM     15  C   UNL     1       7.458   5.442  19.158  0.00  0.00    +0.000 A 
ATOM     16  C   UNL     1       7.990   6.646  18.711  0.00  0.00    +0.000 A 
ATOM     17  C   UNL     1       7.295   7.450  17.809  0.00  0.00    +0.000 A 
ATOM     18  C   UNL     1       6.011   7.057  17.413  0.00  0.00    +0.000 A 
ATOM     19  C   UNL     1       5.475   5.830  17.868  0.00  0.00    +0.000 A 
BRANCH  14  20
ATOM     20  O   UNL     1       5.630   3.814  19.121  0.00  0.00    +0.000 OA
BRANCH  20  21
ATOM     21  C   UNL     1       4.208   3.901  19.316  0.00  0.00    +0.000 C 
BRANCH  21  22
ATOM     22  C   UNL     1       3.520   2.532  19.397  0.00  0.00    +0.000 C 
BRANCH  22  24
ATOM     23  C   UNL     1       1.180   2.250  18.865  0.00  0.00    +0.000 C 
ATOM     24  N   UNL     1       2.532   2.324  18.311  0.00  0.00    +0.000 NA
ATOM     25  C   UNL     1       2.584   3.366  17.280  0.00  0.00    +0.000 C 
ENDBRANCH  22  24
ENDBRANCH  21  22
ENDBRANCH  20  21
ENDBRANCH  14  20
ENDBRANCH   1  17
TORSDOF 6
ENDMDL
MODEL 6
REMARK VINA RESULT:      -6.8      0.930      1.735
REMARK  Name = 
REMARK  8 active torsions:
REMARK  status: ('A' for Active; 'I' for Inactive)
REMARK    1  A    between atoms: C_1  and  N_2
REMARK    2  A    between atoms: N_2  and  C_3
REMARK    3  A    between atoms: N_2  and  C_4
REMARK    4  A    between atoms: C_4  and  C_5
REMARK    5  A    between atoms: C_5  and  O_6
REMARK    6  A    between atoms: O_6  and  C_7
REMARK    7  A    between atoms: C_10  and  N_11
REMARK    8  A    between atoms: N_14  and  C_15
REMARK                            x       y       z     vdW  Elec       q    Type
REMARK                         _______ _______ _______ _____ _____    ______ ____
ROOT
ATOM      1  N   UNL     1       8.656   7.888  18.949  0.00  0.00    +0.000 N 
ATOM      2  C   UNL     1       8.611   9.209  18.526  0.00  0.00    +0.000 C 
ATOM      3  O   UNL     1       7.742   9.685  17.799  0.00  0.00    +0.000 OA
ATOM      4  N   UNL     1       9.686   9.952  18.996  0.00  0.00    +0.000 N 
ATOM      5  H   UNL     1       9.111   7.714  19.833  0.00  0.00    +0.000 HD
ATOM      6  H   UNL     1      10.545   9.425  19.073  0.00  0.00    +0.000 HD
ENDROOT
BRANCH   4   7
ATOM      7  C   UNL     1       9.807  11.327  18.674  0.00  0.00    +0.000 A 
ATOM      8  C   UNL     1      10.571  11.759  17.583  0.00  0.00    +0.000 A 
ATOM      9  C   UNL     1      10.705  13.125  17.306  0.00  0.00    +0.000 A 
ATOM     10  C   UNL     1      10.082  14.054  18.134  0.00  0.00    +0.000 A 
ATOM     11 CL   UNL     1      10.257  15.739  17.811  0.00  0.00    +0.000 Cl
ATOM     12  C   UNL     1       9.318  13.634  19.219  0.00  0.00    +0.000 A 
ATOM     13  C   UNL     1       9.165  12.266  19.482  0.00  0.00    +0.000 A 
ENDBRANCH   4   7
BRANCH   1  17
ATOM     14  C   UNL     1       5.990   4.939  17.456  0.00  0.00    +0.000 A 
ATOM     15  C   UNL     1       6.398   6.011  16.663  0.00  0.00    +0.000 A 
ATOM     16  C   UNL     1       7.290   6.962  17.147  0.00  0.00    +0.000 A 
ATOM     17  C   UNL     1       7.789   6.885  18.447  0.00  0.00    +0.000 A 
ATOM     18  C   UNL     1       7.431   5.787  19.238  0.00  0.00    +0.000 A 
ATOM     19  C   UNL     1       6.521   4.825  18.742  0.00  0.00    +0.000 A 
BRANCH  14  20
ATOM     20  O   UNL     1       5.089   3.978  17.041  0.00  0.00    +0.000 OA
BRANCH  20  21
ATOM     21  C   UNL     1       3.725   4.298  17.368  0.00  0.00    +0.000 C 
BRANCH  21  22
ATOM     22  C   UNL     1       3.191   3.520  18.576  0.00  0.00    +0.000 C 
BRANCH  22  24
ATOM     23  C   UNL     1       0.996   2.513  18.662  0.00  0.00    +0.000 C 
ATOM     24  N   UNL     1       1.747   3.758  18.816  0.00  0.00    +0.000 NA
ATOM     25  C   UNL     1       1.472   4.338  20.134  0.00  0.00    +0.000 C 
ENDBRANCH  22  24
ENDBRANCH  21  22
ENDBRANCH  20  21
ENDBRANCH  14  20
ENDBRANCH   1  17
TORSDOF 6
ENDMDL
MODEL 7
REMARK VINA RESULT:      -6.8      6.806      8.521
REMARK  Name = 
REMARK  8 active torsions:
REMARK  status: ('A' for Active; 'I' for Inactive)
REMARK    1  A    between atoms: C_1  and  N_2
REMARK    2  A    between atoms: N_2  and  C_3
REMARK    3  A    between atoms: N_2  and  C_4
REMARK    4  A    between atoms: C_4  and  C_5
REMARK    5  A    between atoms: C_5  and  O_6
REMARK    6  A    between atoms: O_6  and  C_7
REMARK    7  A    between atoms: C_10  and  N_11
REMARK    8  A    between atoms: N_14  and  C_15
REMARK                            x       y       z     vdW  Elec       q    Type
REMARK                         _______ _______ _______ _____ _____    ______ ____
ROOT
ATOM      1  N   UNL     1       1.703   8.483  21.151  0.00  0.00    +0.000 N 
ATOM      2  C   UNL     1       0.525   9.216  21.123  0.00  0.00    +0.000 C 
ATOM      3  O   UNL     1      -0.450   8.952  20.424  0.00  0.00    +0.000 OA
ATOM      4  N   UNL     1       0.570  10.321  21.963  0.00  0.00    +0.000 N 
ATOM      5  H   UNL     1       2.228   8.508  22.013  0.00  0.00    +0.000 HD
ATOM      6  H   UNL     1       1.483  10.745  22.034  0.00  0.00    +0.000 HD
ENDROOT
BRANCH   4   7
ATOM      7  C   UNL     1      -0.547  11.186  22.074  0.00  0.00    +0.000 A 
ATOM      8  C   UNL     1      -1.426  11.111  23.163  0.00  0.00    +0.000 A 
ATOM      9  C   UNL     1      -2.543  11.952  23.234  0.00  0.00    +0.000 A 
ATOM     10  C   UNL     1      -2.783  12.857  22.204  0.00  0.00    +0.000 A 
ATOM     11 CL   UNL     1      -4.167  13.883  22.274  0.00  0.00    +0.000 Cl
ATOM     12  C   UNL     1      -1.915  12.940  21.119  0.00  0.00    +0.000 A 
ATOM     13  C   UNL     1      -0.783  12.115  21.061  0.00  0.00    +0.000 A 
ENDBRANCH   4   7
BRANCH   1  17
ATOM     14  C   UNL     1       2.461   5.350  18.386  0.00  0.00    +0.000 A 
ATOM     15  C   UNL     1       2.631   6.687  18.027  0.00  0.00    +0.000 A 
ATOM     16  C   UNL     1       2.404   7.709  18.942  0.00  0.00    +0.000 A 
ATOM     17  C   UNL     1       1.982   7.432  20.242  0.00  0.00    +0.000 A 
ATOM     18  C   UNL     1       1.859   6.094  20.634  0.00  0.00    +0.000 A 
ATOM     19  C   UNL     1       2.087   5.058  19.699  0.00  0.00    +0.000 A 
BRANCH  14  20
ATOM     20  O   UNL     1       2.647   4.294  17.516  0.00  0.00    +0.000 OA
BRANCH  20  21
ATOM     21  C   UNL     1       3.837   3.534  17.791  0.00  0.00    +0.000 C 
BRANCH  21  22
ATOM     22  C   UNL     1       5.113   4.184  17.242  0.00  0.00    +0.000 C 
BRANCH  22  24
ATOM     23  C   UNL     1       7.460   4.608  17.633  0.00  0.00    +0.000 C 
ATOM     24  N   UNL     1       6.177   4.310  18.268  0.00  0.00    +0.000 NA
ATOM     25  C   UNL     1       5.881   5.329  19.279  0.00  0.00    +0.000 C 
ENDBRANCH  22  24
ENDBRANCH  21  22
ENDBRANCH  20  21
ENDBRANCH  14  20
ENDBRANCH   1  17
TORSDOF 6
ENDMDL
MODEL 8
REMARK VINA RESULT:      -6.7      6.184      7.379
REMARK  Name = 
REMARK  8 active torsions:
REMARK  status: ('A' for Active; 'I' for Inactive)
REMARK    1  A    between atoms: C_1  and  N_2
REMARK    2  A    between atoms: N_2  and  C_3
REMARK    3  A    between atoms: N_2  and  C_4
REMARK    4  A    between atoms: C_4  and  C_5
REMARK    5  A    between atoms: C_5  and  O_6
REMARK    6  A    between atoms: O_6  and  C_7
REMARK    7  A    between atoms: C_10  and  N_11
REMARK    8  A    between atoms: N_14  and  C_15
REMARK                            x       y       z     vdW  Elec       q    Type
REMARK                         _______ _______ _______ _____ _____    ______ ____
ROOT
ATOM      1  N   UNL     1       2.638   8.309  17.695  0.00  0.00    +0.000 N 
ATOM      2  C   UNL     1       1.712   8.991  18.472  0.00  0.00    +0.000 C 
ATOM      3  O   UNL     1       1.425   8.709  19.633  0.00  0.00    +0.000 OA
ATOM      4  N   UNL     1       1.108  10.033  17.780  0.00  0.00    +0.000 N 
ATOM      5  H   UNL     1       3.101   8.842  16.974  0.00  0.00    +0.000 HD
ATOM      6  H   UNL     1       0.976   9.849  16.796  0.00  0.00    +0.000 HD
ENDROOT
BRANCH   4   7
ATOM      7  C   UNL     1       0.139  10.851  18.414  0.00  0.00    +0.000 A 
ATOM      8  C   UNL     1       0.510  11.914  19.247  0.00  0.00    +0.000 A 
ATOM      9  C   UNL     1      -0.464  12.686  19.891  0.00  0.00    +0.000 A 
ATOM     10  C   UNL     1      -1.809  12.379  19.707  0.00  0.00    +0.000 A 
ATOM     11 CL   UNL     1      -3.015  13.313  20.511  0.00  0.00    +0.000 Cl
ATOM     12  C   UNL     1      -2.188  11.326  18.879  0.00  0.00    +0.000 A 
ATOM     13  C   UNL     1      -1.213  10.569  18.216  0.00  0.00    +0.000 A 
ENDBRANCH   4   7
BRANCH   1  17
ATOM     14  C   UNL     1       4.494   4.707  18.968  0.00  0.00    +0.000 A 
ATOM     15  C   UNL     1       3.518   5.331  19.746  0.00  0.00    +0.000 A 
ATOM     16  C   UNL     1       2.896   6.497  19.314  0.00  0.00    +0.000 A 
ATOM     17  C   UNL     1       3.241   7.091  18.101  0.00  0.00    +0.000 A 
ATOM     18  C   UNL     1       4.180   6.450  17.285  0.00  0.00    +0.000 A 
ATOM     19  C   UNL     1       4.812   5.266  17.729  0.00  0.00    +0.000 A 
BRANCH  14  20
ATOM     20  O   UNL     1       5.165   3.563  19.353  0.00  0.00    +0.000 OA
BRANCH  20  21
ATOM     21  C   UNL     1       4.300   2.559  19.912  0.00  0.00    +0.000 C 
BRANCH  21  22
ATOM     22  C   UNL     1       3.324   1.959  18.892  0.00  0.00    +0.000 C 
BRANCH  22  24
ATOM     23  C   UNL     1       1.868   2.394  20.771  0.00  0.00    +0.000 C 
ATOM     24  N   UNL     1       1.923   1.953  19.377  0.00  0.00    +0.000 NA
ATOM     25  C   UNL     1       1.030   2.784  18.564  0.00  0.00    +0.000 C 
ENDBRANCH  22  24
ENDBRANCH  21  22
ENDBRANCH  20  21
ENDBRANCH  14  20
ENDBRANCH   1  17
TORSDOF 6
ENDMDL
MODEL 9
REMARK VINA RESULT:      -6.7      1.651      2.257
REMARK  Name = 
REMARK  8 active torsions:
REMARK  status: ('A' for Active; 'I' for Inactive)
REMARK    1  A    between atoms: C_1  and  N_2
REMARK    2  A    between atoms: N_2  and  C_3
REMARK    3  A    between atoms: N_2  and  C_4
REMARK    4  A    between atoms: C_4  and  C_5
REMARK    5  A    between atoms: C_5  and  O_6
REMARK    6  A    between atoms: O_6  and  C_7
REMARK    7  A    between atoms: C_10  and  N_11
REMARK    8  A    between atoms: N_14  and  C_15
REMARK                            x       y       z     vdW  Elec       q    Type
REMARK                         _______ _______ _______ _____ _____    ______ ____
ROOT
ATOM      1  N   UNL     1       7.917   8.737  17.327  0.00  0.00    +0.000 N 
ATOM      2  C   UNL     1       8.561   9.640  18.162  0.00  0.00    +0.000 C 
ATOM      3  O   UNL     1       8.854   9.426  19.336  0.00  0.00    +0.000 OA
ATOM      4  N   UNL     1       8.823  10.849  17.531  0.00  0.00    +0.000 N 
ATOM      5  H   UNL     1       8.110   8.821  16.341  0.00  0.00    +0.000 HD
ATOM      6  H   UNL     1       8.120  11.121  16.859  0.00  0.00    +0.000 HD
ENDROOT
BRANCH   4   7
ATOM      7  C   UNL     1       9.485  11.894  18.223  0.00  0.00    +0.000 A 
ATOM      8  C   UNL     1      10.859  11.840  18.491  0.00  0.00    +0.000 A 
ATOM      9  C   UNL     1      11.484  12.867  19.208  0.00  0.00    +0.000 A 
ATOM     10  C   UNL     1      10.725  13.939  19.667  0.00  0.00    +0.000 A 
ATOM     11 CL   UNL     1      11.483  15.199  20.567  0.00  0.00    +0.000 Cl
ATOM     12  C   UNL     1       9.359  14.003  19.404  0.00  0.00    +0.000 A 
ATOM     13  C   UNL     1       8.738  12.987  18.665  0.00  0.00    +0.000 A 
ENDBRANCH   4   7
BRANCH   1  17
ATOM     14  C   UNL     1       6.215   5.121  18.764  0.00  0.00    +0.000 A 
ATOM     15  C   UNL     1       5.530   5.933  17.859  0.00  0.00    +0.000 A 
ATOM     16  C   UNL     1       6.101   7.103  17.373  0.00  0.00    +0.000 A 
ATOM     17  C   UNL     1       7.367   7.515  17.788  0.00  0.00    +0.000 A 
ATOM     18  C   UNL     1       8.089   6.686  18.655  0.00  0.00    +0.000 A 
ATOM     19  C   UNL     1       7.503   5.497  19.149  0.00  0.00    +0.000 A 
BRANCH  14  20
ATOM     20  O   UNL     1       5.693   3.961  19.300  0.00  0.00    +0.000 OA
BRANCH  20  21
ATOM     21  C   UNL     1       4.402   3.618  18.765  0.00  0.00    +0.000 C 
BRANCH  21  22
ATOM     22  C   UNL     1       3.288   3.615  19.818  0.00  0.00    +0.000 C 
BRANCH  22  24
ATOM     23  C   UNL     1       2.091   4.280  17.827  0.00  0.00    +0.000 C 
ATOM     24  N   UNL     1       1.964   3.965  19.250  0.00  0.00    +0.000 NA
ATOM     25  C   UNL     1       0.964   2.908  19.431  0.00  0.00    +0.000 C 
ENDBRANCH  22  24
ENDBRANCH  21  22
ENDBRANCH  20  21
ENDBRANCH  14  20
ENDBRANCH   1  17
TORSDOF 6
ENDMDL
