MODEL 1
REMARK VINA RESULT:      -6.5      0.000      0.000
REMARK  Name = 
REMARK  8 active torsions:
REMARK  status: ('A' for Active; 'I' for Inactive)
REMARK    1  A    between atoms: C_1  and  C_2
REMARK    2  A    between atoms: C_2  and  C_3
REMARK    3  A    between atoms: C_8  and  S_9
REMARK    4  A    between atoms: S_9  and  N_12
REMARK    5  A    between atoms: C_15  and  C_16
REMARK    6  A    between atoms: C_18  and  C_19
REMARK    7  A    between atoms: C_19  and  N_20
REMARK    8  A    between atoms: C_21  and  C_23
REMARK                            x       y       z     vdW  Elec       q    Type
REMARK                         _______ _______ _______ _____ _____    ______ ____
ROOT
ATOM      1  N   UNL     1      -3.400  13.417  21.963  0.00  0.00    +0.000 NA
ATOM      2  C   UNL     1      -3.026  12.497  23.037  0.00  0.00    +0.000 C 
ATOM      3  C   UNL     1      -1.538  12.451  23.377  0.00  0.00    +0.000 C 
ATOM      4  C   UNL     1      -0.629  13.431  22.634  0.00  0.00    +0.000 C 
ATOM      5  C   UNL     1      -1.346  14.760  22.460  0.00  0.00    +0.000 C 
ATOM      6  C   UNL     1      -2.664  14.661  21.720  0.00  0.00    +0.000 C 
ENDROOT
BRANCH   4   7
ATOM      7  C   UNL     1      -0.001  12.848  21.376  0.00  0.00    +0.000 A 
ATOM      8  N   UNL     1      -0.237  11.673  20.820  0.00  0.00    +0.000 NA
ATOM      9  C   UNL     1       0.488  11.536  19.622  0.00  0.00    +0.000 A 
ATOM     10  C   UNL     1       1.245  12.645  19.295  0.00  0.00    +0.000 A 
ATOM     11  S   UNL     1       1.109  13.845  20.496  0.00  0.00    +0.000 S 
BRANCH   9  12
ATOM     12  C   UNL     1       0.335  10.310  18.760  0.00  0.00    +0.000 C 
BRANCH  12  13
ATOM     13  N   UNL     1       1.178   9.207  19.220  0.00  0.00    +0.000 N 
ATOM     14  C   UNL     1       2.006   8.519  18.351  0.00  0.00    +0.000 C 
ATOM     15  O   UNL     1       2.136   8.906  17.185  0.00  0.00    +0.000 OA
ATOM     16  H   UNL     1       1.025   8.860  20.156  0.00  0.00    +0.000 HD
BRANCH  14  17
ATOM     17  C   UNL     1       2.736   7.253  18.857  0.00  0.00    +0.000 C 
ATOM     18  C   UNL     1       2.058   6.536  20.066  0.00  0.00    +0.000 C 
ATOM     19  C   UNL     1       2.743   5.244  19.595  0.00  0.00    +0.000 C 
ATOM     20  C   UNL     1       2.726   5.860  18.173  0.00  0.00    +0.000 C 
ENDBRANCH  14  17
ENDBRANCH  12  13
ENDBRANCH   9  12
ENDBRANCH   4   7
BRANCH   1  21
ATOM     21  S   UNL     1      -4.944  13.250  21.258  0.00  0.00    +0.000 S 
ATOM     22  O   UNL     1      -5.506  14.573  21.099  0.00  0.00    +0.000 OA
ATOM     23  O   UNL     1      -5.637  12.205  21.985  0.00  0.00    +0.000 OA
BRANCH  21  29
ATOM     24  C   UNL     1      -5.696  12.539  18.667  0.00  0.00    +0.000 A 
ATOM     25  C   UNL     1      -5.423  11.983  17.398  0.00  0.00    +0.000 A 
ATOM     26  C   UNL     1      -4.194  11.392  17.124  0.00  0.00    +0.000 A 
ATOM     27  C   UNL     1      -3.185  11.441  18.076  0.00  0.00    +0.000 A 
ATOM     28  C   UNL     1      -3.396  12.088  19.294  0.00  0.00    +0.000 A 
ATOM     29  C   UNL     1      -4.654  12.609  19.614  0.00  0.00    +0.000 A 
BRANCH  24  31
ATOM     30  C   UNL     1      -7.776  13.470  17.714  0.00  0.00    +0.000 C 
ATOM     31  C   UNL     1      -7.150  12.833  18.955  0.00  0.00    +0.000 C 
ENDBRANCH  24  31
ENDBRANCH  21  29
ENDBRANCH   1  21
TORSDOF 7
ENDMDL
MODEL 2
REMARK VINA RESULT:      -6.4      3.810      5.730
REMARK  Name = 
REMARK  8 active torsions:
REMARK  status: ('A' for Active; 'I' for Inactive)
REMARK    1  A    between atoms: C_1  and  C_2
REMARK    2  A    between atoms: C_2  and  C_3
REMARK    3  A    between atoms: C_8  and  S_9
REMARK    4  A    between atoms: S_9  and  N_12
REMARK    5  A    between atoms: C_15  and  C_16
REMARK    6  A    between atoms: C_18  and  C_19
REMARK    7  A    between atoms: C_19  and  N_20
REMARK    8  A    between atoms: C_21  and  C_23
REMARK                            x       y       z     vdW  Elec       q    Type
REMARK                         _______ _______ _______ _____ _____    ______ ____
ROOT
ATOM      1  N   UNL     1       0.865  13.898  20.180  0.00  0.00    +0.000 NA
ATOM      2  C   UNL     1       0.329  13.594  18.853  0.00  0.00    +0.000 C 
ATOM      3  C   UNL     1      -0.689  12.458  18.798  0.00  0.00    +0.000 C 
ATOM      4  C   UNL     1      -1.103  11.836  20.133  0.00  0.00    +0.000 C 
ATOM      5  C   UNL     1      -1.207  12.922  21.191  0.00  0.00    +0.000 C 
ATOM      6  C   UNL     1       0.069  13.712  21.396  0.00  0.00    +0.000 C 
ENDROOT
BRANCH   4   7
ATOM      7  C   UNL     1      -0.283  10.614  20.518  0.00  0.00    +0.000 A 
ATOM      8  N   UNL     1       0.484   9.871  19.738  0.00  0.00    +0.000 NA
ATOM      9  C   UNL     1       1.137   8.875  20.487  0.00  0.00    +0.000 A 
ATOM     10  C   UNL     1       0.853   8.913  21.839  0.00  0.00    +0.000 A 
ATOM     11  S   UNL     1      -0.268  10.148  22.186  0.00  0.00    +0.000 S 
BRANCH   9  12
ATOM     12  C   UNL     1       2.126   7.942  19.838  0.00  0.00    +0.000 C 
BRANCH  12  13
ATOM     13  N   UNL     1       1.978   6.567  20.315  0.00  0.00    +0.000 N 
ATOM     14  C   UNL     1       2.641   5.517  19.708  0.00  0.00    +0.000 C 
ATOM     15  O   UNL     1       3.468   5.739  18.818  0.00  0.00    +0.000 OA
ATOM     16  H   UNL     1       1.260   6.385  21.002  0.00  0.00    +0.000 HD
BRANCH  14  17
ATOM     17  C   UNL     1       2.307   4.070  20.142  0.00  0.00    +0.000 C 
ATOM     18  C   UNL     1       2.325   3.819  21.682  0.00  0.00    +0.000 C 
ATOM     19  C   UNL     1       1.350   2.658  21.435  0.00  0.00    +0.000 C 
ATOM     20  C   UNL     1       0.893   3.430  20.171  0.00  0.00    +0.000 C 
ENDBRANCH  14  17
ENDBRANCH  12  13
ENDBRANCH   9  12
ENDBRANCH   4   7
BRANCH   1  21
ATOM     21  S   UNL     1       2.269  14.860  20.282  0.00  0.00    +0.000 S 
ATOM     22  O   UNL     1       3.392  14.057  19.850  0.00  0.00    +0.000 OA
ATOM     23  O   UNL     1       2.248  15.516  21.574  0.00  0.00    +0.000 OA
BRANCH  21  29
ATOM     24  C   UNL     1       1.040  17.119  19.197  0.00  0.00    +0.000 A 
ATOM     25  C   UNL     1       0.888  18.089  18.183  0.00  0.00    +0.000 A 
ATOM     26  C   UNL     1       1.629  18.020  17.009  0.00  0.00    +0.000 A 
ATOM     27  C   UNL     1       2.607  17.044  16.874  0.00  0.00    +0.000 A 
ATOM     28  C   UNL     1       2.854  16.146  17.914  0.00  0.00    +0.000 A 
ATOM     29  C   UNL     1       2.056  16.151  19.062  0.00  0.00    +0.000 A 
BRANCH  24  31
ATOM     30  C   UNL     1      -1.375  16.762  19.579  0.00  0.00    +0.000 C 
ATOM     31  C   UNL     1      -0.043  17.096  20.252  0.00  0.00    +0.000 C 
ENDBRANCH  24  31
ENDBRANCH  21  29
ENDBRANCH   1  21
TORSDOF 7
ENDMDL
MODEL 3
REMARK VINA RESULT:      -6.4      2.623      3.685
REMARK  Name = 
REMARK  8 active torsions:
REMARK  status: ('A' for Active; 'I' for Inactive)
REMARK    1  A    between atoms: C_1  and  C_2
REMARK    2  A    between atoms: C_2  and  C_3
REMARK    3  A    between atoms: C_8  and  S_9
REMARK    4  A    between atoms: S_9  and  N_12
REMARK    5  A    between atoms: C_15  and  C_16
REMARK    6  A    between atoms: C_18  and  C_19
REMARK    7  A    between atoms: C_19  and  N_20
REMARK    8  A    between atoms: C_21  and  C_23
REMARK                            x       y       z     vdW  Elec       q    Type
REMARK                         _______ _______ _______ _____ _____    ______ ____
ROOT
ATOM      1  N   UNL     1      -2.746  11.853  18.803  0.00  0.00    +0.000 NA
ATOM      2  C   UNL     1      -2.821  12.397  20.159  0.00  0.00    +0.000 C 
ATOM      3  C   UNL     1      -1.483  12.573  20.874  0.00  0.00    +0.000 C 
ATOM      4  C   UNL     1      -0.223  12.257  20.066  0.00  0.00    +0.000 C 
ATOM      5  C   UNL     1      -0.405  12.724  18.632  0.00  0.00    +0.000 C 
ATOM      6  C   UNL     1      -1.599  12.113  17.928  0.00  0.00    +0.000 C 
ENDROOT
BRANCH   4   7
ATOM      7  C   UNL     1       0.272  10.828  20.240  0.00  0.00    +0.000 A 
ATOM      8  N   UNL     1       0.961  10.097  19.382  0.00  0.00    +0.000 NA
ATOM      9  C   UNL     1       1.294   8.851  19.945  0.00  0.00    +0.000 A 
ATOM     10  C   UNL     1       0.856   8.690  21.246  0.00  0.00    +0.000 A 
ATOM     11  S   UNL     1      -0.020  10.056  21.763  0.00  0.00    +0.000 S 
BRANCH   9  12
ATOM     12  C   UNL     1       2.143   7.862  19.191  0.00  0.00    +0.000 C 
BRANCH  12  13
ATOM     13  N   UNL     1       2.184   6.558  19.852  0.00  0.00    +0.000 N 
ATOM     14  C   UNL     1       2.449   5.398  19.147  0.00  0.00    +0.000 C 
ATOM     15  O   UNL     1       2.774   5.459  17.956  0.00  0.00    +0.000 OA
ATOM     16  H   UNL     1       1.863   6.507  20.808  0.00  0.00    +0.000 HD
BRANCH  14  17
ATOM     17  C   UNL     1       2.304   4.036  19.864  0.00  0.00    +0.000 C 
ATOM     18  C   UNL     1       2.089   4.119  21.407  0.00  0.00    +0.000 C 
ATOM     19  C   UNL     1       1.395   2.752  21.316  0.00  0.00    +0.000 C 
ATOM     20  C   UNL     1       1.044   3.129  19.854  0.00  0.00    +0.000 C 
ENDBRANCH  14  17
ENDBRANCH  12  13
ENDBRANCH   9  12
ENDBRANCH   4   7
BRANCH   1  21
ATOM     21  S   UNL     1      -4.178  11.261  18.090  0.00  0.00    +0.000 S 
ATOM     22  O   UNL     1      -4.157   9.817  18.179  0.00  0.00    +0.000 OA
ATOM     23  O   UNL     1      -4.344  11.948  16.825  0.00  0.00    +0.000 OA
BRANCH  21  29
ATOM     24  C   UNL     1      -6.545  10.955  19.537  0.00  0.00    +0.000 A 
ATOM     25  C   UNL     1      -7.593  11.464  20.333  0.00  0.00    +0.000 A 
ATOM     26  C   UNL     1      -7.682  12.822  20.619  0.00  0.00    +0.000 A 
ATOM     27  C   UNL     1      -6.669  13.676  20.202  0.00  0.00    +0.000 A 
ATOM     28  C   UNL     1      -5.564  13.174  19.512  0.00  0.00    +0.000 A 
ATOM     29  C   UNL     1      -5.508  11.826  19.145  0.00  0.00    +0.000 A 
BRANCH  24  31
ATOM     30  C   UNL     1      -7.265   8.673  20.151  0.00  0.00    +0.000 C 
ATOM     31  C   UNL     1      -6.741   9.550  19.014  0.00  0.00    +0.000 C 
ENDBRANCH  24  31
ENDBRANCH  21  29
ENDBRANCH   1  21
TORSDOF 7
ENDMDL
MODEL 4
REMARK VINA RESULT:      -6.3      3.284      7.845
REMARK  Name = 
REMARK  8 active torsions:
REMARK  status: ('A' for Active; 'I' for Inactive)
REMARK    1  A    between atoms: C_1  and  C_2
REMARK    2  A    between atoms: C_2  and  C_3
REMARK    3  A    between atoms: C_8  and  S_9
REMARK    4  A    between atoms: S_9  and  N_12
REMARK    5  A    between atoms: C_15  and  C_16
REMARK    6  A    between atoms: C_18  and  C_19
REMARK    7  A    between atoms: C_19  and  N_20
REMARK    8  A    between atoms: C_21  and  C_23
REMARK                            x       y       z     vdW  Elec       q    Type
REMARK                         _______ _______ _______ _____ _____    ______ ____
ROOT
ATOM      1  N   UNL     1      -5.259  11.147  18.123  0.00  0.00    +0.000 NA
ATOM      2  C   UNL     1      -6.121  10.123  18.713  0.00  0.00    +0.000 C 
ATOM      3  C   UNL     1      -7.297  10.645  19.535  0.00  0.00    +0.000 C 
ATOM      4  C   UNL     1      -7.496  12.161  19.570  0.00  0.00    +0.000 C 
ATOM      5  C   UNL     1      -7.182  12.748  18.204  0.00  0.00    +0.000 C 
ATOM      6  C   UNL     1      -5.781  12.453  17.709  0.00  0.00    +0.000 C 
ENDROOT
BRANCH   4   7
ATOM      7  C   UNL     1      -6.821  12.839  20.753  0.00  0.00    +0.000 A 
ATOM      8  N   UNL     1      -6.042  12.290  21.668  0.00  0.00    +0.000 NA
ATOM      9  C   UNL     1      -5.550  13.266  22.554  0.00  0.00    +0.000 A 
ATOM     10  C   UNL     1      -5.965  14.551  22.258  0.00  0.00    +0.000 A 
ATOM     11  S   UNL     1      -7.012  14.554  20.914  0.00  0.00    +0.000 S 
BRANCH   9  12
ATOM     12  C   UNL     1      -4.579  12.903  23.647  0.00  0.00    +0.000 C 
BRANCH  12  13
ATOM     13  N   UNL     1      -4.216  14.060  24.465  0.00  0.00    +0.000 N 
ATOM     14  C   UNL     1      -2.909  14.503  24.548  0.00  0.00    +0.000 C 
ATOM     15  O   UNL     1      -2.037  13.996  23.835  0.00  0.00    +0.000 OA
ATOM     16  H   UNL     1      -4.918  14.432  25.088  0.00  0.00    +0.000 HD
BRANCH  14  17
ATOM     17  C   UNL     1      -2.559  15.615  25.564  0.00  0.00    +0.000 C 
ATOM     18  C   UNL     1      -1.033  15.838  25.805  0.00  0.00    +0.000 C 
ATOM     19  C   UNL     1      -1.377  17.278  26.214  0.00  0.00    +0.000 C 
ATOM     20  C   UNL     1      -2.623  17.144  25.301  0.00  0.00    +0.000 C 
ENDBRANCH  14  17
ENDBRANCH  12  13
ENDBRANCH   9  12
ENDBRANCH   4   7
BRANCH   1  21
ATOM     21  S   UNL     1      -3.731  10.674  17.533  0.00  0.00    +0.000 S 
ATOM     22  O   UNL     1      -3.545  11.284  16.235  0.00  0.00    +0.000 OA
ATOM     23  O   UNL     1      -3.618   9.242  17.730  0.00  0.00    +0.000 OA
BRANCH  21  29
ATOM     24  C   UNL     1      -1.167  11.104  18.550  0.00  0.00    +0.000 A 
ATOM     25  C   UNL     1      -0.276  11.692  19.472  0.00  0.00    +0.000 A 
ATOM     26  C   UNL     1      -0.744  12.467  20.528  0.00  0.00    +0.000 A 
ATOM     27  C   UNL     1      -2.100  12.752  20.618  0.00  0.00    +0.000 A 
ATOM     28  C   UNL     1      -2.985  12.276  19.650  0.00  0.00    +0.000 A 
ATOM     29  C   UNL     1      -2.538  11.425  18.634  0.00  0.00    +0.000 A 
BRANCH  24  31
ATOM     30  C   UNL     1       0.800   9.650  18.205  0.00  0.00    +0.000 C 
ATOM     31  C   UNL     1      -0.584  10.022  17.671  0.00  0.00    +0.000 C 
ENDBRANCH  24  31
ENDBRANCH  21  29
ENDBRANCH   1  21
TORSDOF 7
ENDMDL
MODEL 5
REMARK VINA RESULT:      -6.2      1.502      1.835
REMARK  Name = 
REMARK  8 active torsions:
REMARK  status: ('A' for Active; 'I' for Inactive)
REMARK    1  A    between atoms: C_1  and  C_2
REMARK    2  A    between atoms: C_2  and  C_3
REMARK    3  A    between atoms: C_8  and  S_9
REMARK    4  A    between atoms: S_9  and  N_12
REMARK    5  A    between atoms: C_15  and  C_16
REMARK    6  A    between atoms: C_18  and  C_19
REMARK    7  A    between atoms: C_19  and  N_20
REMARK    8  A    between atoms: C_21  and  C_23
REMARK                            x       y       z     vdW  Elec       q    Type
REMARK                         _______ _______ _______ _____ _____    ______ ____
ROOT
ATOM      1  N   UNL     1      -3.057  13.031  21.155  0.00  0.00    +0.000 NA
ATOM      2  C   UNL     1      -2.993  12.517  22.523  0.00  0.00    +0.000 C 
ATOM      3  C   UNL     1      -1.594  12.419  23.126  0.00  0.00    +0.000 C 
ATOM      4  C   UNL     1      -0.438  12.954  22.278  0.00  0.00    +0.000 C 
ATOM      5  C   UNL     1      -0.882  14.208  21.545  0.00  0.00    +0.000 C 
ATOM      6  C   UNL     1      -2.089  14.009  20.651  0.00  0.00    +0.000 C 
ENDROOT
BRANCH   4   7
ATOM      7  C   UNL     1       0.236  11.890  21.424  0.00  0.00    +0.000 A 
ATOM      8  N   UNL     1       0.512  10.640  21.752  0.00  0.00    +0.000 NA
ATOM      9  C   UNL     1       1.071   9.952  20.659  0.00  0.00    +0.000 A 
ATOM     10  C   UNL     1       1.178  10.716  19.512  0.00  0.00    +0.000 A 
ATOM     11  S   UNL     1       0.641  12.308  19.792  0.00  0.00    +0.000 S 
BRANCH   9  12
ATOM     12  C   UNL     1       1.407   8.487  20.756  0.00  0.00    +0.000 C 
BRANCH  12  13
ATOM     13  N   UNL     1       1.893   7.950  19.485  0.00  0.00    +0.000 N 
ATOM     14  C   UNL     1       2.279   6.628  19.359  0.00  0.00    +0.000 C 
ATOM     15  O   UNL     1       2.107   5.842  20.297  0.00  0.00    +0.000 OA
ATOM     16  H   UNL     1       2.086   8.607  18.742  0.00  0.00    +0.000 HD
BRANCH  14  17
ATOM     17  C   UNL     1       2.950   6.166  18.045  0.00  0.00    +0.000 C 
ATOM     18  C   UNL     1       4.496   6.366  17.984  0.00  0.00    +0.000 C 
ATOM     19  C   UNL     1       4.536   5.217  16.964  0.00  0.00    +0.000 C 
ATOM     20  C   UNL     1       3.240   4.696  17.637  0.00  0.00    +0.000 C 
ENDBRANCH  14  17
ENDBRANCH  12  13
ENDBRANCH   9  12
ENDBRANCH   4   7
BRANCH   1  21
ATOM     21  S   UNL     1      -4.501  12.808  20.276  0.00  0.00    +0.000 S 
ATOM     22  O   UNL     1      -4.978  14.111  19.865  0.00  0.00    +0.000 OA
ATOM     23  O   UNL     1      -5.330  11.894  21.035  0.00  0.00    +0.000 OA
BRANCH  21  29
ATOM     24  C   UNL     1      -4.886  11.885  17.670  0.00  0.00    +0.000 A 
ATOM     25  C   UNL     1      -4.481  11.146  16.538  0.00  0.00    +0.000 A 
ATOM     26  C   UNL     1      -3.326  10.372  16.562  0.00  0.00    +0.000 A 
ATOM     27  C   UNL     1      -2.503  10.407  17.680  0.00  0.00    +0.000 A 
ATOM     28  C   UNL     1      -2.826  11.223  18.766  0.00  0.00    +0.000 A 
ATOM     29  C   UNL     1      -4.028  11.937  18.787  0.00  0.00    +0.000 A 
BRANCH  24  31
ATOM     30  C   UNL     1      -7.212  11.366  18.320  0.00  0.00    +0.000 C 
ATOM     31  C   UNL     1      -6.308  12.398  17.646  0.00  0.00    +0.000 C 
ENDBRANCH  24  31
ENDBRANCH  21  29
ENDBRANCH   1  21
TORSDOF 7
ENDMDL
MODEL 6
REMARK VINA RESULT:      -6.2      3.752      5.390
REMARK  Name = 
REMARK  8 active torsions:
REMARK  status: ('A' for Active; 'I' for Inactive)
REMARK    1  A    between atoms: C_1  and  C_2
REMARK    2  A    between atoms: C_2  and  C_3
REMARK    3  A    between atoms: C_8  and  S_9
REMARK    4  A    between atoms: S_9  and  N_12
REMARK    5  A    between atoms: C_15  and  C_16
REMARK    6  A    between atoms: C_18  and  C_19
REMARK    7  A    between atoms: C_19  and  N_20
REMARK    8  A    between atoms: C_21  and  C_23
REMARK                            x       y       z     vdW  Elec       q    Type
REMARK                         _______ _______ _______ _____ _____    ______ ____
ROOT
ATOM      1  N   UNL     1      -6.303  12.800  19.637  0.00  0.00    +0.000 NA
ATOM      2  C   UNL     1      -6.704  11.977  20.779  0.00  0.00    +0.000 C 
ATOM      3  C   UNL     1      -6.712  12.684  22.131  0.00  0.00    +0.000 C 
ATOM      4  C   UNL     1      -6.397  14.182  22.129  0.00  0.00    +0.000 C 
ATOM      5  C   UNL     1      -7.024  14.833  20.908  0.00  0.00    +0.000 C 
ATOM      6  C   UNL     1      -6.575  14.239  19.589  0.00  0.00    +0.000 C 
ENDROOT
BRANCH   4   7
ATOM      7  C   UNL     1      -4.928  14.498  22.366  0.00  0.00    +0.000 A 
ATOM      8  N   UNL     1      -3.990  13.694  22.837  0.00  0.00    +0.000 NA
ATOM      9  C   UNL     1      -2.738  14.337  22.836  0.00  0.00    +0.000 A 
ATOM     10  C   UNL     1      -2.770  15.624  22.332  0.00  0.00    +0.000 A 
ATOM     11  S   UNL     1      -4.359  16.068  21.907  0.00  0.00    +0.000 S 
BRANCH   9  12
ATOM     12  C   UNL     1      -1.491  13.606  23.260  0.00  0.00    +0.000 C 
BRANCH  12  13
ATOM     13  N   UNL     1      -0.546  13.447  22.155  0.00  0.00    +0.000 N 
ATOM     14  C   UNL     1       0.515  14.317  21.981  0.00  0.00    +0.000 C 
ATOM     15  O   UNL     1       0.752  15.181  22.831  0.00  0.00    +0.000 OA
ATOM     16  H   UNL     1      -0.776  12.778  21.435  0.00  0.00    +0.000 HD
BRANCH  14  17
ATOM     17  C   UNL     1       1.372  14.204  20.699  0.00  0.00    +0.000 C 
ATOM     18  C   UNL     1       1.794  12.753  20.309  0.00  0.00    +0.000 C 
ATOM     19  C   UNL     1       1.903  13.249  18.859  0.00  0.00    +0.000 C 
ATOM     20  C   UNL     1       0.852  14.322  19.241  0.00  0.00    +0.000 C 
ENDBRANCH  14  17
ENDBRANCH  12  13
ENDBRANCH   9  12
ENDBRANCH   4   7
BRANCH   1  21
ATOM     21  S   UNL     1      -5.889  12.014  18.181  0.00  0.00    +0.000 S 
ATOM     22  O   UNL     1      -6.200  12.909  17.088  0.00  0.00    +0.000 OA
ATOM     23  O   UNL     1      -6.430  10.671  18.249  0.00  0.00    +0.000 OA
BRANCH  21  29
ATOM     24  C   UNL     1      -3.406  11.324  17.111  0.00  0.00    +0.000 A 
ATOM     25  C   UNL     1      -2.007  11.167  17.210  0.00  0.00    +0.000 A 
ATOM     26  C   UNL     1      -1.344  11.385  18.413  0.00  0.00    +0.000 A 
ATOM     27  C   UNL     1      -2.053  11.865  19.506  0.00  0.00    +0.000 A 
ATOM     28  C   UNL     1      -3.417  12.138  19.396  0.00  0.00    +0.000 A 
ATOM     29  C   UNL     1      -4.110  11.840  18.218  0.00  0.00    +0.000 A 
BRANCH  24  31
ATOM     30  C   UNL     1      -2.982   9.971  15.088  0.00  0.00    +0.000 C 
ATOM     31  C   UNL     1      -4.047  10.735  15.875  0.00  0.00    +0.000 C 
ENDBRANCH  24  31
ENDBRANCH  21  29
ENDBRANCH   1  21
TORSDOF 7
ENDMDL
MODEL 7
REMARK VINA RESULT:      -6.1      4.278      6.357
REMARK  Name = 
REMARK  8 active torsions:
REMARK  status: ('A' for Active; 'I' for Inactive)
REMARK    1  A    between atoms: C_1  and  C_2
REMARK    2  A    between atoms: C_2  and  C_3
REMARK    3  A    between atoms: C_8  and  S_9
REMARK    4  A    between atoms: S_9  and  N_12
REMARK    5  A    between atoms: C_15  and  C_16
REMARK    6  A    between atoms: C_18  and  C_19
REMARK    7  A    between atoms: C_19  and  N_20
REMARK    8  A    between atoms: C_21  and  C_23
REMARK                            x       y       z     vdW  Elec       q    Type
REMARK                         _______ _______ _______ _____ _____    ______ ____
ROOT
ATOM      1  N   UNL     1       1.123  12.169  19.600  0.00  0.00    +0.000 NA
ATOM      2  C   UNL     1      -0.038  11.819  18.780  0.00  0.00    +0.000 C 
ATOM      3  C   UNL     1      -0.570  10.400  18.962  0.00  0.00    +0.000 C 
ATOM      4  C   UNL     1       0.101   9.544  20.038  0.00  0.00    +0.000 C 
ATOM      5  C   UNL     1       0.436  10.408  21.242  0.00  0.00    +0.000 C 
ATOM      6  C   UNL     1       1.334  11.588  20.928  0.00  0.00    +0.000 C 
ENDROOT
BRANCH   4   7
ATOM      7  C   UNL     1       1.234   8.676  19.511  0.00  0.00    +0.000 A 
ATOM      8  N   UNL     1       1.794   7.629  20.091  0.00  0.00    +0.000 NA
ATOM      9  C   UNL     1       2.758   7.049  19.247  0.00  0.00    +0.000 A 
ATOM     10  C   UNL     1       2.882   7.678  18.022  0.00  0.00    +0.000 A 
ATOM     11  S   UNL     1       1.844   9.026  17.927  0.00  0.00    +0.000 S 
BRANCH   9  12
ATOM     12  C   UNL     1       3.489   5.795  19.651  0.00  0.00    +0.000 C 
BRANCH  12  13
ATOM     13  N   UNL     1       4.229   5.208  18.535  0.00  0.00    +0.000 N 
ATOM     14  C   UNL     1       5.591   4.979  18.612  0.00  0.00    +0.000 C 
ATOM     15  O   UNL     1       6.189   5.161  19.678  0.00  0.00    +0.000 OA
ATOM     16  H   UNL     1       3.749   5.115  17.651  0.00  0.00    +0.000 HD
BRANCH  14  17
ATOM     17  C   UNL     1       6.347   4.524  17.342  0.00  0.00    +0.000 C 
ATOM     18  C   UNL     1       5.445   3.964  16.199  0.00  0.00    +0.000 C 
ATOM     19  C   UNL     1       6.553   4.374  15.217  0.00  0.00    +0.000 C 
ATOM     20  C   UNL     1       6.948   5.455  16.255  0.00  0.00    +0.000 C 
ENDBRANCH  14  17
ENDBRANCH  12  13
ENDBRANCH   9  12
ENDBRANCH   4   7
BRANCH   1  21
ATOM     21  S   UNL     1       2.011  13.565  19.187  0.00  0.00    +0.000 S 
ATOM     22  O   UNL     1       2.456  13.421  17.817  0.00  0.00    +0.000 OA
ATOM     23  O   UNL     1       2.939  13.820  20.270  0.00  0.00    +0.000 OA
BRANCH  21  29
ATOM     24  C   UNL     1       1.142  16.160  18.638  0.00  0.00    +0.000 A 
ATOM     25  C   UNL     1       0.192  17.200  18.724  0.00  0.00    +0.000 A 
ATOM     26  C   UNL     1      -0.971  17.047  19.470  0.00  0.00    +0.000 A 
ATOM     27  C   UNL     1      -1.253  15.820  20.055  0.00  0.00    +0.000 A 
ATOM     28  C   UNL     1      -0.382  14.743  19.885  0.00  0.00    +0.000 A 
ATOM     29  C   UNL     1       0.832  14.909  19.210  0.00  0.00    +0.000 A 
BRANCH  24  31
ATOM     30  C   UNL     1       3.349  17.084  19.256  0.00  0.00    +0.000 C 
ATOM     31  C   UNL     1       2.499  16.553  18.101  0.00  0.00    +0.000 C 
ENDBRANCH  24  31
ENDBRANCH  21  29
ENDBRANCH   1  21
TORSDOF 7
ENDMDL
MODEL 8
REMARK VINA RESULT:      -6.1      3.392      5.728
REMARK  Name = 
REMARK  8 active torsions:
REMARK  status: ('A' for Active; 'I' for Inactive)
REMARK    1  A    between atoms: C_1  and  C_2
REMARK    2  A    between atoms: C_2  and  C_3
REMARK    3  A    between atoms: C_8  and  S_9
REMARK    4  A    between atoms: S_9  and  N_12
REMARK    5  A    between atoms: C_15  and  C_16
REMARK    6  A    between atoms: C_18  and  C_19
REMARK    7  A    between atoms: C_19  and  N_20
REMARK    8  A    between atoms: C_21  and  C_23
REMARK                            x       y       z     vdW  Elec       q    Type
REMARK                         _______ _______ _______ _____ _____    ______ ____
ROOT
ATOM      1  N   UNL     1      -0.060  13.718  20.199  0.00  0.00    +0.000 NA
ATOM      2  C   UNL     1      -0.313  13.717  18.758  0.00  0.00    +0.000 C 
ATOM      3  C   UNL     1      -0.968  12.455  18.204  0.00  0.00    +0.000 C 
ATOM      4  C   UNL     1      -1.372  11.384  19.220  0.00  0.00    +0.000 C 
ATOM      5  C   UNL     1      -1.906  12.049  20.477  0.00  0.00    +0.000 C 
ATOM      6  C   UNL     1      -0.931  13.002  21.136  0.00  0.00    +0.000 C 
ENDROOT
BRANCH   4   7
ATOM      7  C   UNL     1      -0.310  10.316  19.436  0.00  0.00    +0.000 A 
ATOM      8  N   UNL     1       0.520   9.804  18.545  0.00  0.00    +0.000 NA
ATOM      9  C   UNL     1       1.404   8.894  19.154  0.00  0.00    +0.000 A 
ATOM     10  C   UNL     1       1.222   8.764  20.518  0.00  0.00    +0.000 A 
ATOM     11  S   UNL     1      -0.081   9.725  21.048  0.00  0.00    +0.000 S 
BRANCH   9  12
ATOM     12  C   UNL     1       2.499   8.228  18.361  0.00  0.00    +0.000 C 
BRANCH  12  13
ATOM     13  N   UNL     1       2.209   6.818  18.103  0.00  0.00    +0.000 N 
ATOM     14  C   UNL     1       3.222   5.892  17.929  0.00  0.00    +0.000 C 
ATOM     15  O   UNL     1       4.399   6.223  18.106  0.00  0.00    +0.000 OA
ATOM     16  H   UNL     1       1.252   6.565  17.903  0.00  0.00    +0.000 HD
BRANCH  14  17
ATOM     17  C   UNL     1       2.856   4.457  17.485  0.00  0.00    +0.000 C 
ATOM     18  C   UNL     1       3.799   3.336  18.022  0.00  0.00    +0.000 C 
ATOM     19  C   UNL     1       2.621   2.363  17.864  0.00  0.00    +0.000 C 
ATOM     20  C   UNL     1       1.697   3.594  18.052  0.00  0.00    +0.000 C 
ENDBRANCH  14  17
ENDBRANCH  12  13
ENDBRANCH   9  12
ENDBRANCH   4   7
BRANCH   1  21
ATOM     21  S   UNL     1       1.004  14.891  20.832  0.00  0.00    +0.000 S 
ATOM     22  O   UNL     1       1.720  14.292  21.937  0.00  0.00    +0.000 OA
ATOM     23  O   UNL     1       0.249  16.118  20.984  0.00  0.00    +0.000 OA
BRANCH  21  29
ATOM     24  C   UNL     1       2.019  16.236  18.608  0.00  0.00    +0.000 A 
ATOM     25  C   UNL     1       2.974  16.405  17.583  0.00  0.00    +0.000 A 
ATOM     26  C   UNL     1       4.007  15.490  17.407  0.00  0.00    +0.000 A 
ATOM     27  C   UNL     1       4.161  14.452  18.316  0.00  0.00    +0.000 A 
ATOM     28  C   UNL     1       3.296  14.334  19.404  0.00  0.00    +0.000 A 
ATOM     29  C   UNL     1       2.204  15.196  19.541  0.00  0.00    +0.000 A 
BRANCH  24  31
ATOM     30  C   UNL     1       0.964  18.081  17.348  0.00  0.00    +0.000 C 
ATOM     31  C   UNL     1       0.771  17.080  18.487  0.00  0.00    +0.000 C 
ENDBRANCH  24  31
ENDBRANCH  21  29
ENDBRANCH   1  21
TORSDOF 7
ENDMDL
MODEL 9
REMARK VINA RESULT:      -6.0      3.712      6.189
REMARK  Name = 
REMARK  8 active torsions:
REMARK  status: ('A' for Active; 'I' for Inactive)
REMARK    1  A    between atoms: C_1  and  C_2
REMARK    2  A    between atoms: C_2  and  C_3
REMARK    3  A    between atoms: C_8  and  S_9
REMARK    4  A    between atoms: S_9  and  N_12
REMARK    5  A    between atoms: C_15  and  C_16
REMARK    6  A    between atoms: C_18  and  C_19
REMARK    7  A    between atoms: C_19  and  N_20
REMARK    8  A    between atoms: C_21  and  C_23
REMARK                            x       y       z     vdW  Elec       q    Type
REMARK                         _______ _______ _______ _____ _____    ______ ____
ROOT
ATOM      1  N   UNL     1       0.562  13.540  20.250  0.00  0.00    +0.000 NA
ATOM      2  C   UNL     1      -0.022  13.573  18.909  0.00  0.00    +0.000 C 
ATOM      3  C   UNL     1      -0.846  12.348  18.520  0.00  0.00    +0.000 C 
ATOM      4  C   UNL     1      -1.046  11.279  19.597  0.00  0.00    +0.000 C 
ATOM      5  C   UNL     1      -1.238  11.947  20.948  0.00  0.00    +0.000 C 
ATOM      6  C   UNL     1      -0.093  12.848  21.363  0.00  0.00    +0.000 C 
ENDROOT
BRANCH   4   7
ATOM      7  C   UNL     1      -0.012  10.164  19.550  0.00  0.00    +0.000 A 
ATOM      8  N   UNL     1       0.757   9.810  18.535  0.00  0.00    +0.000 NA
ATOM      9  C   UNL     1       1.637   8.780  18.914  0.00  0.00    +0.000 A 
ATOM     10  C   UNL     1       1.517   8.398  20.237  0.00  0.00    +0.000 A 
ATOM     11  S   UNL     1       0.274   9.273  21.008  0.00  0.00    +0.000 S 
BRANCH   9  12
ATOM     12  C   UNL     1       2.669   8.250  17.952  0.00  0.00    +0.000 C 
BRANCH  12  13
ATOM     13  N   UNL     1       2.831   6.801  18.066  0.00  0.00    +0.000 N 
ATOM     14  C   UNL     1       3.918   6.150  17.512  0.00  0.00    +0.000 C 
ATOM     15  O   UNL     1       4.838   6.803  17.007  0.00  0.00    +0.000 OA
ATOM     16  H   UNL     1       2.052   6.269  18.427  0.00  0.00    +0.000 HD
BRANCH  14  17
ATOM     17  C   UNL     1       3.944   4.604  17.510  0.00  0.00    +0.000 C 
ATOM     18  C   UNL     1       4.181   3.944  18.904  0.00  0.00    +0.000 C 
ATOM     19  C   UNL     1       3.450   2.705  18.366  0.00  0.00    +0.000 C 
ATOM     20  C   UNL     1       2.707   3.671  17.408  0.00  0.00    +0.000 C 
ENDBRANCH  14  17
ENDBRANCH  12  13
ENDBRANCH   9  12
ENDBRANCH   4   7
BRANCH   1  21
ATOM     21  S   UNL     1       1.797  14.657  20.619  0.00  0.00    +0.000 S 
ATOM     22  O   UNL     1       3.022  13.916  20.824  0.00  0.00    +0.000 OA
ATOM     23  O   UNL     1       1.273  15.562  21.622  0.00  0.00    +0.000 OA
BRANCH  21  29
ATOM     24  C   UNL     1       3.000  15.285  18.180  0.00  0.00    +0.000 A 
ATOM     25  C   UNL     1       3.166  16.114  17.050  0.00  0.00    +0.000 A 
ATOM     26  C   UNL     1       2.480  17.318  16.937  0.00  0.00    +0.000 A 
ATOM     27  C   UNL     1       1.542  17.664  17.901  0.00  0.00    +0.000 A 
ATOM     28  C   UNL     1       1.278  16.803  18.967  0.00  0.00    +0.000 A 
ATOM     29  C   UNL     1       2.023  15.631  19.136  0.00  0.00    +0.000 A 
BRANCH  24  31
ATOM     30  C   UNL     1       5.388  14.729  17.886  0.00  0.00    +0.000 C 
ATOM     31  C   UNL     1       4.034  14.197  18.354  0.00  0.00    +0.000 C 
ENDBRANCH  24  31
ENDBRANCH  21  29
ENDBRANCH   1  21
TORSDOF 7
ENDMDL
