MODEL 1
REMARK VINA RESULT:      -7.1      0.000      0.000
REMARK  Name = 
REMARK  12 active torsions:
REMARK  status: ('A' for Active; 'I' for Inactive)
REMARK    1  A    between atoms: C_1  and  C_2
REMARK    2  A    between atoms: C_2  and  N_3
REMARK    3  A    between atoms: N_3  and  C_4
REMARK    4  A    between atoms: N_3  and  C_6
REMARK    5  A    between atoms: C_4  and  C_5
REMARK    6  A    between atoms: C_9  and  N_10
REMARK    7  A    between atoms: C_11  and  C_13
REMARK    8  A    between atoms: C_13  and  C_14
REMARK    9  A    between atoms: C_14  and  C_15
REMARK   10  A    between atoms: C_15  and  O_16
REMARK   11  A    between atoms: O_16  and  C_17
REMARK   12  A    between atoms: C_21  and  C_22
REMARK                            x       y       z     vdW  Elec       q    Type
REMARK                         _______ _______ _______ _____ _____    ______ ____
ROOT
ATOM      1  N   UNL     1       2.484   5.799  20.717  0.00  0.00    +0.000 N 
ATOM      2  C   UNL     1       1.761   4.619  20.741  0.00  0.00    +0.000 C 
ATOM      3  O   UNL     1       0.604   4.452  20.359  0.00  0.00    +0.000 OA
ATOM      4  H   UNL     1       3.406   5.798  21.136  0.00  0.00    +0.000 HD
ENDROOT
BRANCH   1   8
ATOM      5  C   UNL     1       1.173   9.524  19.095  0.00  0.00    +0.000 A 
ATOM      6  C   UNL     1       1.976   8.651  18.358  0.00  0.00    +0.000 A 
ATOM      7  C   UNL     1       2.406   7.424  18.870  0.00  0.00    +0.000 A 
ATOM      8  C   UNL     1       2.055   7.022  20.155  0.00  0.00    +0.000 A 
ATOM      9  C   UNL     1       1.251   7.881  20.915  0.00  0.00    +0.000 A 
ATOM     10  C   UNL     1       0.821   9.116  20.388  0.00  0.00    +0.000 A 
BRANCH   5  11
ATOM     11  N   UNL     1       0.718  10.742  18.559  0.00  0.00    +0.000 N 
BRANCH  11  13
ATOM     12  C   UNL     1       0.889  13.245  18.501  0.00  0.00    +0.000 C 
ATOM     13  C   UNL     1       1.555  11.924  18.845  0.00  0.00    +0.000 C 
ENDBRANCH  11  13
BRANCH  11  14
ATOM     14  C   UNL     1      -0.746  10.903  18.479  0.00  0.00    +0.000 C 
ATOM     15  C   UNL     1      -1.420  10.020  17.431  0.00  0.00    +0.000 C 
ENDBRANCH  11  14
ENDBRANCH   5  11
ENDBRANCH   1   8
BRANCH   2  16
ATOM     16  C   UNL     1       2.519   3.430  21.285  0.00  0.00    +0.000 C 
BRANCH  16  17
ATOM     17  C   UNL     1       2.891   2.468  20.154  0.00  0.00    +0.000 C 
BRANCH  17  18
ATOM     18  C   UNL     1       3.418   3.198  18.920  0.00  0.00    +0.000 C 
BRANCH  18  19
ATOM     19  O   UNL     1       4.692   3.759  19.241  0.00  0.00    +0.000 OA
BRANCH  19  20
ATOM     20  C   UNL     1       5.166   4.725  18.395  0.00  0.00    +0.000 A 
ATOM     21  C   UNL     1       4.488   4.831  17.181  0.00  0.00    +0.000 A 
ATOM     22  C   UNL     1       4.888   5.766  16.224  0.00  0.00    +0.000 A 
ATOM     23  C   UNL     1       5.973   6.601  16.477  0.00  0.00    +0.000 A 
ATOM     24  C   UNL     1       6.663   6.511  17.689  0.00  0.00    +0.000 A 
ATOM     25  C   UNL     1       7.842   7.390  17.984  0.00  0.00    +0.000 C 
ATOM     26  C   UNL     1       6.244   5.572  18.647  0.00  0.00    +0.000 A 
ENDBRANCH  19  20
ENDBRANCH  18  19
ENDBRANCH  17  18
ENDBRANCH  16  17
ENDBRANCH   2  16
TORSDOF 9
ENDMDL
MODEL 2
REMARK VINA RESULT:      -7.1      0.619      1.217
REMARK  Name = 
REMARK  12 active torsions:
REMARK  status: ('A' for Active; 'I' for Inactive)
REMARK    1  A    between atoms: C_1  and  C_2
REMARK    2  A    between atoms: C_2  and  N_3
REMARK    3  A    between atoms: N_3  and  C_4
REMARK    4  A    between atoms: N_3  and  C_6
REMARK    5  A    between atoms: C_4  and  C_5
REMARK    6  A    between atoms: C_9  and  N_10
REMARK    7  A    between atoms: C_11  and  C_13
REMARK    8  A    between atoms: C_13  and  C_14
REMARK    9  A    between atoms: C_14  and  C_15
REMARK   10  A    between atoms: C_15  and  O_16
REMARK   11  A    between atoms: O_16  and  C_17
REMARK   12  A    between atoms: C_21  and  C_22
REMARK                            x       y       z     vdW  Elec       q    Type
REMARK                         _______ _______ _______ _____ _____    ______ ____
ROOT
ATOM      1  N   UNL     1       2.716   5.674  20.365  0.00  0.00    +0.000 N 
ATOM      2  C   UNL     1       1.970   4.518  20.512  0.00  0.00    +0.000 C 
ATOM      3  O   UNL     1       0.751   4.405  20.391  0.00  0.00    +0.000 OA
ATOM      4  H   UNL     1       3.707   5.627  20.569  0.00  0.00    +0.000 HD
ENDROOT
BRANCH   1   8
ATOM      5  C   UNL     1       1.237   9.452  19.035  0.00  0.00    +0.000 A 
ATOM      6  C   UNL     1       1.018   9.001  20.339  0.00  0.00    +0.000 A 
ATOM      7  C   UNL     1       1.503   7.773  20.793  0.00  0.00    +0.000 A 
ATOM      8  C   UNL     1       2.224   6.932  19.951  0.00  0.00    +0.000 A 
ATOM      9  C   UNL     1       2.456   7.360  18.638  0.00  0.00    +0.000 A 
ATOM     10  C   UNL     1       1.964   8.603  18.190  0.00  0.00    +0.000 A 
BRANCH   5  11
ATOM     11  N   UNL     1       0.773  10.704  18.597  0.00  0.00    +0.000 N 
BRANCH  11  13
ATOM     12  C   UNL     1       2.437  12.530  18.156  0.00  0.00    +0.000 C 
ATOM     13  C   UNL     1       1.480  11.880  19.140  0.00  0.00    +0.000 C 
ENDBRANCH  11  13
BRANCH  11  14
ATOM     14  C   UNL     1      -0.676  10.797  18.334  0.00  0.00    +0.000 C 
ATOM     15  C   UNL     1      -1.439  11.673  19.326  0.00  0.00    +0.000 C 
ENDBRANCH  11  14
ENDBRANCH   5  11
ENDBRANCH   1   8
BRANCH   2  16
ATOM     16  C   UNL     1       2.780   3.285  20.836  0.00  0.00    +0.000 C 
BRANCH  16  17
ATOM     17  C   UNL     1       2.696   2.271  19.692  0.00  0.00    +0.000 C 
BRANCH  17  18
ATOM     18  C   UNL     1       3.473   2.724  18.457  0.00  0.00    +0.000 C 
BRANCH  18  19
ATOM     19  O   UNL     1       4.634   3.432  18.892  0.00  0.00    +0.000 OA
BRANCH  19  20
ATOM     20  C   UNL     1       5.160   4.343  18.016  0.00  0.00    +0.000 A 
ATOM     21  C   UNL     1       4.740   4.201  16.694  0.00  0.00    +0.000 A 
ATOM     22  C   UNL     1       5.220   5.057  15.702  0.00  0.00    +0.000 A 
ATOM     23  C   UNL     1       6.128   6.062  16.026  0.00  0.00    +0.000 A 
ATOM     24  C   UNL     1       6.558   6.221  17.347  0.00  0.00    +0.000 A 
ATOM     25  C   UNL     1       7.543   7.288  17.725  0.00  0.00    +0.000 C 
ATOM     26  C   UNL     1       6.059   5.359  18.338  0.00  0.00    +0.000 A 
ENDBRANCH  19  20
ENDBRANCH  18  19
ENDBRANCH  17  18
ENDBRANCH  16  17
ENDBRANCH   2  16
TORSDOF 9
ENDMDL
MODEL 3
REMARK VINA RESULT:      -7.0      4.273      8.233
REMARK  Name = 
REMARK  12 active torsions:
REMARK  status: ('A' for Active; 'I' for Inactive)
REMARK    1  A    between atoms: C_1  and  C_2
REMARK    2  A    between atoms: C_2  and  N_3
REMARK    3  A    between atoms: N_3  and  C_4
REMARK    4  A    between atoms: N_3  and  C_6
REMARK    5  A    between atoms: C_4  and  C_5
REMARK    6  A    between atoms: C_9  and  N_10
REMARK    7  A    between atoms: C_11  and  C_13
REMARK    8  A    between atoms: C_13  and  C_14
REMARK    9  A    between atoms: C_14  and  C_15
REMARK   10  A    between atoms: C_15  and  O_16
REMARK   11  A    between atoms: O_16  and  C_17
REMARK   12  A    between atoms: C_21  and  C_22
REMARK                            x       y       z     vdW  Elec       q    Type
REMARK                         _______ _______ _______ _____ _____    ______ ____
ROOT
ATOM      1  N   UNL     1       7.518   5.741  15.931  0.00  0.00    +0.000 N 
ATOM      2  C   UNL     1       6.757   6.666  16.625  0.00  0.00    +0.000 C 
ATOM      3  O   UNL     1       5.633   7.069  16.330  0.00  0.00    +0.000 OA
ATOM      4  H   UNL     1       8.460   5.563  16.256  0.00  0.00    +0.000 HD
ENDROOT
BRANCH   1   8
ATOM      5  C   UNL     1       6.188   3.516  12.539  0.00  0.00    +0.000 A 
ATOM      6  C   UNL     1       7.244   4.426  12.445  0.00  0.00    +0.000 A 
ATOM      7  C   UNL     1       7.697   5.154  13.547  0.00  0.00    +0.000 A 
ATOM      8  C   UNL     1       7.101   5.010  14.796  0.00  0.00    +0.000 A 
ATOM      9  C   UNL     1       6.040   4.105  14.916  0.00  0.00    +0.000 A 
ATOM     10  C   UNL     1       5.591   3.372  13.798  0.00  0.00    +0.000 A 
BRANCH   5  11
ATOM     11  N   UNL     1       5.759   2.763  11.432  0.00  0.00    +0.000 N 
BRANCH  11  13
ATOM     12  C   UNL     1       3.591   3.723  10.610  0.00  0.00    +0.000 C 
ATOM     13  C   UNL     1       4.301   2.574  11.306  0.00  0.00    +0.000 C 
ENDBRANCH  11  13
BRANCH  11  14
ATOM     14  C   UNL     1       6.662   1.676  11.005  0.00  0.00    +0.000 C 
ATOM     15  C   UNL     1       6.101   0.272  11.222  0.00  0.00    +0.000 C 
ENDBRANCH  11  14
ENDBRANCH   5  11
ENDBRANCH   1   8
BRANCH   2  16
ATOM     16  C   UNL     1       7.408   7.197  17.881  0.00  0.00    +0.000 C 
BRANCH  16  17
ATOM     17  C   UNL     1       7.826   6.044  18.797  0.00  0.00    +0.000 C 
BRANCH  17  18
ATOM     18  C   UNL     1       6.799   4.913  18.814  0.00  0.00    +0.000 C 
BRANCH  18  19
ATOM     19  O   UNL     1       5.642   5.369  19.516  0.00  0.00    +0.000 OA
BRANCH  19  20
ATOM     20  C   UNL     1       4.429   5.055  18.966  0.00  0.00    +0.000 A 
ATOM     21  C   UNL     1       3.597   6.144  18.711  0.00  0.00    +0.000 A 
ATOM     22  C   UNL     1       2.325   5.954  18.168  0.00  0.00    +0.000 A 
ATOM     23  C   UNL     1       1.875   4.668  17.879  0.00  0.00    +0.000 A 
ATOM     24  C   UNL     1       2.697   3.564  18.126  0.00  0.00    +0.000 A 
ATOM     25  C   UNL     1       2.235   2.166  17.834  0.00  0.00    +0.000 C 
ATOM     26  C   UNL     1       3.978   3.771  18.663  0.00  0.00    +0.000 A 
ENDBRANCH  19  20
ENDBRANCH  18  19
ENDBRANCH  17  18
ENDBRANCH  16  17
ENDBRANCH   2  16
TORSDOF 9
ENDMDL
MODEL 4
REMARK VINA RESULT:      -7.0      4.641      8.233
REMARK  Name = 
REMARK  12 active torsions:
REMARK  status: ('A' for Active; 'I' for Inactive)
REMARK    1  A    between atoms: C_1  and  C_2
REMARK    2  A    between atoms: C_2  and  N_3
REMARK    3  A    between atoms: N_3  and  C_4
REMARK    4  A    between atoms: N_3  and  C_6
REMARK    5  A    between atoms: C_4  and  C_5
REMARK    6  A    between atoms: C_9  and  N_10
REMARK    7  A    between atoms: C_11  and  C_13
REMARK    8  A    between atoms: C_13  and  C_14
REMARK    9  A    between atoms: C_14  and  C_15
REMARK   10  A    between atoms: C_15  and  O_16
REMARK   11  A    between atoms: O_16  and  C_17
REMARK   12  A    between atoms: C_21  and  C_22
REMARK                            x       y       z     vdW  Elec       q    Type
REMARK                         _______ _______ _______ _____ _____    ______ ____
ROOT
ATOM      1  N   UNL     1       7.585   5.587  15.844  0.00  0.00    +0.000 N 
ATOM      2  C   UNL     1       7.002   6.565  16.630  0.00  0.00    +0.000 C 
ATOM      3  O   UNL     1       5.884   7.058  16.489  0.00  0.00    +0.000 OA
ATOM      4  H   UNL     1       8.546   5.332  16.040  0.00  0.00    +0.000 HD
ENDROOT
BRANCH   1   8
ATOM      5  C   UNL     1       5.774   3.515  12.580  0.00  0.00    +0.000 A 
ATOM      6  C   UNL     1       5.272   3.409  13.879  0.00  0.00    +0.000 A 
ATOM      7  C   UNL     1       5.847   4.087  14.956  0.00  0.00    +0.000 A 
ATOM      8  C   UNL     1       6.963   4.899  14.778  0.00  0.00    +0.000 A 
ATOM      9  C   UNL     1       7.486   5.022  13.485  0.00  0.00    +0.000 A 
ATOM     10  C   UNL     1       6.897   4.334  12.404  0.00  0.00    +0.000 A 
BRANCH   5  11
ATOM     11  N   UNL     1       5.169   2.855  11.497  0.00  0.00    +0.000 N 
BRANCH  11  13
ATOM     12  C   UNL     1       3.457   3.898   9.986  0.00  0.00    +0.000 C 
ATOM     13  C   UNL     1       3.740   3.150  11.278  0.00  0.00    +0.000 C 
ENDBRANCH  11  13
BRANCH  11  14
ATOM     14  C   UNL     1       5.673   1.498  11.208  0.00  0.00    +0.000 C 
ATOM     15  C   UNL     1       7.166   1.436  10.893  0.00  0.00    +0.000 C 
ENDBRANCH  11  14
ENDBRANCH   5  11
ENDBRANCH   1   8
BRANCH   2  16
ATOM     16  C   UNL     1       7.856   7.033  17.786  0.00  0.00    +0.000 C 
BRANCH  16  17
ATOM     17  C   UNL     1       7.587   6.185  19.031  0.00  0.00    +0.000 C 
BRANCH  17  18
ATOM     18  C   UNL     1       6.613   5.041  18.755  0.00  0.00    +0.000 C 
BRANCH  18  19
ATOM     19  O   UNL     1       5.525   5.146  19.673  0.00  0.00    +0.000 OA
BRANCH  19  20
ATOM     20  C   UNL     1       4.317   4.660  19.251  0.00  0.00    +0.000 A 
ATOM     21  C   UNL     1       4.270   4.282  17.910  0.00  0.00    +0.000 A 
ATOM     22  C   UNL     1       3.089   3.789  17.353  0.00  0.00    +0.000 A 
ATOM     23  C   UNL     1       1.943   3.674  18.137  0.00  0.00    +0.000 A 
ATOM     24  C   UNL     1       1.973   4.046  19.484  0.00  0.00    +0.000 A 
ATOM     25  C   UNL     1       0.752   3.942  20.350  0.00  0.00    +0.000 C 
ATOM     26  C   UNL     1       3.171   4.531  20.034  0.00  0.00    +0.000 A 
ENDBRANCH  19  20
ENDBRANCH  18  19
ENDBRANCH  17  18
ENDBRANCH  16  17
ENDBRANCH   2  16
TORSDOF 9
ENDMDL
MODEL 5
REMARK VINA RESULT:      -6.9      0.900      1.631
REMARK  Name = 
REMARK  12 active torsions:
REMARK  status: ('A' for Active; 'I' for Inactive)
REMARK    1  A    between atoms: C_1  and  C_2
REMARK    2  A    between atoms: C_2  and  N_3
REMARK    3  A    between atoms: N_3  and  C_4
REMARK    4  A    between atoms: N_3  and  C_6
REMARK    5  A    between atoms: C_4  and  C_5
REMARK    6  A    between atoms: C_9  and  N_10
REMARK    7  A    between atoms: C_11  and  C_13
REMARK    8  A    between atoms: C_13  and  C_14
REMARK    9  A    between atoms: C_14  and  C_15
REMARK   10  A    between atoms: C_15  and  O_16
REMARK   11  A    between atoms: O_16  and  C_17
REMARK   12  A    between atoms: C_21  and  C_22
REMARK                            x       y       z     vdW  Elec       q    Type
REMARK                         _______ _______ _______ _____ _____    ______ ____
ROOT
ATOM      1  N   UNL     1       2.373   5.848  20.845  0.00  0.00    +0.000 N 
ATOM      2  C   UNL     1       1.695   4.645  20.762  0.00  0.00    +0.000 C 
ATOM      3  O   UNL     1       0.591   4.452  20.255  0.00  0.00    +0.000 OA
ATOM      4  H   UNL     1       3.246   5.865  21.360  0.00  0.00    +0.000 HD
ENDROOT
BRANCH   1   8
ATOM      5  C   UNL     1       1.121   9.580  19.192  0.00  0.00    +0.000 A 
ATOM      6  C   UNL     1       1.868   8.666  18.445  0.00  0.00    +0.000 A 
ATOM      7  C   UNL     1       2.277   7.437  18.968  0.00  0.00    +0.000 A 
ATOM      8  C   UNL     1       1.963   7.073  20.273  0.00  0.00    +0.000 A 
ATOM      9  C   UNL     1       1.215   7.972  21.044  0.00  0.00    +0.000 A 
ATOM     10  C   UNL     1       0.805   9.209  20.506  0.00  0.00    +0.000 A 
BRANCH   5  11
ATOM     11  N   UNL     1       0.685  10.800  18.648  0.00  0.00    +0.000 N 
BRANCH  11  13
ATOM     12  C   UNL     1       2.449  12.521  18.170  0.00  0.00    +0.000 C 
ATOM     13  C   UNL     1       1.387  12.007  19.127  0.00  0.00    +0.000 C 
ENDBRANCH  11  13
BRANCH  11  14
ATOM     14  C   UNL     1      -0.753  10.887  18.331  0.00  0.00    +0.000 C 
ATOM     15  C   UNL     1      -1.431  12.162  18.826  0.00  0.00    +0.000 C 
ENDBRANCH  11  14
ENDBRANCH   5  11
ENDBRANCH   1   8
BRANCH   2  16
ATOM     16  C   UNL     1       2.434   3.466  21.352  0.00  0.00    +0.000 C 
BRANCH  16  17
ATOM     17  C   UNL     1       2.832   2.477  20.253  0.00  0.00    +0.000 C 
BRANCH  17  18
ATOM     18  C   UNL     1       4.250   2.719  19.740  0.00  0.00    +0.000 C 
BRANCH  18  19
ATOM     19  O   UNL     1       4.406   4.117  19.494  0.00  0.00    +0.000 OA
BRANCH  19  20
ATOM     20  C   UNL     1       5.275   4.470  18.498  0.00  0.00    +0.000 A 
ATOM     21  C   UNL     1       6.307   5.322  18.889  0.00  0.00    +0.000 A 
ATOM     22  C   UNL     1       7.248   5.771  17.961  0.00  0.00    +0.000 A 
ATOM     23  C   UNL     1       7.160   5.369  16.630  0.00  0.00    +0.000 A 
ATOM     24  C   UNL     1       6.134   4.513  16.220  0.00  0.00    +0.000 A 
ATOM     25  C   UNL     1       6.009   4.073  14.791  0.00  0.00    +0.000 C 
ATOM     26  C   UNL     1       5.199   4.062  17.167  0.00  0.00    +0.000 A 
ENDBRANCH  19  20
ENDBRANCH  18  19
ENDBRANCH  17  18
ENDBRANCH  16  17
ENDBRANCH   2  16
TORSDOF 9
ENDMDL
MODEL 6
REMARK VINA RESULT:      -6.8      2.033      4.517
REMARK  Name = 
REMARK  12 active torsions:
REMARK  status: ('A' for Active; 'I' for Inactive)
REMARK    1  A    between atoms: C_1  and  C_2
REMARK    2  A    between atoms: C_2  and  N_3
REMARK    3  A    between atoms: N_3  and  C_4
REMARK    4  A    between atoms: N_3  and  C_6
REMARK    5  A    between atoms: C_4  and  C_5
REMARK    6  A    between atoms: C_9  and  N_10
REMARK    7  A    between atoms: C_11  and  C_13
REMARK    8  A    between atoms: C_13  and  C_14
REMARK    9  A    between atoms: C_14  and  C_15
REMARK   10  A    between atoms: C_15  and  O_16
REMARK   11  A    between atoms: O_16  and  C_17
REMARK   12  A    between atoms: C_21  and  C_22
REMARK                            x       y       z     vdW  Elec       q    Type
REMARK                         _______ _______ _______ _____ _____    ______ ____
ROOT
ATOM      1  N   UNL     1       3.519   6.847  17.088  0.00  0.00    +0.000 N 
ATOM      2  C   UNL     1       4.897   6.842  16.968  0.00  0.00    +0.000 C 
ATOM      3  O   UNL     1       5.699   7.507  17.622  0.00  0.00    +0.000 OA
ATOM      4  H   UNL     1       2.984   6.298  16.425  0.00  0.00    +0.000 HD
ENDROOT
BRANCH   1   8
ATOM      5  C   UNL     1       1.229   9.024  19.960  0.00  0.00    +0.000 A 
ATOM      6  C   UNL     1       1.817   7.796  20.275  0.00  0.00    +0.000 A 
ATOM      7  C   UNL     1       2.577   7.077  19.350  0.00  0.00    +0.000 A 
ATOM      8  C   UNL     1       2.773   7.553  18.058  0.00  0.00    +0.000 A 
ATOM      9  C   UNL     1       2.193   8.781  17.716  0.00  0.00    +0.000 A 
ATOM     10  C   UNL     1       1.430   9.501  18.658  0.00  0.00    +0.000 A 
BRANCH   5  11
ATOM     11  N   UNL     1       0.494   9.757  20.906  0.00  0.00    +0.000 N 
BRANCH  11  13
ATOM     12  C   UNL     1      -0.070   9.461  23.334  0.00  0.00    +0.000 C 
ATOM     13  C   UNL     1      -0.240   8.961  21.910  0.00  0.00    +0.000 C 
ENDBRANCH  11  13
BRANCH  11  14
ATOM     14  C   UNL     1      -0.095  11.022  20.425  0.00  0.00    +0.000 C 
ATOM     15  C   UNL     1       0.548  12.277  21.008  0.00  0.00    +0.000 C 
ENDBRANCH  11  14
ENDBRANCH   5  11
ENDBRANCH   1   8
BRANCH   2  16
ATOM     16  C   UNL     1       5.433   5.890  15.924  0.00  0.00    +0.000 C 
BRANCH  16  17
ATOM     17  C   UNL     1       6.067   4.666  16.589  0.00  0.00    +0.000 C 
BRANCH  17  18
ATOM     18  C   UNL     1       5.023   3.673  17.095  0.00  0.00    +0.000 C 
BRANCH  18  19
ATOM     19  O   UNL     1       4.681   4.027  18.436  0.00  0.00    +0.000 OA
BRANCH  19  20
ATOM     20  C   UNL     1       3.448   3.630  18.879  0.00  0.00    +0.000 A 
ATOM     21  C   UNL     1       2.444   3.635  17.912  0.00  0.00    +0.000 A 
ATOM     22  C   UNL     1       1.138   3.268  18.243  0.00  0.00    +0.000 A 
ATOM     23  C   UNL     1       0.828   2.896  19.549  0.00  0.00    +0.000 A 
ATOM     24  C   UNL     1       1.823   2.883  20.531  0.00  0.00    +0.000 A 
ATOM     25  C   UNL     1       1.516   2.498  21.948  0.00  0.00    +0.000 C 
ATOM     26  C   UNL     1       3.134   3.245  20.182  0.00  0.00    +0.000 A 
ENDBRANCH  19  20
ENDBRANCH  18  19
ENDBRANCH  17  18
ENDBRANCH  16  17
ENDBRANCH   2  16
TORSDOF 9
ENDMDL
MODEL 7
REMARK VINA RESULT:      -6.8      1.275      1.665
REMARK  Name = 
REMARK  12 active torsions:
REMARK  status: ('A' for Active; 'I' for Inactive)
REMARK    1  A    between atoms: C_1  and  C_2
REMARK    2  A    between atoms: C_2  and  N_3
REMARK    3  A    between atoms: N_3  and  C_4
REMARK    4  A    between atoms: N_3  and  C_6
REMARK    5  A    between atoms: C_4  and  C_5
REMARK    6  A    between atoms: C_9  and  N_10
REMARK    7  A    between atoms: C_11  and  C_13
REMARK    8  A    between atoms: C_13  and  C_14
REMARK    9  A    between atoms: C_14  and  C_15
REMARK   10  A    between atoms: C_15  and  O_16
REMARK   11  A    between atoms: O_16  and  C_17
REMARK   12  A    between atoms: C_21  and  C_22
REMARK                            x       y       z     vdW  Elec       q    Type
REMARK                         _______ _______ _______ _____ _____    ______ ____
ROOT
ATOM      1  N   UNL     1       2.576   6.235  20.531  0.00  0.00    +0.000 N 
ATOM      2  C   UNL     1       1.935   5.010  20.577  0.00  0.00    +0.000 C 
ATOM      3  O   UNL     1       0.760   4.780  20.294  0.00  0.00    +0.000 OA
ATOM      4  H   UNL     1       3.531   6.283  20.866  0.00  0.00    +0.000 HD
ENDROOT
BRANCH   1   8
ATOM      5  C   UNL     1       0.896   9.915  19.166  0.00  0.00    +0.000 A 
ATOM      6  C   UNL     1       1.630   9.088  18.313  0.00  0.00    +0.000 A 
ATOM      7  C   UNL     1       2.178   7.877  18.741  0.00  0.00    +0.000 A 
ATOM      8  C   UNL     1       2.022   7.444  20.053  0.00  0.00    +0.000 A 
ATOM      9  C   UNL     1       1.291   8.255  20.930  0.00  0.00    +0.000 A 
ATOM     10  C   UNL     1       0.740   9.475  20.487  0.00  0.00    +0.000 A 
BRANCH   5  11
ATOM     11  N   UNL     1       0.320  11.117  18.719  0.00  0.00    +0.000 N 
BRANCH  11  13
ATOM     12  C   UNL     1       2.248  12.691  18.395  0.00  0.00    +0.000 C 
ATOM     13  C   UNL     1       0.984  12.356  19.168  0.00  0.00    +0.000 C 
ENDBRANCH  11  13
BRANCH  11  14
ATOM     14  C   UNL     1      -1.147  11.107  18.559  0.00  0.00    +0.000 C 
ATOM     15  C   UNL     1      -1.868  12.224  19.309  0.00  0.00    +0.000 C 
ENDBRANCH  11  14
ENDBRANCH   5  11
ENDBRANCH   1   8
BRANCH   2  16
ATOM     16  C   UNL     1       2.812   3.858  21.008  0.00  0.00    +0.000 C 
BRANCH  16  17
ATOM     17  C   UNL     1       2.865   2.786  19.917  0.00  0.00    +0.000 C 
BRANCH  17  18
ATOM     18  C   UNL     1       4.163   2.839  19.113  0.00  0.00    +0.000 C 
BRANCH  18  19
ATOM     19  O   UNL     1       3.829   2.907  17.726  0.00  0.00    +0.000 OA
BRANCH  19  20
ATOM     20  C   UNL     1       4.432   3.898  16.999  0.00  0.00    +0.000 A 
ATOM     21  C   UNL     1       4.086   5.197  17.370  0.00  0.00    +0.000 A 
ATOM     22  C   UNL     1       4.619   6.294  16.693  0.00  0.00    +0.000 A 
ATOM     23  C   UNL     1       5.502   6.099  15.633  0.00  0.00    +0.000 A 
ATOM     24  C   UNL     1       5.861   4.804  15.248  0.00  0.00    +0.000 A 
ATOM     25  C   UNL     1       6.802   4.562  14.105  0.00  0.00    +0.000 C 
ATOM     26  C   UNL     1       5.325   3.708  15.946  0.00  0.00    +0.000 A 
ENDBRANCH  19  20
ENDBRANCH  18  19
ENDBRANCH  17  18
ENDBRANCH  16  17
ENDBRANCH   2  16
TORSDOF 9
ENDMDL
MODEL 8
REMARK VINA RESULT:      -6.7      1.839      4.044
REMARK  Name = 
REMARK  12 active torsions:
REMARK  status: ('A' for Active; 'I' for Inactive)
REMARK    1  A    between atoms: C_1  and  C_2
REMARK    2  A    between atoms: C_2  and  N_3
REMARK    3  A    between atoms: N_3  and  C_4
REMARK    4  A    between atoms: N_3  and  C_6
REMARK    5  A    between atoms: C_4  and  C_5
REMARK    6  A    between atoms: C_9  and  N_10
REMARK    7  A    between atoms: C_11  and  C_13
REMARK    8  A    between atoms: C_13  and  C_14
REMARK    9  A    between atoms: C_14  and  C_15
REMARK   10  A    between atoms: C_15  and  O_16
REMARK   11  A    between atoms: O_16  and  C_17
REMARK   12  A    between atoms: C_21  and  C_22
REMARK                            x       y       z     vdW  Elec       q    Type
REMARK                         _______ _______ _______ _____ _____    ______ ____
ROOT
ATOM      1  N   UNL     1       3.340   6.458  17.713  0.00  0.00    +0.000 N 
ATOM      2  C   UNL     1       4.655   6.634  17.319  0.00  0.00    +0.000 C 
ATOM      3  O   UNL     1       5.328   7.658  17.425  0.00  0.00    +0.000 OA
ATOM      4  H   UNL     1       2.893   5.576  17.492  0.00  0.00    +0.000 HD
ENDROOT
BRANCH   1   8
ATOM      5  C   UNL     1       0.980   9.281  19.878  0.00  0.00    +0.000 A 
ATOM      6  C   UNL     1       1.229   9.434  18.512  0.00  0.00    +0.000 A 
ATOM      7  C   UNL     1       1.991   8.515  17.787  0.00  0.00    +0.000 A 
ATOM      8  C   UNL     1       2.548   7.401  18.406  0.00  0.00    +0.000 A 
ATOM      9  C   UNL     1       2.315   7.225  19.775  0.00  0.00    +0.000 A 
ATOM     10  C   UNL     1       1.542   8.157  20.497  0.00  0.00    +0.000 A 
BRANCH   5  11
ATOM     11  N   UNL     1       0.185  10.194  20.592  0.00  0.00    +0.000 N 
BRANCH  11  13
ATOM     12  C   UNL     1       0.512  12.660  20.260  0.00  0.00    +0.000 C 
ATOM     13  C   UNL     1      -0.233  11.400  19.853  0.00  0.00    +0.000 C 
ENDBRANCH  11  13
BRANCH  11  14
ATOM     14  C   UNL     1       0.468  10.301  22.037  0.00  0.00    +0.000 C 
ATOM     15  C   UNL     1      -0.775  10.299  22.923  0.00  0.00    +0.000 C 
ENDBRANCH  11  14
ENDBRANCH   5  11
ENDBRANCH   1   8
BRANCH   2  16
ATOM     16  C   UNL     1       5.299   5.407  16.715  0.00  0.00    +0.000 C 
BRANCH  16  17
ATOM     17  C   UNL     1       6.389   4.863  17.641  0.00  0.00    +0.000 C 
BRANCH  17  18
ATOM     18  C   UNL     1       5.913   4.734  19.086  0.00  0.00    +0.000 C 
BRANCH  18  19
ATOM     19  O   UNL     1       5.469   3.393  19.294  0.00  0.00    +0.000 OA
BRANCH  19  20
ATOM     20  C   UNL     1       4.129   3.160  19.139  0.00  0.00    +0.000 A 
ATOM     21  C   UNL     1       3.792   2.356  18.051  0.00  0.00    +0.000 A 
ATOM     22  C   UNL     1       2.456   2.060  17.774  0.00  0.00    +0.000 A 
ATOM     23  C   UNL     1       1.446   2.572  18.585  0.00  0.00    +0.000 A 
ATOM     24  C   UNL     1       1.766   3.378  19.682  0.00  0.00    +0.000 A 
ATOM     25  C   UNL     1       0.698   3.952  20.566  0.00  0.00    +0.000 C 
ATOM     26  C   UNL     1       3.115   3.660  19.954  0.00  0.00    +0.000 A 
ENDBRANCH  19  20
ENDBRANCH  18  19
ENDBRANCH  17  18
ENDBRANCH  16  17
ENDBRANCH   2  16
TORSDOF 9
ENDMDL
MODEL 9
REMARK VINA RESULT:      -6.7      1.192      2.275
REMARK  Name = 
REMARK  12 active torsions:
REMARK  status: ('A' for Active; 'I' for Inactive)
REMARK    1  A    between atoms: C_1  and  C_2
REMARK    2  A    between atoms: C_2  and  N_3
REMARK    3  A    between atoms: N_3  and  C_4
REMARK    4  A    between atoms: N_3  and  C_6
REMARK    5  A    between atoms: C_4  and  C_5
REMARK    6  A    between atoms: C_9  and  N_10
REMARK    7  A    between atoms: C_11  and  C_13
REMARK    8  A    between atoms: C_13  and  C_14
REMARK    9  A    between atoms: C_14  and  C_15
REMARK   10  A    between atoms: C_15  and  O_16
REMARK   11  A    between atoms: O_16  and  C_17
REMARK   12  A    between atoms: C_21  and  C_22
REMARK                            x       y       z     vdW  Elec       q    Type
REMARK                         _______ _______ _______ _____ _____    ______ ____
ROOT
ATOM      1  N   UNL     1       2.461   6.189  20.643  0.00  0.00    +0.000 N 
ATOM      2  C   UNL     1       1.806   4.971  20.595  0.00  0.00    +0.000 C 
ATOM      3  O   UNL     1       0.608   4.783  20.389  0.00  0.00    +0.000 OA
ATOM      4  H   UNL     1       3.442   6.189  20.898  0.00  0.00    +0.000 HD
ENDROOT
BRANCH   1   8
ATOM      5  C   UNL     1       0.736   9.984  19.723  0.00  0.00    +0.000 A 
ATOM      6  C   UNL     1       0.589   9.403  20.985  0.00  0.00    +0.000 A 
ATOM      7  C   UNL     1       1.155   8.166  21.305  0.00  0.00    +0.000 A 
ATOM      8  C   UNL     1       1.889   7.450  20.365  0.00  0.00    +0.000 A 
ATOM      9  C   UNL     1       2.050   8.010  19.092  0.00  0.00    +0.000 A 
ATOM     10  C   UNL     1       1.476   9.260  18.780  0.00  0.00    +0.000 A 
BRANCH   5  11
ATOM     11  N   UNL     1       0.191  11.243  19.420  0.00  0.00    +0.000 N 
BRANCH  11  13
ATOM     12  C   UNL     1      -2.195  10.970  18.688  0.00  0.00    +0.000 C 
ATOM     13  C   UNL     1      -0.761  11.279  18.293  0.00  0.00    +0.000 C 
ENDBRANCH  11  13
BRANCH  11  14
ATOM     14  C   UNL     1       1.078  12.400  19.646  0.00  0.00    +0.000 C 
ATOM     15  C   UNL     1       1.481  13.141  18.373  0.00  0.00    +0.000 C 
ENDBRANCH  11  14
ENDBRANCH   5  11
ENDBRANCH   1   8
BRANCH   2  16
ATOM     16  C   UNL     1       2.699   3.769  20.806  0.00  0.00    +0.000 C 
BRANCH  16  17
ATOM     17  C   UNL     1       2.308   2.637  19.853  0.00  0.00    +0.000 C 
BRANCH  17  18
ATOM     18  C   UNL     1       2.923   2.807  18.466  0.00  0.00    +0.000 C 
BRANCH  18  19
ATOM     19  O   UNL     1       4.186   3.458  18.612  0.00  0.00    +0.000 OA
BRANCH  19  20
ATOM     20  C   UNL     1       4.600   4.234  17.562  0.00  0.00    +0.000 A 
ATOM     21  C   UNL     1       4.404   5.604  17.727  0.00  0.00    +0.000 A 
ATOM     22  C   UNL     1       4.767   6.499  16.719  0.00  0.00    +0.000 A 
ATOM     23  C   UNL     1       5.328   6.026  15.535  0.00  0.00    +0.000 A 
ATOM     24  C   UNL     1       5.534   4.655  15.353  0.00  0.00    +0.000 A 
ATOM     25  C   UNL     1       6.126   4.116  14.085  0.00  0.00    +0.000 C 
ATOM     26  C   UNL     1       5.173   3.767  16.380  0.00  0.00    +0.000 A 
ENDBRANCH  19  20
ENDBRANCH  18  19
ENDBRANCH  17  18
ENDBRANCH  16  17
ENDBRANCH   2  16
TORSDOF 9
ENDMDL
