MODEL 1
REMARK VINA RESULT:      -8.4      0.000      0.000
REMARK  Name = 
REMARK  5 active torsions:
REMARK  status: ('A' for Active; 'I' for Inactive)
REMARK    1  A    between atoms: N_11  and  C_12
REMARK    2  A    between atoms: C_12  and  C_13
REMARK    3  A    between atoms: N_15  and  C_16
REMARK    4  A    between atoms: N_15  and  C_23
REMARK    5  A    between atoms: C_16  and  C_17
REMARK                            x       y       z     vdW  Elec       q    Type
REMARK                         _______ _______ _______ _____ _____    ______ ____
ROOT
ATOM      1  C   UNL     1       2.598   7.379  18.510  0.00  0.00    +0.000 C 
ATOM      2  O   UNL     1       3.329   8.246  18.027  0.00  0.00    +0.000 OA
ATOM      3  N   UNL     1       2.783   6.001  18.244  0.00  0.00    +0.000 N 
ENDROOT
BRANCH   3   4
ATOM      4  C   UNL     1       2.191   4.938  19.090  0.00  0.00    +0.000 C 
ATOM      5  C   UNL     1       1.984   3.583  18.396  0.00  0.00    +0.000 C 
ATOM      6  C   UNL     1       1.575   2.617  19.501  0.00  0.00    +0.000 C 
ATOM      7  S   UNL     1       2.623   3.038  20.880  0.00  0.00    +0.000 S 
ATOM      8  O   UNL     1       3.836   2.253  20.781  0.00  0.00    +0.000 OA
ATOM      9  O   UNL     1       1.821   3.083  22.084  0.00  0.00    +0.000 OA
ATOM     10  C   UNL     1       3.001   4.703  20.372  0.00  0.00    +0.000 C 
ENDBRANCH   3   4
BRANCH   1  11
ATOM     11  C   UNL     1       1.445   7.751  19.482  0.00  0.00    +0.000 C 
BRANCH  11  22
ATOM     12  O   UNL     1       1.114   8.832  22.094  0.00  0.00    +0.000 OA
ATOM     13  C   UNL     1       1.076   9.558  21.110  0.00  0.00    +0.000 C 
ATOM     14  C   UNL     1       0.710  11.033  21.139  0.00  0.00    +0.000 C 
ATOM     15  C   UNL     1      -0.443  11.342  22.106  0.00  0.00    +0.000 C 
ATOM     16  C   UNL     1      -1.684  11.915  21.504  0.00  0.00    +0.000 C 
ATOM     17  C   UNL     1      -1.800  12.277  20.224  0.00  0.00    +0.000 C 
ATOM     18  C   UNL     1      -0.700  12.164  19.222  0.00  0.00    +0.000 C 
ATOM     19  C   UNL     1       0.529  11.366  19.655  0.00  0.00    +0.000 C 
ATOM     20  C   UNL     1       0.626  10.013  18.986  0.00  0.00    +0.000 C 
ATOM     21  O   UNL     1       0.158   9.735  17.892  0.00  0.00    +0.000 OA
ATOM     22  N   UNL     1       1.285   9.161  19.818  0.00  0.00    +0.000 N 
ENDBRANCH  11  22
ENDBRANCH   1  11
BRANCH   3  23
ATOM     23  C   UNL     1       3.861   5.613  17.295  0.00  0.00    +0.000 C 
BRANCH  23  24
ATOM     24  C   UNL     1       5.272   5.918  17.764  0.00  0.00    +0.000 A 
ATOM     25  C   UNL     1       5.832   5.280  18.877  0.00  0.00    +0.000 A 
ATOM     26  C   UNL     1       7.122   5.598  19.312  0.00  0.00    +0.000 A 
ATOM     27  C   UNL     1       7.888   6.535  18.622  0.00  0.00    +0.000 A 
ATOM     28  C   UNL     1       7.378   7.126  17.470  0.00  0.00    +0.000 A 
ATOM     29  C   UNL     1       6.083   6.813  17.038  0.00  0.00    +0.000 A 
ENDBRANCH  23  24
ENDBRANCH   3  23
TORSDOF 5
ENDMDL
MODEL 2
REMARK VINA RESULT:      -8.4      2.341      2.946
REMARK  Name = 
REMARK  5 active torsions:
REMARK  status: ('A' for Active; 'I' for Inactive)
REMARK    1  A    between atoms: N_11  and  C_12
REMARK    2  A    between atoms: C_12  and  C_13
REMARK    3  A    between atoms: N_15  and  C_16
REMARK    4  A    between atoms: N_15  and  C_23
REMARK    5  A    between atoms: C_16  and  C_17
REMARK                            x       y       z     vdW  Elec       q    Type
REMARK                         _______ _______ _______ _____ _____    ______ ____
ROOT
ATOM      1  C   UNL     1       4.153   6.320  17.343  0.00  0.00    +0.000 C 
ATOM      2  O   UNL     1       4.894   7.221  16.946  0.00  0.00    +0.000 OA
ATOM      3  N   UNL     1       4.601   4.984  17.488  0.00  0.00    +0.000 N 
ENDROOT
BRANCH   3   4
ATOM      4  C   UNL     1       3.878   3.985  18.310  0.00  0.00    +0.000 C 
ATOM      5  C   UNL     1       3.845   2.560  17.736  0.00  0.00    +0.000 C 
ATOM      6  C   UNL     1       3.247   1.692  18.835  0.00  0.00    +0.000 C 
ATOM      7  S   UNL     1       3.989   2.292  20.339  0.00  0.00    +0.000 S 
ATOM      8  O   UNL     1       5.215   1.555  20.564  0.00  0.00    +0.000 OA
ATOM      9  O   UNL     1       2.962   2.420  21.352  0.00  0.00    +0.000 OA
ATOM     10  C   UNL     1       4.421   3.913  19.743  0.00  0.00    +0.000 C 
ENDBRANCH   3   4
BRANCH   1  11
ATOM     11  C   UNL     1       2.683   6.609  17.750  0.00  0.00    +0.000 C 
BRANCH  11  22
ATOM     12  O   UNL     1       1.848   6.197  20.439  0.00  0.00    +0.000 OA
ATOM     13  C   UNL     1       2.002   7.328  20.002  0.00  0.00    +0.000 C 
ATOM     14  C   UNL     1       1.636   8.601  20.749  0.00  0.00    +0.000 C 
ATOM     15  C   UNL     1       0.317   8.477  21.525  0.00  0.00    +0.000 C 
ATOM     16  C   UNL     1      -0.784   9.404  21.124  0.00  0.00    +0.000 C 
ATOM     17  C   UNL     1      -0.648  10.390  20.234  0.00  0.00    +0.000 C 
ATOM     18  C   UNL     1       0.626  10.704  19.523  0.00  0.00    +0.000 C 
ATOM     19  C   UNL     1       1.748   9.675  19.663  0.00  0.00    +0.000 C 
ATOM     20  C   UNL     1       1.975   8.867  18.403  0.00  0.00    +0.000 C 
ATOM     21  O   UNL     1       1.728   9.250  17.270  0.00  0.00    +0.000 OA
ATOM     22  N   UNL     1       2.459   7.644  18.752  0.00  0.00    +0.000 N 
ENDBRANCH  11  22
ENDBRANCH   1  11
BRANCH   3  23
ATOM     23  C   UNL     1       5.997   4.669  17.082  0.00  0.00    +0.000 C 
BRANCH  23  24
ATOM     24  C   UNL     1       6.215   4.517  15.588  0.00  0.00    +0.000 A 
ATOM     25  C   UNL     1       5.290   3.850  14.773  0.00  0.00    +0.000 A 
ATOM     26  C   UNL     1       5.524   3.694  13.404  0.00  0.00    +0.000 A 
ATOM     27  C   UNL     1       6.669   4.229  12.818  0.00  0.00    +0.000 A 
ATOM     28  C   UNL     1       7.563   4.958  13.596  0.00  0.00    +0.000 A 
ATOM     29  C   UNL     1       7.333   5.110  14.969  0.00  0.00    +0.000 A 
ENDBRANCH  23  24
ENDBRANCH   3  23
TORSDOF 5
ENDMDL
MODEL 3
REMARK VINA RESULT:      -8.3      0.882      1.111
REMARK  Name = 
REMARK  5 active torsions:
REMARK  status: ('A' for Active; 'I' for Inactive)
REMARK    1  A    between atoms: N_11  and  C_12
REMARK    2  A    between atoms: C_12  and  C_13
REMARK    3  A    between atoms: N_15  and  C_16
REMARK    4  A    between atoms: N_15  and  C_23
REMARK    5  A    between atoms: C_16  and  C_17
REMARK                            x       y       z     vdW  Elec       q    Type
REMARK                         _______ _______ _______ _____ _____    ______ ____
ROOT
ATOM      1  C   UNL     1       2.667   7.187  17.935  0.00  0.00    +0.000 C 
ATOM      2  O   UNL     1       3.380   8.064  17.442  0.00  0.00    +0.000 OA
ATOM      3  N   UNL     1       2.993   5.812  17.845  0.00  0.00    +0.000 N 
ENDROOT
BRANCH   3   4
ATOM      4  C   UNL     1       2.392   4.790  18.733  0.00  0.00    +0.000 C 
ATOM      5  C   UNL     1       2.245   3.388  18.120  0.00  0.00    +0.000 C 
ATOM      6  C   UNL     1       1.813   2.485  19.268  0.00  0.00    +0.000 C 
ATOM      7  S   UNL     1       2.793   3.019  20.657  0.00  0.00    +0.000 S 
ATOM      8  O   UNL     1       4.026   2.260  20.657  0.00  0.00    +0.000 OA
ATOM      9  O   UNL     1       1.942   3.119  21.823  0.00  0.00    +0.000 OA
ATOM     10  C   UNL     1       3.153   4.657  20.059  0.00  0.00    +0.000 C 
ENDBRANCH   3   4
BRANCH   1  11
ATOM     11  C   UNL     1       1.381   7.547  18.726  0.00  0.00    +0.000 C 
BRANCH  11  22
ATOM     12  O   UNL     1       1.255   7.076  21.530  0.00  0.00    +0.000 OA
ATOM     13  C   UNL     1       1.369   8.213  21.094  0.00  0.00    +0.000 C 
ATOM     14  C   UNL     1       1.304   9.474  21.942  0.00  0.00    +0.000 C 
ATOM     15  C   UNL     1       0.229   9.401  23.036  0.00  0.00    +0.000 C 
ATOM     16  C   UNL     1      -0.869  10.411  22.963  0.00  0.00    +0.000 C 
ATOM     17  C   UNL     1      -0.901  11.423  22.092  0.00  0.00    +0.000 C 
ATOM     18  C   UNL     1       0.161  11.685  21.077  0.00  0.00    +0.000 C 
ATOM     19  C   UNL     1       1.203  10.583  20.891  0.00  0.00    +0.000 C 
ATOM     20  C   UNL     1       1.033   9.816  19.597  0.00  0.00    +0.000 C 
ATOM     21  O   UNL     1       0.526  10.261  18.578  0.00  0.00    +0.000 OA
ATOM     22  N   UNL     1       1.503   8.552  19.776  0.00  0.00    +0.000 N 
ENDBRANCH  11  22
ENDBRANCH   1  11
BRANCH   3  23
ATOM     23  C   UNL     1       4.205   5.431  17.070  0.00  0.00    +0.000 C 
BRANCH  23  24
ATOM     24  C   UNL     1       5.525   5.848  17.692  0.00  0.00    +0.000 A 
ATOM     25  C   UNL     1       6.031   5.217  18.835  0.00  0.00    +0.000 A 
ATOM     26  C   UNL     1       7.234   5.636  19.411  0.00  0.00    +0.000 A 
ATOM     27  C   UNL     1       7.969   6.670  18.837  0.00  0.00    +0.000 A 
ATOM     28  C   UNL     1       7.521   7.260  17.659  0.00  0.00    +0.000 A 
ATOM     29  C   UNL     1       6.312   6.846  17.085  0.00  0.00    +0.000 A 
ENDBRANCH  23  24
ENDBRANCH   3  23
TORSDOF 5
ENDMDL
MODEL 4
REMARK VINA RESULT:      -8.1      2.344      4.634
REMARK  Name = 
REMARK  5 active torsions:
REMARK  status: ('A' for Active; 'I' for Inactive)
REMARK    1  A    between atoms: N_11  and  C_12
REMARK    2  A    between atoms: C_12  and  C_13
REMARK    3  A    between atoms: N_15  and  C_16
REMARK    4  A    between atoms: N_15  and  C_23
REMARK    5  A    between atoms: C_16  and  C_17
REMARK                            x       y       z     vdW  Elec       q    Type
REMARK                         _______ _______ _______ _____ _____    ______ ____
ROOT
ATOM      1  C   UNL     1       2.466   6.550  18.083  0.00  0.00    +0.000 C 
ATOM      2  O   UNL     1       1.334   6.158  17.795  0.00  0.00    +0.000 OA
ATOM      3  N   UNL     1       3.553   5.658  18.254  0.00  0.00    +0.000 N 
ENDROOT
BRANCH   3   4
ATOM      4  C   UNL     1       4.965   6.104  18.211  0.00  0.00    +0.000 C 
ATOM      5  C   UNL     1       5.929   5.327  19.123  0.00  0.00    +0.000 C 
ATOM      6  C   UNL     1       7.323   5.816  18.753  0.00  0.00    +0.000 C 
ATOM      7  S   UNL     1       7.299   5.948  16.976  0.00  0.00    +0.000 S 
ATOM      8  O   UNL     1       7.709   4.674  16.423  0.00  0.00    +0.000 OA
ATOM      9  O   UNL     1       7.917   7.198  16.588  0.00  0.00    +0.000 OA
ATOM     10  C   UNL     1       5.534   6.088  16.786  0.00  0.00    +0.000 C 
ENDBRANCH   3   4
BRANCH   1  11
ATOM     11  C   UNL     1       2.778   8.063  18.235  0.00  0.00    +0.000 C 
BRANCH  11  22
ATOM     12  O   UNL     1       2.399  10.729  17.314  0.00  0.00    +0.000 OA
ATOM     13  C   UNL     1       1.619  10.230  18.113  0.00  0.00    +0.000 C 
ATOM     14  C   UNL     1       0.491  10.979  18.803  0.00  0.00    +0.000 C 
ATOM     15  C   UNL     1       0.893  12.399  19.229  0.00  0.00    +0.000 C 
ATOM     16  C   UNL     1       0.848  12.695  20.693  0.00  0.00    +0.000 C 
ATOM     17  C   UNL     1       0.374  11.853  21.615  0.00  0.00    +0.000 C 
ATOM     18  C   UNL     1      -0.182  10.503  21.306  0.00  0.00    +0.000 C 
ATOM     19  C   UNL     1       0.039   9.992  19.883  0.00  0.00    +0.000 C 
ATOM     20  C   UNL     1       1.077   8.894  19.800  0.00  0.00    +0.000 C 
ATOM     21  O   UNL     1       1.355   8.120  20.703  0.00  0.00    +0.000 OA
ATOM     22  N   UNL     1       1.665   8.943  18.573  0.00  0.00    +0.000 N 
ENDBRANCH  11  22
ENDBRANCH   1  11
BRANCH   3  23
ATOM     23  C   UNL     1       3.282   4.199  18.141  0.00  0.00    +0.000 C 
BRANCH  23  24
ATOM     24  C   UNL     1       2.647   3.565  19.364  0.00  0.00    +0.000 A 
ATOM     25  C   UNL     1       1.257   3.438  19.489  0.00  0.00    +0.000 A 
ATOM     26  C   UNL     1       0.690   2.878  20.637  0.00  0.00    +0.000 A 
ATOM     27  C   UNL     1       1.500   2.406  21.667  0.00  0.00    +0.000 A 
ATOM     28  C   UNL     1       2.884   2.455  21.530  0.00  0.00    +0.000 A 
ATOM     29  C   UNL     1       3.454   3.022  20.382  0.00  0.00    +0.000 A 
ENDBRANCH  23  24
ENDBRANCH   3  23
TORSDOF 5
ENDMDL
MODEL 5
REMARK VINA RESULT:      -8.0      1.750      2.208
REMARK  Name = 
REMARK  5 active torsions:
REMARK  status: ('A' for Active; 'I' for Inactive)
REMARK    1  A    between atoms: N_11  and  C_12
REMARK    2  A    between atoms: C_12  and  C_13
REMARK    3  A    between atoms: N_15  and  C_16
REMARK    4  A    between atoms: N_15  and  C_23
REMARK    5  A    between atoms: C_16  and  C_17
REMARK                            x       y       z     vdW  Elec       q    Type
REMARK                         _______ _______ _______ _____ _____    ______ ____
ROOT
ATOM      1  C   UNL     1       3.735   6.498  18.059  0.00  0.00    +0.000 C 
ATOM      2  O   UNL     1       4.647   7.296  17.828  0.00  0.00    +0.000 OA
ATOM      3  N   UNL     1       3.964   5.106  18.184  0.00  0.00    +0.000 N 
ENDROOT
BRANCH   3   4
ATOM      4  C   UNL     1       2.993   4.193  18.831  0.00  0.00    +0.000 C 
ATOM      5  C   UNL     1       3.135   2.709  18.456  0.00  0.00    +0.000 C 
ATOM      6  C   UNL     1       2.190   1.962  19.388  0.00  0.00    +0.000 C 
ATOM      7  S   UNL     1       2.392   2.757  20.970  0.00  0.00    +0.000 S 
ATOM      8  O   UNL     1       3.461   2.086  21.679  0.00  0.00    +0.000 OA
ATOM      9  O   UNL     1       1.087   2.977  21.556  0.00  0.00    +0.000 OA
ATOM     10  C   UNL     1       3.023   4.307  20.361  0.00  0.00    +0.000 C 
ENDBRANCH   3   4
BRANCH   1  11
ATOM     11  C   UNL     1       2.276   6.985  18.269  0.00  0.00    +0.000 C 
BRANCH  11  22
ATOM     12  O   UNL     1       1.205   7.209  20.896  0.00  0.00    +0.000 OA
ATOM     13  C   UNL     1       1.506   8.209  20.259  0.00  0.00    +0.000 C 
ATOM     14  C   UNL     1       1.219   9.634  20.702  0.00  0.00    +0.000 C 
ATOM     15  C   UNL     1      -0.160   9.787  21.359  0.00  0.00    +0.000 C 
ATOM     16  C   UNL     1      -1.127  10.702  20.681  0.00  0.00    +0.000 C 
ATOM     17  C   UNL     1      -0.823  11.468  19.630  0.00  0.00    +0.000 C 
ATOM     18  C   UNL     1       0.526  11.518  18.994  0.00  0.00    +0.000 C 
ATOM     19  C   UNL     1       1.521  10.448  19.440  0.00  0.00    +0.000 C 
ATOM     20  C   UNL     1       1.758   9.382  18.392  0.00  0.00    +0.000 C 
ATOM     21  O   UNL     1       1.637   9.542  17.187  0.00  0.00    +0.000 OA
ATOM     22  N   UNL     1       2.086   8.220  19.020  0.00  0.00    +0.000 N 
ENDBRANCH  11  22
ENDBRANCH   1  11
BRANCH   3  23
ATOM     23  C   UNL     1       5.348   4.605  17.962  0.00  0.00    +0.000 C 
BRANCH  23  24
ATOM     24  C   UNL     1       5.794   4.565  16.513  0.00  0.00    +0.000 A 
ATOM     25  C   UNL     1       4.956   4.086  15.497  0.00  0.00    +0.000 A 
ATOM     26  C   UNL     1       5.397   4.029  14.172  0.00  0.00    +0.000 A 
ATOM     27  C   UNL     1       6.671   4.478  13.832  0.00  0.00    +0.000 A 
ATOM     28  C   UNL     1       7.491   5.026  14.814  0.00  0.00    +0.000 A 
ATOM     29  C   UNL     1       7.053   5.078  16.143  0.00  0.00    +0.000 A 
ENDBRANCH  23  24
ENDBRANCH   3  23
TORSDOF 5
ENDMDL
MODEL 6
REMARK VINA RESULT:      -7.8      0.492      1.018
REMARK  Name = 
REMARK  5 active torsions:
REMARK  status: ('A' for Active; 'I' for Inactive)
REMARK    1  A    between atoms: N_11  and  C_12
REMARK    2  A    between atoms: C_12  and  C_13
REMARK    3  A    between atoms: N_15  and  C_16
REMARK    4  A    between atoms: N_15  and  C_23
REMARK    5  A    between atoms: C_16  and  C_17
REMARK                            x       y       z     vdW  Elec       q    Type
REMARK                         _______ _______ _______ _____ _____    ______ ____
ROOT
ATOM      1  C   UNL     1       2.376   7.567  18.897  0.00  0.00    +0.000 C 
ATOM      2  O   UNL     1       3.069   8.411  18.325  0.00  0.00    +0.000 OA
ATOM      3  N   UNL     1       2.432   6.192  18.563  0.00  0.00    +0.000 N 
ENDROOT
BRANCH   3   4
ATOM      4  C   UNL     1       1.925   5.130  19.464  0.00  0.00    +0.000 C 
ATOM      5  C   UNL     1       1.478   3.835  18.769  0.00  0.00    +0.000 C 
ATOM      6  C   UNL     1       1.207   2.842  19.892  0.00  0.00    +0.000 C 
ATOM      7  S   UNL     1       2.528   3.107  21.058  0.00  0.00    +0.000 S 
ATOM      8  O   UNL     1       3.630   2.242  20.696  0.00  0.00    +0.000 OA
ATOM      9  O   UNL     1       1.975   3.144  22.395  0.00  0.00    +0.000 OA
ATOM     10  C   UNL     1       2.940   4.765  20.555  0.00  0.00    +0.000 C 
ENDBRANCH   3   4
BRANCH   1  11
ATOM     11  C   UNL     1       1.423   7.962  20.057  0.00  0.00    +0.000 C 
BRANCH  11  22
ATOM     12  O   UNL     1       1.131   9.292  22.557  0.00  0.00    +0.000 OA
ATOM     13  C   UNL     1       0.986   9.902  21.506  0.00  0.00    +0.000 C 
ATOM     14  C   UNL     1       0.502  11.339  21.401  0.00  0.00    +0.000 C 
ATOM     15  C   UNL     1      -0.625  11.662  22.394  0.00  0.00    +0.000 C 
ATOM     16  C   UNL     1      -1.937  12.069  21.807  0.00  0.00    +0.000 C 
ATOM     17  C   UNL     1      -2.143  12.281  20.505  0.00  0.00    +0.000 C 
ATOM     18  C   UNL     1      -1.087  12.144  19.459  0.00  0.00    +0.000 C 
ATOM     19  C   UNL     1       0.223  11.494  19.904  0.00  0.00    +0.000 C 
ATOM     20  C   UNL     1       0.398  10.087  19.374  0.00  0.00    +0.000 C 
ATOM     21  O   UNL     1      -0.098   9.656  18.344  0.00  0.00    +0.000 OA
ATOM     22  N   UNL     1       1.164   9.384  20.253  0.00  0.00    +0.000 N 
ENDBRANCH  11  22
ENDBRANCH   1  11
BRANCH   3  23
ATOM     23  C   UNL     1       3.315   5.784  17.437  0.00  0.00    +0.000 C 
BRANCH  23  24
ATOM     24  C   UNL     1       4.801   5.972  17.682  0.00  0.00    +0.000 A 
ATOM     25  C   UNL     1       5.548   6.922  16.975  0.00  0.00    +0.000 A 
ATOM     26  C   UNL     1       6.922   7.060  17.193  0.00  0.00    +0.000 A 
ATOM     27  C   UNL     1       7.568   6.273  18.145  0.00  0.00    +0.000 A 
ATOM     28  C   UNL     1       6.830   5.376  18.911  0.00  0.00    +0.000 A 
ATOM     29  C   UNL     1       5.454   5.233  18.688  0.00  0.00    +0.000 A 
ENDBRANCH  23  24
ENDBRANCH   3  23
TORSDOF 5
ENDMDL
MODEL 7
REMARK VINA RESULT:      -7.5      3.125      8.272
REMARK  Name = 
REMARK  5 active torsions:
REMARK  status: ('A' for Active; 'I' for Inactive)
REMARK    1  A    between atoms: N_11  and  C_12
REMARK    2  A    between atoms: C_12  and  C_13
REMARK    3  A    between atoms: N_15  and  C_16
REMARK    4  A    between atoms: N_15  and  C_23
REMARK    5  A    between atoms: C_16  and  C_17
REMARK                            x       y       z     vdW  Elec       q    Type
REMARK                         _______ _______ _______ _____ _____    ______ ____
ROOT
ATOM      1  C   UNL     1       0.388   9.022  20.532  0.00  0.00    +0.000 C 
ATOM      2  O   UNL     1      -0.536   8.426  21.088  0.00  0.00    +0.000 OA
ATOM      3  N   UNL     1       0.229  10.319  19.985  0.00  0.00    +0.000 N 
ENDROOT
BRANCH   3   4
ATOM      4  C   UNL     1       1.379  11.199  19.671  0.00  0.00    +0.000 C 
ATOM      5  C   UNL     1       1.679  11.381  18.175  0.00  0.00    +0.000 C 
ATOM      6  C   UNL     1       2.742  12.470  18.102  0.00  0.00    +0.000 C 
ATOM      7  S   UNL     1       2.238  13.675  19.315  0.00  0.00    +0.000 S 
ATOM      8  O   UNL     1       1.361  14.628  18.666  0.00  0.00    +0.000 OA
ATOM      9  O   UNL     1       3.394  14.081  20.084  0.00  0.00    +0.000 OA
ATOM     10  C   UNL     1       1.234  12.589  20.305  0.00  0.00    +0.000 C 
ENDBRANCH   3   4
BRANCH   1  11
ATOM     11  C   UNL     1       1.805   8.395  20.433  0.00  0.00    +0.000 C 
BRANCH  11  22
ATOM     12  O   UNL     1       1.851   5.695  21.332  0.00  0.00    +0.000 OA
ATOM     13  C   UNL     1       2.018   5.960  20.150  0.00  0.00    +0.000 C 
ATOM     14  C   UNL     1       2.408   4.949  19.084  0.00  0.00    +0.000 C 
ATOM     15  C   UNL     1       3.446   3.932  19.580  0.00  0.00    +0.000 C 
ATOM     16  C   UNL     1       4.761   3.919  18.870  0.00  0.00    +0.000 C 
ATOM     17  C   UNL     1       5.031   4.639  17.779  0.00  0.00    +0.000 C 
ATOM     18  C   UNL     1       4.054   5.551  17.117  0.00  0.00    +0.000 C 
ATOM     19  C   UNL     1       2.767   5.837  17.890  0.00  0.00    +0.000 C 
ATOM     20  C   UNL     1       2.721   7.232  18.474  0.00  0.00    +0.000 C 
ATOM     21  O   UNL     1       3.308   8.203  18.021  0.00  0.00    +0.000 OA
ATOM     22  N   UNL     1       1.953   7.209  19.597  0.00  0.00    +0.000 N 
ENDBRANCH  11  22
ENDBRANCH   1  11
BRANCH   3  23
ATOM     23  C   UNL     1      -1.123  10.937  20.039  0.00  0.00    +0.000 C 
BRANCH  23  24
ATOM     24  C   UNL     1      -1.925  10.847  18.754  0.00  0.00    +0.000 A 
ATOM     25  C   UNL     1      -1.562   9.976  17.720  0.00  0.00    +0.000 A 
ATOM     26  C   UNL     1      -2.296   9.930  16.531  0.00  0.00    +0.000 A 
ATOM     27  C   UNL     1      -3.424  10.730  16.366  0.00  0.00    +0.000 A 
ATOM     28  C   UNL     1      -3.844  11.549  17.410  0.00  0.00    +0.000 A 
ATOM     29  C   UNL     1      -3.105  11.600  18.599  0.00  0.00    +0.000 A 
ENDBRANCH  23  24
ENDBRANCH   3  23
TORSDOF 5
ENDMDL
MODEL 8
REMARK VINA RESULT:      -7.5      2.415      3.115
REMARK  Name = 
REMARK  5 active torsions:
REMARK  status: ('A' for Active; 'I' for Inactive)
REMARK    1  A    between atoms: N_11  and  C_12
REMARK    2  A    between atoms: C_12  and  C_13
REMARK    3  A    between atoms: N_15  and  C_16
REMARK    4  A    between atoms: N_15  and  C_23
REMARK    5  A    between atoms: C_16  and  C_17
REMARK                            x       y       z     vdW  Elec       q    Type
REMARK                         _______ _______ _______ _____ _____    ______ ____
ROOT
ATOM      1  C   UNL     1       4.218   6.169  17.588  0.00  0.00    +0.000 C 
ATOM      2  O   UNL     1       4.945   7.126  17.313  0.00  0.00    +0.000 OA
ATOM      3  N   UNL     1       4.682   4.832  17.542  0.00  0.00    +0.000 N 
ENDROOT
BRANCH   3   4
ATOM      4  C   UNL     1       3.979   3.720  18.223  0.00  0.00    +0.000 C 
ATOM      5  C   UNL     1       3.986   3.779  19.759  0.00  0.00    +0.000 C 
ATOM      6  C   UNL     1       3.041   2.674  20.214  0.00  0.00    +0.000 C 
ATOM      7  S   UNL     1       1.668   2.758  19.081  0.00  0.00    +0.000 S 
ATOM      8  O   UNL     1       0.691   3.678  19.623  0.00  0.00    +0.000 OA
ATOM      9  O   UNL     1       1.324   1.417  18.659  0.00  0.00    +0.000 OA
ATOM     10  C   UNL     1       2.524   3.582  17.755  0.00  0.00    +0.000 C 
ENDBRANCH   3   4
BRANCH   1  11
ATOM     11  C   UNL     1       2.750   6.381  18.043  0.00  0.00    +0.000 C 
BRANCH  11  22
ATOM     12  O   UNL     1       1.750   6.295  20.707  0.00  0.00    +0.000 OA
ATOM     13  C   UNL     1       1.941   7.366  20.148  0.00  0.00    +0.000 C 
ATOM     14  C   UNL     1       1.543   8.720  20.714  0.00  0.00    +0.000 C 
ATOM     15  C   UNL     1       0.178   8.692  21.417  0.00  0.00    +0.000 C 
ATOM     16  C   UNL     1      -0.888   9.567  20.842  0.00  0.00    +0.000 C 
ATOM     17  C   UNL     1      -0.689  10.440  19.851  0.00  0.00    +0.000 C 
ATOM     18  C   UNL     1       0.629  10.663  19.187  0.00  0.00    +0.000 C 
ATOM     19  C   UNL     1       1.729   9.656  19.516  0.00  0.00    +0.000 C 
ATOM     20  C   UNL     1       2.025   8.703  18.378  0.00  0.00    +0.000 C 
ATOM     21  O   UNL     1       1.850   8.948  17.194  0.00  0.00    +0.000 OA
ATOM     22  N   UNL     1       2.475   7.529  18.899  0.00  0.00    +0.000 N 
ENDBRANCH  11  22
ENDBRANCH   1  11
BRANCH   3  23
ATOM     23  C   UNL     1       6.077   4.593  17.083  0.00  0.00    +0.000 C 
BRANCH  23  24
ATOM     24  C   UNL     1       6.249   4.467  15.581  0.00  0.00    +0.000 A 
ATOM     25  C   UNL     1       5.297   3.819  14.783  0.00  0.00    +0.000 A 
ATOM     26  C   UNL     1       5.488   3.687  13.404  0.00  0.00    +0.000 A 
ATOM     27  C   UNL     1       6.618   4.226  12.793  0.00  0.00    +0.000 A 
ATOM     28  C   UNL     1       7.539   4.937  13.557  0.00  0.00    +0.000 A 
ATOM     29  C   UNL     1       7.351   5.065  14.939  0.00  0.00    +0.000 A 
ENDBRANCH  23  24
ENDBRANCH   3  23
TORSDOF 5
ENDMDL
MODEL 9
REMARK VINA RESULT:      -7.4      1.626      2.036
REMARK  Name = 
REMARK  5 active torsions:
REMARK  status: ('A' for Active; 'I' for Inactive)
REMARK    1  A    between atoms: N_11  and  C_12
REMARK    2  A    between atoms: C_12  and  C_13
REMARK    3  A    between atoms: N_15  and  C_16
REMARK    4  A    between atoms: N_15  and  C_23
REMARK    5  A    between atoms: C_16  and  C_17
REMARK                            x       y       z     vdW  Elec       q    Type
REMARK                         _______ _______ _______ _____ _____    ______ ____
ROOT
ATOM      1  C   UNL     1       3.600   6.966  18.071  0.00  0.00    +0.000 C 
ATOM      2  O   UNL     1       4.596   7.663  17.867  0.00  0.00    +0.000 OA
ATOM      3  N   UNL     1       3.690   5.573  18.309  0.00  0.00    +0.000 N 
ENDROOT
BRANCH   3   4
ATOM      4  C   UNL     1       2.591   4.797  18.930  0.00  0.00    +0.000 C 
ATOM      5  C   UNL     1       1.665   4.064  17.946  0.00  0.00    +0.000 C 
ATOM      6  C   UNL     1       0.767   3.186  18.808  0.00  0.00    +0.000 C 
ATOM      7  S   UNL     1       1.850   2.521  20.058  0.00  0.00    +0.000 S 
ATOM      8  O   UNL     1       2.410   1.284  19.557  0.00  0.00    +0.000 OA
ATOM      9  O   UNL     1       1.196   2.614  21.345  0.00  0.00    +0.000 OA
ATOM     10  C   UNL     1       3.108   3.777  19.953  0.00  0.00    +0.000 C 
ENDBRANCH   3   4
BRANCH   1  11
ATOM     11  C   UNL     1       2.180   7.590  18.120  0.00  0.00    +0.000 C 
BRANCH  11  22
ATOM     12  O   UNL     1       1.199   7.499  20.791  0.00  0.00    +0.000 OA
ATOM     13  C   UNL     1       1.449   8.570  20.255  0.00  0.00    +0.000 C 
ATOM     14  C   UNL     1       1.138   9.930  20.858  0.00  0.00    +0.000 C 
ATOM     15  C   UNL     1      -0.221   9.967  21.574  0.00  0.00    +0.000 C 
ATOM     16  C   UNL     1      -1.237  10.918  21.030  0.00  0.00    +0.000 C 
ATOM     17  C   UNL     1      -0.994  11.801  20.059  0.00  0.00    +0.000 C 
ATOM     18  C   UNL     1       0.329  11.962  19.387  0.00  0.00    +0.000 C 
ATOM     19  C   UNL     1       1.370  10.883  19.682  0.00  0.00    +0.000 C 
ATOM     20  C   UNL     1       1.598   9.942  18.518  0.00  0.00    +0.000 C 
ATOM     21  O   UNL     1       1.429  10.226  17.342  0.00  0.00    +0.000 OA
ATOM     22  N   UNL     1       1.982   8.731  19.006  0.00  0.00    +0.000 N 
ENDBRANCH  11  22
ENDBRANCH   1  11
BRANCH   3  23
ATOM     23  C   UNL     1       5.035   4.939  18.243  0.00  0.00    +0.000 C 
BRANCH  23  24
ATOM     24  C   UNL     1       5.608   4.789  16.846  0.00  0.00    +0.000 A 
ATOM     25  C   UNL     1       6.944   5.097  16.561  0.00  0.00    +0.000 A 
ATOM     26  C   UNL     1       7.445   4.981  15.262  0.00  0.00    +0.000 A 
ATOM     27  C   UNL     1       6.629   4.524  14.229  0.00  0.00    +0.000 A 
ATOM     28  C   UNL     1       5.320   4.142  14.505  0.00  0.00    +0.000 A 
ATOM     29  C   UNL     1       4.816   4.264  15.806  0.00  0.00    +0.000 A 
ENDBRANCH  23  24
ENDBRANCH   3  23
TORSDOF 5
ENDMDL
