MODEL 1
REMARK VINA RESULT:      -8.4      0.000      0.000
REMARK  Name = 
REMARK  6 active torsions:
REMARK  status: ('A' for Active; 'I' for Inactive)
REMARK    1  A    between atoms: S_2  and  N_4
REMARK    2  A    between atoms: S_2  and  C_10
REMARK    3  A    between atoms: C_13  and  O_14
REMARK    4  A    between atoms: O_14  and  C_15
REMARK    5  A    between atoms: C_18  and  O_19
REMARK    6  A    between atoms: O_19  and  C_20
REMARK                            x       y       z     vdW  Elec       q    Type
REMARK                         _______ _______ _______ _____ _____    ______ ____
ROOT
ATOM      1  C   UNL     1      -3.078  11.214  18.202  0.00  0.00    +0.000 A 
ATOM      2  C   UNL     1      -2.487  10.224  17.411  0.00  0.00    +0.000 A 
ATOM      3  C   UNL     1      -1.113   9.993  17.510  0.00  0.00    +0.000 A 
ATOM      4  C   UNL     1      -0.332  10.751  18.389  0.00  0.00    +0.000 A 
ATOM      5  C   UNL     1      -0.950  11.715  19.193  0.00  0.00    +0.000 A 
ATOM      6  F   UNL     1      -0.253  12.420  20.095  0.00  0.00    +0.000 F 
ATOM      7  C   UNL     1      -2.312  11.976  19.084  0.00  0.00    +0.000 A 
ENDROOT
BRANCH   1   9
ATOM      8  O   UNL     1      -5.505  10.378  18.651  0.00  0.00    +0.000 OA
ATOM      9  S   UNL     1      -4.819  11.507  18.065  0.00  0.00    +0.000 S 
ATOM     10  O   UNL     1      -5.090  11.911  16.700  0.00  0.00    +0.000 OA
BRANCH   9  11
ATOM     11  N   UNL     1      -5.019  12.917  18.971  0.00  0.00    +0.000 N 
ATOM     12  C   UNL     1      -5.995  12.773  19.979  0.00  0.00    +0.000 A 
ATOM     13  N   UNL     1      -5.687  12.260  21.144  0.00  0.00    +0.000 NA
ATOM     14  C   UNL     1      -6.790  12.349  21.978  0.00  0.00    +0.000 A 
ATOM     15  C   UNL     1      -7.916  12.913  21.414  0.00  0.00    +0.000 A 
ATOM     16  S   UNL     1      -7.573  13.406  19.808  0.00  0.00    +0.000 S 
ATOM     17  H   UNL     1      -5.269  13.643  18.301  0.00  0.00    +0.000 HD
ENDBRANCH   9  11
ENDBRANCH   1   9
BRANCH   4  18
ATOM     18  O   UNL     1       1.001  10.409  18.442  0.00  0.00    +0.000 OA
BRANCH  18  19
ATOM     19  C   UNL     1       1.389   9.197  18.968  0.00  0.00    +0.000 A 
ATOM     20  C   UNL     1       1.068   8.983  20.312  0.00  0.00    +0.000 A 
ATOM     21  C   UNL     1       1.375   7.766  20.928  0.00  0.00    +0.000 A 
ATOM     22  C   UNL     1       2.009   6.759  20.198  0.00  0.00    +0.000 A 
ATOM     23  C   UNL     1       2.386   7.001  18.873  0.00  0.00    +0.000 A 
ATOM     24  C   UNL     1       2.013   8.184  18.240  0.00  0.00    +0.000 A 
BRANCH  22  25
ATOM     25  O   UNL     1       2.230   5.562  20.848  0.00  0.00    +0.000 OA
BRANCH  25  26
ATOM     26  C   UNL     1       2.474   4.438  20.087  0.00  0.00    +0.000 A 
ATOM     27  C   UNL     1       3.810   4.166  19.778  0.00  0.00    +0.000 A 
ATOM     28  C   UNL     1       4.123   3.098  18.936  0.00  0.00    +0.000 A 
ATOM     29  C   UNL     1       3.100   2.314  18.412  0.00  0.00    +0.000 A 
ATOM     30  F   UNL     1       3.396   1.323  17.560  0.00  0.00    +0.000 F 
ATOM     31  C   UNL     1       1.773   2.542  18.755  0.00  0.00    +0.000 A 
ATOM     32  C   UNL     1       1.463   3.582  19.626  0.00  0.00    +0.000 A 
ENDBRANCH  25  26
ENDBRANCH  22  25
ENDBRANCH  18  19
ENDBRANCH   4  18
TORSDOF 6
ENDMDL
MODEL 2
REMARK VINA RESULT:      -8.3      1.420      1.893
REMARK  Name = 
REMARK  6 active torsions:
REMARK  status: ('A' for Active; 'I' for Inactive)
REMARK    1  A    between atoms: S_2  and  N_4
REMARK    2  A    between atoms: S_2  and  C_10
REMARK    3  A    between atoms: C_13  and  O_14
REMARK    4  A    between atoms: O_14  and  C_15
REMARK    5  A    between atoms: C_18  and  O_19
REMARK    6  A    between atoms: O_19  and  C_20
REMARK                            x       y       z     vdW  Elec       q    Type
REMARK                         _______ _______ _______ _____ _____    ______ ____
ROOT
ATOM      1  C   UNL     1      -3.041  11.357  18.286  0.00  0.00    +0.000 A 
ATOM      2  C   UNL     1      -2.378  10.520  17.384  0.00  0.00    +0.000 A 
ATOM      3  C   UNL     1      -1.007  10.295  17.532  0.00  0.00    +0.000 A 
ATOM      4  C   UNL     1      -0.301  10.908  18.572  0.00  0.00    +0.000 A 
ATOM      5  C   UNL     1      -0.992  11.717  19.482  0.00  0.00    +0.000 A 
ATOM      6  F   UNL     1      -0.369  12.272  20.530  0.00  0.00    +0.000 F 
ATOM      7  C   UNL     1      -2.350  11.973  19.330  0.00  0.00    +0.000 A 
ENDROOT
BRANCH   1   9
ATOM      8  O   UNL     1      -5.478  10.487  18.596  0.00  0.00    +0.000 OA
ATOM      9  S   UNL     1      -4.777  11.643  18.087  0.00  0.00    +0.000 S 
ATOM     10  O   UNL     1      -4.993  12.102  16.730  0.00  0.00    +0.000 OA
BRANCH   9  11
ATOM     11  N   UNL     1      -5.027  13.014  19.040  0.00  0.00    +0.000 N 
ATOM     12  C   UNL     1      -5.995  12.798  20.045  0.00  0.00    +0.000 A 
ATOM     13  N   UNL     1      -5.666  12.258  21.191  0.00  0.00    +0.000 NA
ATOM     14  C   UNL     1      -6.769  12.277  22.029  0.00  0.00    +0.000 A 
ATOM     15  C   UNL     1      -7.916  12.818  21.486  0.00  0.00    +0.000 A 
ATOM     16  S   UNL     1      -7.596  13.378  19.897  0.00  0.00    +0.000 S 
ATOM     17  H   UNL     1      -5.306  13.752  18.396  0.00  0.00    +0.000 HD
ENDBRANCH   9  11
ENDBRANCH   1   9
BRANCH   4  18
ATOM     18  O   UNL     1       1.034  10.581  18.655  0.00  0.00    +0.000 OA
BRANCH  18  19
ATOM     19  C   UNL     1       1.419   9.299  18.978  0.00  0.00    +0.000 A 
ATOM     20  C   UNL     1       2.064   8.582  17.966  0.00  0.00    +0.000 A 
ATOM     21  C   UNL     1       2.538   7.288  18.207  0.00  0.00    +0.000 A 
ATOM     22  C   UNL     1       2.364   6.708  19.464  0.00  0.00    +0.000 A 
ATOM     23  C   UNL     1       1.661   7.404  20.453  0.00  0.00    +0.000 A 
ATOM     24  C   UNL     1       1.256   8.719  20.235  0.00  0.00    +0.000 A 
BRANCH  22  25
ATOM     25  O   UNL     1       2.907   5.455  19.653  0.00  0.00    +0.000 OA
BRANCH  25  26
ATOM     26  C   UNL     1       3.966   5.071  18.856  0.00  0.00    +0.000 A 
ATOM     27  C   UNL     1       5.246   5.400  19.309  0.00  0.00    +0.000 A 
ATOM     28  C   UNL     1       6.357   5.124  18.510  0.00  0.00    +0.000 A 
ATOM     29  C   UNL     1       6.177   4.524  17.268  0.00  0.00    +0.000 A 
ATOM     30  F   UNL     1       7.237   4.309  16.477  0.00  0.00    +0.000 F 
ATOM     31  C   UNL     1       4.914   4.144  16.830  0.00  0.00    +0.000 A 
ATOM     32  C   UNL     1       3.810   4.382  17.644  0.00  0.00    +0.000 A 
ENDBRANCH  25  26
ENDBRANCH  22  25
ENDBRANCH  18  19
ENDBRANCH   4  18
TORSDOF 6
ENDMDL
MODEL 3
REMARK VINA RESULT:      -8.0      2.275      2.849
REMARK  Name = 
REMARK  6 active torsions:
REMARK  status: ('A' for Active; 'I' for Inactive)
REMARK    1  A    between atoms: S_2  and  N_4
REMARK    2  A    between atoms: S_2  and  C_10
REMARK    3  A    between atoms: C_13  and  O_14
REMARK    4  A    between atoms: O_14  and  C_15
REMARK    5  A    between atoms: C_18  and  O_19
REMARK    6  A    between atoms: O_19  and  C_20
REMARK                            x       y       z     vdW  Elec       q    Type
REMARK                         _______ _______ _______ _____ _____    ______ ____
ROOT
ATOM      1  C   UNL     1      -2.518  12.282  19.845  0.00  0.00    +0.000 A 
ATOM      2  C   UNL     1      -1.305  12.710  20.392  0.00  0.00    +0.000 A 
ATOM      3  C   UNL     1      -0.111  12.124  19.964  0.00  0.00    +0.000 A 
ATOM      4  C   UNL     1      -0.130  11.111  19.000  0.00  0.00    +0.000 A 
ATOM      5  C   UNL     1      -1.354  10.720  18.445  0.00  0.00    +0.000 A 
ATOM      6  F   UNL     1      -1.414   9.799  17.473  0.00  0.00    +0.000 F 
ATOM      7  C   UNL     1      -2.551  11.274  18.882  0.00  0.00    +0.000 A 
ENDROOT
BRANCH   1   9
ATOM      8  O   UNL     1      -5.090  12.568  19.534  0.00  0.00    +0.000 OA
ATOM      9  S   UNL     1      -4.028  13.025  20.399  0.00  0.00    +0.000 S 
ATOM     10  O   UNL     1      -3.778  14.440  20.582  0.00  0.00    +0.000 OA
BRANCH   9  11
ATOM     11  N   UNL     1      -4.173  12.416  21.967  0.00  0.00    +0.000 N 
ATOM     12  C   UNL     1      -5.417  12.737  22.553  0.00  0.00    +0.000 A 
ATOM     13  N   UNL     1      -6.473  11.993  22.338  0.00  0.00    +0.000 NA
ATOM     14  C   UNL     1      -7.515  12.458  23.124  0.00  0.00    +0.000 A 
ATOM     15  C   UNL     1      -7.225  13.558  23.903  0.00  0.00    +0.000 A 
ATOM     16  S   UNL     1      -5.579  13.994  23.698  0.00  0.00    +0.000 S 
ATOM     17  H   UNL     1      -3.394  12.810  22.491  0.00  0.00    +0.000 HD
ENDBRANCH   9  11
ENDBRANCH   1   9
BRANCH   4  18
ATOM     18  O   UNL     1       1.104  10.636  18.616  0.00  0.00    +0.000 OA
BRANCH  18  19
ATOM     19  C   UNL     1       1.480   9.346  18.918  0.00  0.00    +0.000 A 
ATOM     20  C   UNL     1       2.064   8.621  17.875  0.00  0.00    +0.000 A 
ATOM     21  C   UNL     1       2.526   7.318  18.091  0.00  0.00    +0.000 A 
ATOM     22  C   UNL     1       2.400   6.737  19.354  0.00  0.00    +0.000 A 
ATOM     23  C   UNL     1       1.756   7.443  20.376  0.00  0.00    +0.000 A 
ATOM     24  C   UNL     1       1.365   8.766  20.180  0.00  0.00    +0.000 A 
BRANCH  22  25
ATOM     25  O   UNL     1       2.928   5.474  19.515  0.00  0.00    +0.000 OA
BRANCH  25  26
ATOM     26  C   UNL     1       4.001   5.105  18.729  0.00  0.00    +0.000 A 
ATOM     27  C   UNL     1       5.274   5.390  19.230  0.00  0.00    +0.000 A 
ATOM     28  C   UNL     1       6.400   5.129  18.447  0.00  0.00    +0.000 A 
ATOM     29  C   UNL     1       6.243   4.588  17.176  0.00  0.00    +0.000 A 
ATOM     30  F   UNL     1       7.319   4.388  16.404  0.00  0.00    +0.000 F 
ATOM     31  C   UNL     1       4.985   4.252  16.689  0.00  0.00    +0.000 A 
ATOM     32  C   UNL     1       3.864   4.474  17.484  0.00  0.00    +0.000 A 
ENDBRANCH  25  26
ENDBRANCH  22  25
ENDBRANCH  18  19
ENDBRANCH   4  18
TORSDOF 6
ENDMDL
MODEL 4
REMARK VINA RESULT:      -8.0      6.198     10.925
REMARK  Name = 
REMARK  6 active torsions:
REMARK  status: ('A' for Active; 'I' for Inactive)
REMARK    1  A    between atoms: S_2  and  N_4
REMARK    2  A    between atoms: S_2  and  C_10
REMARK    3  A    between atoms: C_13  and  O_14
REMARK    4  A    between atoms: O_14  and  C_15
REMARK    5  A    between atoms: C_18  and  O_19
REMARK    6  A    between atoms: O_19  and  C_20
REMARK                            x       y       z     vdW  Elec       q    Type
REMARK                         _______ _______ _______ _____ _____    ______ ____
ROOT
ATOM      1  C   UNL     1       5.615   6.105  18.568  0.00  0.00    +0.000 A 
ATOM      2  C   UNL     1       5.298   7.105  17.643  0.00  0.00    +0.000 A 
ATOM      3  C   UNL     1       3.983   7.566  17.552  0.00  0.00    +0.000 A 
ATOM      4  C   UNL     1       2.988   7.027  18.374  0.00  0.00    +0.000 A 
ATOM      5  C   UNL     1       3.335   6.049  19.313  0.00  0.00    +0.000 A 
ATOM      6  F   UNL     1       2.429   5.551  20.166  0.00  0.00    +0.000 F 
ATOM      7  C   UNL     1       4.634   5.560  19.396  0.00  0.00    +0.000 A 
ENDROOT
BRANCH   1   9
ATOM      8  O   UNL     1       7.575   5.258  20.063  0.00  0.00    +0.000 OA
ATOM      9  S   UNL     1       7.284   5.520  18.673  0.00  0.00    +0.000 S 
ATOM     10  O   UNL     1       8.113   6.422  17.900  0.00  0.00    +0.000 OA
BRANCH   9  11
ATOM     11  N   UNL     1       7.227   4.106  17.752  0.00  0.00    +0.000 N 
ATOM     12  C   UNL     1       6.757   4.338  16.442  0.00  0.00    +0.000 A 
ATOM     13  N   UNL     1       7.572   4.731  15.495  0.00  0.00    +0.000 NA
ATOM     14  C   UNL     1       6.882   4.761  14.294  0.00  0.00    +0.000 A 
ATOM     15  C   UNL     1       5.550   4.407  14.366  0.00  0.00    +0.000 A 
ATOM     16  S   UNL     1       5.157   3.961  15.975  0.00  0.00    +0.000 S 
ATOM     17  H   UNL     1       6.623   3.466  18.265  0.00  0.00    +0.000 HD
ENDBRANCH   9  11
ENDBRANCH   1   9
BRANCH   4  18
ATOM     18  O   UNL     1       1.737   7.586  18.235  0.00  0.00    +0.000 OA
BRANCH  18  19
ATOM     19  C   UNL     1       1.392   8.709  18.953  0.00  0.00    +0.000 A 
ATOM     20  C   UNL     1       1.283   9.893  18.219  0.00  0.00    +0.000 A 
ATOM     21  C   UNL     1       0.891  11.081  18.845  0.00  0.00    +0.000 A 
ATOM     22  C   UNL     1       0.608  11.085  20.212  0.00  0.00    +0.000 A 
ATOM     23  C   UNL     1       0.781   9.912  20.954  0.00  0.00    +0.000 A 
ATOM     24  C   UNL     1       1.100   8.715  20.316  0.00  0.00    +0.000 A 
BRANCH  22  25
ATOM     25  O   UNL     1       0.170  12.274  20.755  0.00  0.00    +0.000 OA
BRANCH  25  26
ATOM     26  C   UNL     1      -1.088  12.312  21.322  0.00  0.00    +0.000 A 
ATOM     27  C   UNL     1      -2.158  12.564  20.461  0.00  0.00    +0.000 A 
ATOM     28  C   UNL     1      -3.446  12.708  20.980  0.00  0.00    +0.000 A 
ATOM     29  C   UNL     1      -3.650  12.598  22.352  0.00  0.00    +0.000 A 
ATOM     30  F   UNL     1      -4.876  12.790  22.856  0.00  0.00    +0.000 F 
ATOM     31  C   UNL     1      -2.601  12.295  23.211  0.00  0.00    +0.000 A 
ATOM     32  C   UNL     1      -1.323  12.112  22.690  0.00  0.00    +0.000 A 
ENDBRANCH  25  26
ENDBRANCH  22  25
ENDBRANCH  18  19
ENDBRANCH   4  18
TORSDOF 6
ENDMDL
MODEL 5
REMARK VINA RESULT:      -7.9      5.641      7.518
REMARK  Name = 
REMARK  6 active torsions:
REMARK  status: ('A' for Active; 'I' for Inactive)
REMARK    1  A    between atoms: S_2  and  N_4
REMARK    2  A    between atoms: S_2  and  C_10
REMARK    3  A    between atoms: C_13  and  O_14
REMARK    4  A    between atoms: O_14  and  C_15
REMARK    5  A    between atoms: C_18  and  O_19
REMARK    6  A    between atoms: O_19  and  C_20
REMARK                            x       y       z     vdW  Elec       q    Type
REMARK                         _______ _______ _______ _____ _____    ______ ____
ROOT
ATOM      1  C   UNL     1       2.889  14.726  19.396  0.00  0.00    +0.000 A 
ATOM      2  C   UNL     1       2.924  14.065  18.165  0.00  0.00    +0.000 A 
ATOM      3  C   UNL     1       2.186  12.892  17.992  0.00  0.00    +0.000 A 
ATOM      4  C   UNL     1       1.422  12.378  19.045  0.00  0.00    +0.000 A 
ATOM      5  C   UNL     1       1.377  13.075  20.258  0.00  0.00    +0.000 A 
ATOM      6  F   UNL     1       0.608  12.656  21.273  0.00  0.00    +0.000 F 
ATOM      7  C   UNL     1       2.130  14.227  20.454  0.00  0.00    +0.000 A 
ENDROOT
BRANCH   1   9
ATOM      8  O   UNL     1       4.571  16.090  20.847  0.00  0.00    +0.000 OA
ATOM      9  S   UNL     1       3.835  16.208  19.610  0.00  0.00    +0.000 S 
ATOM     10  O   UNL     1       2.948  17.331  19.381  0.00  0.00    +0.000 OA
BRANCH   9  11
ATOM     11  N   UNL     1       4.846  16.188  18.258  0.00  0.00    +0.000 N 
ATOM     12  C   UNL     1       6.186  15.901  18.596  0.00  0.00    +0.000 A 
ATOM     13  N   UNL     1       6.598  14.665  18.724  0.00  0.00    +0.000 NA
ATOM     14  C   UNL     1       7.967  14.668  18.934  0.00  0.00    +0.000 A 
ATOM     15  C   UNL     1       8.557  15.915  18.979  0.00  0.00    +0.000 A 
ATOM     16  S   UNL     1       7.377  17.124  18.688  0.00  0.00    +0.000 S 
ATOM     17  H   UNL     1       4.751  17.105  17.826  0.00  0.00    +0.000 HD
ENDBRANCH   9  11
ENDBRANCH   1   9
BRANCH   4  18
ATOM     18  O   UNL     1       0.696  11.246  18.753  0.00  0.00    +0.000 OA
BRANCH  18  19
ATOM     19  C   UNL     1       1.203   9.999  19.042  0.00  0.00    +0.000 A 
ATOM     20  C   UNL     1       1.930   9.383  18.018  0.00  0.00    +0.000 A 
ATOM     21  C   UNL     1       2.528   8.136  18.225  0.00  0.00    +0.000 A 
ATOM     22  C   UNL     1       2.397   7.500  19.460  0.00  0.00    +0.000 A 
ATOM     23  C   UNL     1       1.615   8.089  20.459  0.00  0.00    +0.000 A 
ATOM     24  C   UNL     1       1.083   9.363  20.277  0.00  0.00    +0.000 A 
BRANCH  22  25
ATOM     25  O   UNL     1       3.061   6.301  19.618  0.00  0.00    +0.000 OA
BRANCH  25  26
ATOM     26  C   UNL     1       2.359   5.131  19.413  0.00  0.00    +0.000 A 
ATOM     27  C   UNL     1       2.409   4.584  18.129  0.00  0.00    +0.000 A 
ATOM     28  C   UNL     1       1.649   3.452  17.827  0.00  0.00    +0.000 A 
ATOM     29  C   UNL     1       0.848   2.881  18.810  0.00  0.00    +0.000 A 
ATOM     30  F   UNL     1       0.077   1.829  18.506  0.00  0.00    +0.000 F 
ATOM     31  C   UNL     1       0.831   3.385  20.105  0.00  0.00    +0.000 A 
ATOM     32  C   UNL     1       1.620   4.489  20.418  0.00  0.00    +0.000 A 
ENDBRANCH  25  26
ENDBRANCH  22  25
ENDBRANCH  18  19
ENDBRANCH   4  18
TORSDOF 6
ENDMDL
MODEL 6
REMARK VINA RESULT:      -7.9      1.806      2.133
REMARK  Name = 
REMARK  6 active torsions:
REMARK  status: ('A' for Active; 'I' for Inactive)
REMARK    1  A    between atoms: S_2  and  N_4
REMARK    2  A    between atoms: S_2  and  C_10
REMARK    3  A    between atoms: C_13  and  O_14
REMARK    4  A    between atoms: O_14  and  C_15
REMARK    5  A    between atoms: C_18  and  O_19
REMARK    6  A    between atoms: O_19  and  C_20
REMARK                            x       y       z     vdW  Elec       q    Type
REMARK                         _______ _______ _______ _____ _____    ______ ____
ROOT
ATOM      1  C   UNL     1      -2.756  12.454  19.754  0.00  0.00    +0.000 A 
ATOM      2  C   UNL     1      -1.524  12.785  20.326  0.00  0.00    +0.000 A 
ATOM      3  C   UNL     1      -0.357  12.195  19.836  0.00  0.00    +0.000 A 
ATOM      4  C   UNL     1      -0.420  11.275  18.784  0.00  0.00    +0.000 A 
ATOM      5  C   UNL     1      -1.661  10.983  18.207  0.00  0.00    +0.000 A 
ATOM      6  F   UNL     1      -1.763  10.157  17.156  0.00  0.00    +0.000 F 
ATOM      7  C   UNL     1      -2.834  11.540  18.703  0.00  0.00    +0.000 A 
ENDROOT
BRANCH   1   9
ATOM      8  O   UNL     1      -5.334  12.782  19.551  0.00  0.00    +0.000 OA
ATOM      9  S   UNL     1      -4.232  13.201  20.387  0.00  0.00    +0.000 S 
ATOM     10  O   UNL     1      -3.957  14.607  20.598  0.00  0.00    +0.000 OA
BRANCH   9  11
ATOM     11  N   UNL     1      -4.326  12.550  21.942  0.00  0.00    +0.000 N 
ATOM     12  C   UNL     1      -5.561  12.829  22.565  0.00  0.00    +0.000 A 
ATOM     13  N   UNL     1      -6.606  12.067  22.358  0.00  0.00    +0.000 NA
ATOM     14  C   UNL     1      -7.638  12.489  23.180  0.00  0.00    +0.000 A 
ATOM     15  C   UNL     1      -7.353  13.576  23.980  0.00  0.00    +0.000 A 
ATOM     16  S   UNL     1      -5.722  14.053  23.746  0.00  0.00    +0.000 S 
ATOM     17  H   UNL     1      -3.542  12.948  22.456  0.00  0.00    +0.000 HD
ENDBRANCH   9  11
ENDBRANCH   1   9
BRANCH   4  18
ATOM     18  O   UNL     1       0.792  10.790  18.347  0.00  0.00    +0.000 OA
BRANCH  18  19
ATOM     19  C   UNL     1       1.279   9.595  18.826  0.00  0.00    +0.000 A 
ATOM     20  C   UNL     1       0.993   9.312  20.165  0.00  0.00    +0.000 A 
ATOM     21  C   UNL     1       1.400   8.101  20.736  0.00  0.00    +0.000 A 
ATOM     22  C   UNL     1       2.100   7.171  19.965  0.00  0.00    +0.000 A 
ATOM     23  C   UNL     1       2.440   7.486  18.646  0.00  0.00    +0.000 A 
ATOM     24  C   UNL     1       1.969   8.658  18.058  0.00  0.00    +0.000 A 
BRANCH  22  25
ATOM     25  O   UNL     1       2.420   5.974  20.571  0.00  0.00    +0.000 OA
BRANCH  25  26
ATOM     26  C   UNL     1       2.433   4.831  19.798  0.00  0.00    +0.000 A 
ATOM     27  C   UNL     1       3.686   4.314  19.462  0.00  0.00    +0.000 A 
ATOM     28  C   UNL     1       3.776   3.213  18.608  0.00  0.00    +0.000 A 
ATOM     29  C   UNL     1       2.614   2.643  18.099  0.00  0.00    +0.000 A 
ATOM     30  F   UNL     1       2.701   1.622  17.236  0.00  0.00    +0.000 F 
ATOM     31  C   UNL     1       1.361   3.116  18.468  0.00  0.00    +0.000 A 
ATOM     32  C   UNL     1       1.269   4.188  19.352  0.00  0.00    +0.000 A 
ENDBRANCH  25  26
ENDBRANCH  22  25
ENDBRANCH  18  19
ENDBRANCH   4  18
TORSDOF 6
ENDMDL
MODEL 7
REMARK VINA RESULT:      -7.9      4.899      6.468
REMARK  Name = 
REMARK  6 active torsions:
REMARK  status: ('A' for Active; 'I' for Inactive)
REMARK    1  A    between atoms: S_2  and  N_4
REMARK    2  A    between atoms: S_2  and  C_10
REMARK    3  A    between atoms: C_13  and  O_14
REMARK    4  A    between atoms: O_14  and  C_15
REMARK    5  A    between atoms: C_18  and  O_19
REMARK    6  A    between atoms: O_19  and  C_20
REMARK                            x       y       z     vdW  Elec       q    Type
REMARK                         _______ _______ _______ _____ _____    ______ ____
ROOT
ATOM      1  C   UNL     1       0.857  14.863  19.628  0.00  0.00    +0.000 A 
ATOM      2  C   UNL     1       1.222  14.044  20.700  0.00  0.00    +0.000 A 
ATOM      3  C   UNL     1       0.717  12.744  20.777  0.00  0.00    +0.000 A 
ATOM      4  C   UNL     1      -0.153  12.266  19.791  0.00  0.00    +0.000 A 
ATOM      5  C   UNL     1      -0.479  13.094  18.710  0.00  0.00    +0.000 A 
ATOM      6  F   UNL     1      -1.257  12.657  17.710  0.00  0.00    +0.000 F 
ATOM      7  C   UNL     1      -0.008  14.400  18.636  0.00  0.00    +0.000 A 
ENDROOT
BRANCH   1   9
ATOM      8  O   UNL     1       0.438  17.418  19.930  0.00  0.00    +0.000 OA
ATOM      9  S   UNL     1       1.495  16.513  19.543  0.00  0.00    +0.000 S 
ATOM     10  O   UNL     1       2.164  16.659  18.266  0.00  0.00    +0.000 OA
BRANCH   9  11
ATOM     11  N   UNL     1       2.749  16.473  20.673  0.00  0.00    +0.000 N 
ATOM     12  C   UNL     1       4.021  16.503  20.063  0.00  0.00    +0.000 A 
ATOM     13  N   UNL     1       4.578  17.639  19.726  0.00  0.00    +0.000 NA
ATOM     14  C   UNL     1       5.861  17.391  19.268  0.00  0.00    +0.000 A 
ATOM     15  C   UNL     1       6.239  16.064  19.253  0.00  0.00    +0.000 A 
ATOM     16  S   UNL     1       4.974  15.096  19.889  0.00  0.00    +0.000 S 
ATOM     17  H   UNL     1       2.607  15.621  21.214  0.00  0.00    +0.000 HD
ENDBRANCH   9  11
ENDBRANCH   1   9
BRANCH   4  18
ATOM     18  O   UNL     1      -0.553  10.957  19.937  0.00  0.00    +0.000 OA
BRANCH  18  19
ATOM     19  C   UNL     1       0.354   9.931  19.793  0.00  0.00    +0.000 A 
ATOM     20  C   UNL     1       0.537   9.116  20.914  0.00  0.00    +0.000 A 
ATOM     21  C   UNL     1       1.400   8.017  20.858  0.00  0.00    +0.000 A 
ATOM     22  C   UNL     1       2.085   7.732  19.676  0.00  0.00    +0.000 A 
ATOM     23  C   UNL     1       1.949   8.587  18.577  0.00  0.00    +0.000 A 
ATOM     24  C   UNL     1       1.033   9.637  18.612  0.00  0.00    +0.000 A 
BRANCH  22  25
ATOM     25  O   UNL     1       2.873   6.601  19.668  0.00  0.00    +0.000 OA
BRANCH  25  26
ATOM     26  C   UNL     1       2.267   5.380  19.456  0.00  0.00    +0.000 A 
ATOM     27  C   UNL     1       2.296   4.882  18.151  0.00  0.00    +0.000 A 
ATOM     28  C   UNL     1       1.623   3.697  17.846  0.00  0.00    +0.000 A 
ATOM     29  C   UNL     1       0.929   3.024  18.846  0.00  0.00    +0.000 A 
ATOM     30  F   UNL     1       0.238   1.918  18.542  0.00  0.00    +0.000 F 
ATOM     31  C   UNL     1       0.938   3.482  20.158  0.00  0.00    +0.000 A 
ATOM     32  C   UNL     1       1.642   4.641  20.472  0.00  0.00    +0.000 A 
ENDBRANCH  25  26
ENDBRANCH  22  25
ENDBRANCH  18  19
ENDBRANCH   4  18
TORSDOF 6
ENDMDL
MODEL 8
REMARK VINA RESULT:      -7.9      2.370      2.958
REMARK  Name = 
REMARK  6 active torsions:
REMARK  status: ('A' for Active; 'I' for Inactive)
REMARK    1  A    between atoms: S_2  and  N_4
REMARK    2  A    between atoms: S_2  and  C_10
REMARK    3  A    between atoms: C_13  and  O_14
REMARK    4  A    between atoms: O_14  and  C_15
REMARK    5  A    between atoms: C_18  and  O_19
REMARK    6  A    between atoms: O_19  and  C_20
REMARK                            x       y       z     vdW  Elec       q    Type
REMARK                         _______ _______ _______ _____ _____    ______ ____
ROOT
ATOM      1  C   UNL     1      -2.152  12.779  21.492  0.00  0.00    +0.000 A 
ATOM      2  C   UNL     1      -2.595  12.202  20.299  0.00  0.00    +0.000 A 
ATOM      3  C   UNL     1      -1.661  11.709  19.384  0.00  0.00    +0.000 A 
ATOM      4  C   UNL     1      -0.292  11.798  19.657  0.00  0.00    +0.000 A 
ATOM      5  C   UNL     1       0.126  12.351  20.872  0.00  0.00    +0.000 A 
ATOM      6  F   UNL     1       1.424  12.399  21.205  0.00  0.00    +0.000 F 
ATOM      7  C   UNL     1      -0.790  12.872  21.779  0.00  0.00    +0.000 A 
ENDROOT
BRANCH   1   9
ATOM      8  O   UNL     1      -2.706  14.457  23.408  0.00  0.00    +0.000 OA
ATOM      9  S   UNL     1      -3.341  13.410  22.643  0.00  0.00    +0.000 S 
ATOM     10  O   UNL     1      -3.954  12.276  23.305  0.00  0.00    +0.000 OA
BRANCH   9  11
ATOM     11  N   UNL     1      -4.548  14.005  21.623  0.00  0.00    +0.000 N 
ATOM     12  C   UNL     1      -5.811  13.441  21.902  0.00  0.00    +0.000 A 
ATOM     13  N   UNL     1      -6.579  13.942  22.837  0.00  0.00    +0.000 NA
ATOM     14  C   UNL     1      -7.798  13.284  22.816  0.00  0.00    +0.000 A 
ATOM     15  C   UNL     1      -7.916  12.284  21.872  0.00  0.00    +0.000 A 
ATOM     16  S   UNL     1      -6.481  12.201  20.937  0.00  0.00    +0.000 S 
ATOM     17  H   UNL     1      -4.239  13.794  20.675  0.00  0.00    +0.000 HD
ENDBRANCH   9  11
ENDBRANCH   1   9
BRANCH   4  18
ATOM     18  O   UNL     1       0.538  11.238  18.712  0.00  0.00    +0.000 OA
BRANCH  18  19
ATOM     19  C   UNL     1       1.087   9.993  18.916  0.00  0.00    +0.000 A 
ATOM     20  C   UNL     1       1.771   9.441  17.828  0.00  0.00    +0.000 A 
ATOM     21  C   UNL     1       2.407   8.201  17.946  0.00  0.00    +0.000 A 
ATOM     22  C   UNL     1       2.357   7.508  19.156  0.00  0.00    +0.000 A 
ATOM     23  C   UNL     1       1.618   8.032  20.221  0.00  0.00    +0.000 A 
ATOM     24  C   UNL     1       1.048   9.301  20.125  0.00  0.00    +0.000 A 
BRANCH  22  25
ATOM     25  O   UNL     1       3.054   6.320  19.223  0.00  0.00    +0.000 OA
BRANCH  25  26
ATOM     26  C   UNL     1       2.361   5.141  19.038  0.00  0.00    +0.000 A 
ATOM     27  C   UNL     1       1.694   4.622  20.149  0.00  0.00    +0.000 A 
ATOM     28  C   UNL     1       1.050   3.387  20.057  0.00  0.00    +0.000 A 
ATOM     29  C   UNL     1       1.080   2.684  18.857  0.00  0.00    +0.000 A 
ATOM     30  F   UNL     1       0.510   1.475  18.784  0.00  0.00    +0.000 F 
ATOM     31  C   UNL     1       1.696   3.215  17.730  0.00  0.00    +0.000 A 
ATOM     32  C   UNL     1       2.303   4.465  17.810  0.00  0.00    +0.000 A 
ENDBRANCH  25  26
ENDBRANCH  22  25
ENDBRANCH  18  19
ENDBRANCH   4  18
TORSDOF 6
ENDMDL
MODEL 9
REMARK VINA RESULT:      -7.8      2.676      3.018
REMARK  Name = 
REMARK  6 active torsions:
REMARK  status: ('A' for Active; 'I' for Inactive)
REMARK    1  A    between atoms: S_2  and  N_4
REMARK    2  A    between atoms: S_2  and  C_10
REMARK    3  A    between atoms: C_13  and  O_14
REMARK    4  A    between atoms: O_14  and  C_15
REMARK    5  A    between atoms: C_18  and  O_19
REMARK    6  A    between atoms: O_19  and  C_20
REMARK                            x       y       z     vdW  Elec       q    Type
REMARK                         _______ _______ _______ _____ _____    ______ ____
ROOT
ATOM      1  C   UNL     1      -2.583  12.724  20.365  0.00  0.00    +0.000 A 
ATOM      2  C   UNL     1      -2.775  11.895  19.256  0.00  0.00    +0.000 A 
ATOM      3  C   UNL     1      -1.667  11.362  18.594  0.00  0.00    +0.000 A 
ATOM      4  C   UNL     1      -0.373  11.661  19.032  0.00  0.00    +0.000 A 
ATOM      5  C   UNL     1      -0.205  12.468  20.164  0.00  0.00    +0.000 A 
ATOM      6  F   UNL     1       1.013  12.728  20.658  0.00  0.00    +0.000 F 
ATOM      7  C   UNL     1      -1.298  13.029  20.815  0.00  0.00    +0.000 A 
ENDROOT
BRANCH   1   9
ATOM      8  O   UNL     1      -4.201  12.644  22.407  0.00  0.00    +0.000 OA
ATOM      9  S   UNL     1      -3.993  13.402  21.195  0.00  0.00    +0.000 S 
ATOM     10  O   UNL     1      -5.053  13.539  20.216  0.00  0.00    +0.000 OA
BRANCH   9  11
ATOM     11  N   UNL     1      -3.499  14.986  21.507  0.00  0.00    +0.000 N 
ATOM     12  C   UNL     1      -3.880  15.421  22.795  0.00  0.00    +0.000 A 
ATOM     13  N   UNL     1      -3.140  15.154  23.841  0.00  0.00    +0.000 NA
ATOM     14  C   UNL     1      -3.675  15.798  24.945  0.00  0.00    +0.000 A 
ATOM     15  C   UNL     1      -4.824  16.525  24.708  0.00  0.00    +0.000 A 
ATOM     16  S   UNL     1      -5.218  16.455  23.040  0.00  0.00    +0.000 S 
ATOM     17  H   UNL     1      -3.917  15.556  20.774  0.00  0.00    +0.000 HD
ENDBRANCH   9  11
ENDBRANCH   1   9
BRANCH   4  18
ATOM     18  O   UNL     1       0.645  11.046  18.339  0.00  0.00    +0.000 OA
BRANCH  18  19
ATOM     19  C   UNL     1       1.151   9.839  18.767  0.00  0.00    +0.000 A 
ATOM     20  C   UNL     1       1.885   9.116  17.822  0.00  0.00    +0.000 A 
ATOM     21  C   UNL     1       2.483   7.900  18.170  0.00  0.00    +0.000 A 
ATOM     22  C   UNL     1       2.343   7.404  19.466  0.00  0.00    +0.000 A 
ATOM     23  C   UNL     1       1.553   8.098  20.389  0.00  0.00    +0.000 A 
ATOM     24  C   UNL     1       1.022   9.344  20.063  0.00  0.00    +0.000 A 
BRANCH  22  25
ATOM     25  O   UNL     1       3.006   6.230  19.760  0.00  0.00    +0.000 OA
BRANCH  25  26
ATOM     26  C   UNL     1       2.347   5.035  19.553  0.00  0.00    +0.000 A 
ATOM     27  C   UNL     1       2.592   4.385  18.341  0.00  0.00    +0.000 A 
ATOM     28  C   UNL     1       1.891   3.220  18.026  0.00  0.00    +0.000 A 
ATOM     29  C   UNL     1       0.954   2.718  18.924  0.00  0.00    +0.000 A 
ATOM     30  F   UNL     1       0.242   1.631  18.599  0.00  0.00    +0.000 F 
ATOM     31  C   UNL     1       0.742   3.327  20.155  0.00  0.00    +0.000 A 
ATOM     32  C   UNL     1       1.470   4.466  20.487  0.00  0.00    +0.000 A 
ENDBRANCH  25  26
ENDBRANCH  22  25
ENDBRANCH  18  19
ENDBRANCH   4  18
TORSDOF 6
ENDMDL
