MODEL 1
REMARK VINA RESULT:      -7.9      0.000      0.000
REMARK  Name = 
REMARK  10 active torsions:
REMARK  status: ('A' for Active; 'I' for Inactive)
REMARK    1  A    between atoms: C_2  and  C_20
REMARK    2  A    between atoms: N_3  and  C_4
REMARK    3  A    between atoms: C_4  and  C_5
REMARK    4  A    between atoms: C_5  and  C_6
REMARK    5  A    between atoms: C_6  and  N_7
REMARK    6  A    between atoms: C_10  and  C_11
REMARK    7  A    between atoms: C_11  and  C_12
REMARK    8  A    between atoms: C_24  and  C_25
REMARK    9  A    between atoms: C_25  and  O_26
REMARK   10  A    between atoms: O_26  and  N_27
REMARK                            x       y       z     vdW  Elec       q    Type
REMARK                         _______ _______ _______ _____ _____    ______ ____
ROOT
ATOM      1  C   UNL     1       8.633   9.113  18.623  0.00  0.00    +0.000 C 
ENDROOT
BRANCH   1   4
ATOM      2  O   UNL     1       9.661  11.199  20.207  0.00  0.00    +0.000 OA
ATOM      3  C   UNL     1       9.599  11.350  18.993  0.00  0.00    +0.000 C 
ATOM      4  N   UNL     1       9.075  10.406  18.131  0.00  0.00    +0.000 N 
ATOM      5  H   UNL     1       9.278  10.487  17.144  0.00  0.00    +0.000 HD
BRANCH   3   6
ATOM      6  C   UNL     1      10.155  12.578  18.369  0.00  0.00    +0.000 A 
ATOM      7  C   UNL     1      11.137  12.524  17.374  0.00  0.00    +0.000 A 
ATOM      8  C   UNL     1      11.617  13.707  16.809  0.00  0.00    +0.000 A 
ATOM      9  C   UNL     1      11.125  14.942  17.239  0.00  0.00    +0.000 A 
ATOM     10  C   UNL     1      10.148  15.011  18.243  0.00  0.00    +0.000 A 
ATOM     11  C   UNL     1       9.651  13.818  18.786  0.00  0.00    +0.000 A 
BRANCH  10  12
ATOM     12  C   UNL     1       9.623  16.344  18.721  0.00  0.00    +0.000 C 
BRANCH  12  13
ATOM     13  O   UNL     1       8.525  16.114  19.591  0.00  0.00    +0.000 OA
BRANCH  13  14
ATOM     14  N   UNL     1       7.498  17.069  19.406  0.00  0.00    +0.000 N 
ATOM     15  O   UNL     1       6.684  17.208  20.318  0.00  0.00    +0.000 OA
ATOM     16  O   UNL     1       7.575  17.647  18.323  0.00  0.00    +0.000 OA
ENDBRANCH  13  14
ENDBRANCH  12  13
ENDBRANCH  10  12
ENDBRANCH   3   6
ENDBRANCH   1   4
BRANCH   1  17
ATOM     17  C   UNL     1       7.811   8.380  17.568  0.00  0.00    +0.000 C 
BRANCH  17  18
ATOM     18  C   UNL     1       7.698   6.881  17.876  0.00  0.00    +0.000 C 
BRANCH  18  19
ATOM     19  N   UNL     1       6.654   6.206  17.076  0.00  0.00    +0.000 NA
ATOM     20  C   UNL     1       6.969   4.781  16.875  0.00  0.00    +0.000 C 
ATOM     21  C   UNL     1       5.877   4.066  16.085  0.00  0.00    +0.000 C 
ATOM     22  C   UNL     1       4.522   4.152  16.792  0.00  0.00    +0.000 C 
ATOM     23  C   UNL     1       4.208   5.647  16.976  0.00  0.00    +0.000 C 
ATOM     24  C   UNL     1       5.333   6.397  17.705  0.00  0.00    +0.000 C 
BRANCH  22  25
ATOM     25  C   UNL     1       4.478   3.408  18.148  0.00  0.00    +0.000 C 
BRANCH  25  26
ATOM     26  C   UNL     1       3.139   3.394  18.849  0.00  0.00    +0.000 A 
ATOM     27  C   UNL     1       2.084   2.619  18.343  0.00  0.00    +0.000 A 
ATOM     28  C   UNL     1       0.861   2.555  19.015  0.00  0.00    +0.000 A 
ATOM     29  C   UNL     1       0.682   3.256  20.204  0.00  0.00    +0.000 A 
ATOM     30  C   UNL     1       1.720   4.033  20.715  0.00  0.00    +0.000 A 
ATOM     31  C   UNL     1       2.942   4.105  20.040  0.00  0.00    +0.000 A 
ENDBRANCH  25  26
ENDBRANCH  22  25
ENDBRANCH  18  19
ENDBRANCH  17  18
ENDBRANCH   1  17
TORSDOF 10
ENDMDL
MODEL 2
REMARK VINA RESULT:      -7.8      1.044      1.513
REMARK  Name = 
REMARK  10 active torsions:
REMARK  status: ('A' for Active; 'I' for Inactive)
REMARK    1  A    between atoms: C_2  and  C_20
REMARK    2  A    between atoms: N_3  and  C_4
REMARK    3  A    between atoms: C_4  and  C_5
REMARK    4  A    between atoms: C_5  and  C_6
REMARK    5  A    between atoms: C_6  and  N_7
REMARK    6  A    between atoms: C_10  and  C_11
REMARK    7  A    between atoms: C_11  and  C_12
REMARK    8  A    between atoms: C_24  and  C_25
REMARK    9  A    between atoms: C_25  and  O_26
REMARK   10  A    between atoms: O_26  and  N_27
REMARK                            x       y       z     vdW  Elec       q    Type
REMARK                         _______ _______ _______ _____ _____    ______ ____
ROOT
ATOM      1  C   UNL     1       8.849   9.341  18.912  0.00  0.00    +0.000 C 
ENDROOT
BRANCH   1   4
ATOM      2  O   UNL     1       9.270  11.775  20.258  0.00  0.00    +0.000 OA
ATOM      3  C   UNL     1       9.457  11.724  19.049  0.00  0.00    +0.000 C 
ATOM      4  N   UNL     1       9.242  10.592  18.288  0.00  0.00    +0.000 N 
ATOM      5  H   UNL     1       9.645  10.548  17.363  0.00  0.00    +0.000 HD
BRANCH   3   6
ATOM      6  C   UNL     1       9.997  12.909  18.332  0.00  0.00    +0.000 A 
ATOM      7  C   UNL     1      11.153  12.837  17.548  0.00  0.00    +0.000 A 
ATOM      8  C   UNL     1      11.611  13.976  16.883  0.00  0.00    +0.000 A 
ATOM      9  C   UNL     1      10.923  15.186  17.004  0.00  0.00    +0.000 A 
ATOM     10  C   UNL     1       9.768  15.275  17.796  0.00  0.00    +0.000 A 
ATOM     11  C   UNL     1       9.299  14.120  18.438  0.00  0.00    +0.000 A 
BRANCH  10  12
ATOM     12  C   UNL     1       9.028  16.583  17.941  0.00  0.00    +0.000 C 
BRANCH  12  13
ATOM     13  O   UNL     1       9.689  17.373  18.918  0.00  0.00    +0.000 OA
BRANCH  13  14
ATOM     14  N   UNL     1       8.785  17.895  19.872  0.00  0.00    +0.000 N 
ATOM     15  O   UNL     1       7.773  18.450  19.446  0.00  0.00    +0.000 OA
ATOM     16  O   UNL     1       9.152  17.705  21.030  0.00  0.00    +0.000 OA
ENDBRANCH  13  14
ENDBRANCH  12  13
ENDBRANCH  10  12
ENDBRANCH   3   6
ENDBRANCH   1   4
BRANCH   1  17
ATOM     17  C   UNL     1       8.189   8.410  17.900  0.00  0.00    +0.000 C 
BRANCH  17  18
ATOM     18  C   UNL     1       7.964   7.007  18.480  0.00  0.00    +0.000 C 
BRANCH  18  19
ATOM     19  N   UNL     1       7.089   6.168  17.634  0.00  0.00    +0.000 NA
ATOM     20  C   UNL     1       6.409   5.131  18.429  0.00  0.00    +0.000 C 
ATOM     21  C   UNL     1       5.472   4.285  17.572  0.00  0.00    +0.000 C 
ATOM     22  C   UNL     1       4.396   5.142  16.900  0.00  0.00    +0.000 C 
ATOM     23  C   UNL     1       5.129   6.206  16.065  0.00  0.00    +0.000 C 
ATOM     24  C   UNL     1       6.132   7.017  16.898  0.00  0.00    +0.000 C 
BRANCH  22  25
ATOM     25  C   UNL     1       3.413   5.803  17.895  0.00  0.00    +0.000 C 
BRANCH  25  26
ATOM     26  C   UNL     1       2.600   4.856  18.747  0.00  0.00    +0.000 A 
ATOM     27  C   UNL     1       2.703   4.900  20.146  0.00  0.00    +0.000 A 
ATOM     28  C   UNL     1       1.914   4.067  20.944  0.00  0.00    +0.000 A 
ATOM     29  C   UNL     1       1.008   3.191  20.354  0.00  0.00    +0.000 A 
ATOM     30  C   UNL     1       0.900   3.136  18.966  0.00  0.00    +0.000 A 
ATOM     31  C   UNL     1       1.694   3.961  18.166  0.00  0.00    +0.000 A 
ENDBRANCH  25  26
ENDBRANCH  22  25
ENDBRANCH  18  19
ENDBRANCH  17  18
ENDBRANCH   1  17
TORSDOF 10
ENDMDL
MODEL 3
REMARK VINA RESULT:      -7.5      2.967      3.778
REMARK  Name = 
REMARK  10 active torsions:
REMARK  status: ('A' for Active; 'I' for Inactive)
REMARK    1  A    between atoms: C_2  and  C_20
REMARK    2  A    between atoms: N_3  and  C_4
REMARK    3  A    between atoms: C_4  and  C_5
REMARK    4  A    between atoms: C_5  and  C_6
REMARK    5  A    between atoms: C_6  and  N_7
REMARK    6  A    between atoms: C_10  and  C_11
REMARK    7  A    between atoms: C_11  and  C_12
REMARK    8  A    between atoms: C_24  and  C_25
REMARK    9  A    between atoms: C_25  and  O_26
REMARK   10  A    between atoms: O_26  and  N_27
REMARK                            x       y       z     vdW  Elec       q    Type
REMARK                         _______ _______ _______ _____ _____    ______ ____
ROOT
ATOM      1  C   UNL     1       8.710   9.567  18.046  0.00  0.00    +0.000 C 
ENDROOT
BRANCH   1   4
ATOM      2  O   UNL     1      10.352  11.790  18.575  0.00  0.00    +0.000 OA
ATOM      3  C   UNL     1       9.555  11.423  19.429  0.00  0.00    +0.000 C 
ATOM      4  N   UNL     1       8.733  10.322  19.286  0.00  0.00    +0.000 N 
ATOM      5  H   UNL     1       7.942  10.226  19.908  0.00  0.00    +0.000 HD
BRANCH   3   6
ATOM      6  C   UNL     1       9.394  12.209  20.680  0.00  0.00    +0.000 A 
ATOM      7  C   UNL     1       9.934  13.492  20.823  0.00  0.00    +0.000 A 
ATOM      8  C   UNL     1       9.742  14.195  22.013  0.00  0.00    +0.000 A 
ATOM      9  C   UNL     1       9.021  13.619  23.063  0.00  0.00    +0.000 A 
ATOM     10  C   UNL     1       8.483  12.330  22.936  0.00  0.00    +0.000 A 
ATOM     11  C   UNL     1       8.656  11.641  21.728  0.00  0.00    +0.000 A 
BRANCH  10  12
ATOM     12  C   UNL     1       7.714  11.698  24.072  0.00  0.00    +0.000 C 
BRANCH  12  13
ATOM     13  O   UNL     1       6.333  11.974  23.895  0.00  0.00    +0.000 OA
BRANCH  13  14
ATOM     14  N   UNL     1       5.878  12.972  24.788  0.00  0.00    +0.000 N 
ATOM     15  O   UNL     1       5.043  13.770  24.364  0.00  0.00    +0.000 OA
ATOM     16  O   UNL     1       6.398  12.890  25.899  0.00  0.00    +0.000 OA
ENDBRANCH  13  14
ENDBRANCH  12  13
ENDBRANCH  10  12
ENDBRANCH   3   6
ENDBRANCH   1   4
BRANCH   1  17
ATOM     17  C   UNL     1       8.220   8.143  18.283  0.00  0.00    +0.000 C 
BRANCH  17  18
ATOM     18  C   UNL     1       7.497   7.578  17.053  0.00  0.00    +0.000 C 
BRANCH  18  19
ATOM     19  N   UNL     1       7.096   6.165  17.219  0.00  0.00    +0.000 NA
ATOM     20  C   UNL     1       6.369   5.959  18.484  0.00  0.00    +0.000 C 
ATOM     21  C   UNL     1       5.915   4.511  18.646  0.00  0.00    +0.000 C 
ATOM     22  C   UNL     1       4.997   4.077  17.500  0.00  0.00    +0.000 C 
ATOM     23  C   UNL     1       5.782   4.286  16.195  0.00  0.00    +0.000 C 
ATOM     24  C   UNL     1       6.311   5.721  16.051  0.00  0.00    +0.000 C 
BRANCH  22  25
ATOM     25  C   UNL     1       3.648   4.835  17.460  0.00  0.00    +0.000 C 
BRANCH  25  26
ATOM     26  C   UNL     1       2.574   4.320  18.391  0.00  0.00    +0.000 A 
ATOM     27  C   UNL     1       1.890   3.132  18.090  0.00  0.00    +0.000 A 
ATOM     28  C   UNL     1       0.935   2.618  18.972  0.00  0.00    +0.000 A 
ATOM     29  C   UNL     1       0.661   3.279  20.165  0.00  0.00    +0.000 A 
ATOM     30  C   UNL     1       1.331   4.462  20.472  0.00  0.00    +0.000 A 
ATOM     31  C   UNL     1       2.280   4.982  19.589  0.00  0.00    +0.000 A 
ENDBRANCH  25  26
ENDBRANCH  22  25
ENDBRANCH  18  19
ENDBRANCH  17  18
ENDBRANCH   1  17
TORSDOF 10
ENDMDL
MODEL 4
REMARK VINA RESULT:      -7.5      1.327      1.498
REMARK  Name = 
REMARK  10 active torsions:
REMARK  status: ('A' for Active; 'I' for Inactive)
REMARK    1  A    between atoms: C_2  and  C_20
REMARK    2  A    between atoms: N_3  and  C_4
REMARK    3  A    between atoms: C_4  and  C_5
REMARK    4  A    between atoms: C_5  and  C_6
REMARK    5  A    between atoms: C_6  and  N_7
REMARK    6  A    between atoms: C_10  and  C_11
REMARK    7  A    between atoms: C_11  and  C_12
REMARK    8  A    between atoms: C_24  and  C_25
REMARK    9  A    between atoms: C_25  and  O_26
REMARK   10  A    between atoms: O_26  and  N_27
REMARK                            x       y       z     vdW  Elec       q    Type
REMARK                         _______ _______ _______ _____ _____    ______ ____
ROOT
ATOM      1  C   UNL     1       8.536   9.659  19.008  0.00  0.00    +0.000 C 
ENDROOT
BRANCH   1   4
ATOM      2  O   UNL     1       8.038  12.050  17.612  0.00  0.00    +0.000 OA
ATOM      3  C   UNL     1       9.184  11.791  17.958  0.00  0.00    +0.000 C 
ATOM      4  N   UNL     1       9.542  10.628  18.611  0.00  0.00    +0.000 N 
ATOM      5  H   UNL     1      10.437  10.592  19.078  0.00  0.00    +0.000 HD
BRANCH   3   6
ATOM      6  C   UNL     1      10.269  12.781  17.728  0.00  0.00    +0.000 A 
ATOM      7  C   UNL     1      11.346  12.514  16.876  0.00  0.00    +0.000 A 
ATOM      8  C   UNL     1      12.333  13.483  16.683  0.00  0.00    +0.000 A 
ATOM      9  C   UNL     1      12.251  14.712  17.343  0.00  0.00    +0.000 A 
ATOM     10  C   UNL     1      11.181  14.988  18.208  0.00  0.00    +0.000 A 
ATOM     11  C   UNL     1      10.181  14.021  18.376  0.00  0.00    +0.000 A 
BRANCH  10  12
ATOM     12  C   UNL     1      11.095  16.309  18.934  0.00  0.00    +0.000 C 
BRANCH  12  13
ATOM     13  O   UNL     1      10.254  17.181  18.195  0.00  0.00    +0.000 OA
BRANCH  13  14
ATOM     14  N   UNL     1       9.029  17.419  18.860  0.00  0.00    +0.000 N 
ATOM     15  O   UNL     1       8.001  17.027  18.310  0.00  0.00    +0.000 OA
ATOM     16  O   UNL     1       9.175  18.000  19.934  0.00  0.00    +0.000 OA
ENDBRANCH  13  14
ENDBRANCH  12  13
ENDBRANCH  10  12
ENDBRANCH   3   6
ENDBRANCH   1   4
BRANCH   1  17
ATOM     17  C   UNL     1       8.320   8.618  17.915  0.00  0.00    +0.000 C 
BRANCH  17  18
ATOM     18  C   UNL     1       8.131   7.211  18.499  0.00  0.00    +0.000 C 
BRANCH  18  19
ATOM     19  N   UNL     1       7.245   6.361  17.675  0.00  0.00    +0.000 NA
ATOM     20  C   UNL     1       6.582   5.329  18.491  0.00  0.00    +0.000 C 
ATOM     21  C   UNL     1       5.634   4.472  17.658  0.00  0.00    +0.000 C 
ATOM     22  C   UNL     1       4.544   5.318  16.996  0.00  0.00    +0.000 C 
ATOM     23  C   UNL     1       5.259   6.376  16.138  0.00  0.00    +0.000 C 
ATOM     24  C   UNL     1       6.273   7.199  16.947  0.00  0.00    +0.000 C 
BRANCH  22  25
ATOM     25  C   UNL     1       3.575   5.986  18.001  0.00  0.00    +0.000 C 
BRANCH  25  26
ATOM     26  C   UNL     1       2.595   5.061  18.686  0.00  0.00    +0.000 A 
ATOM     27  C   UNL     1       1.937   4.061  17.954  0.00  0.00    +0.000 A 
ATOM     28  C   UNL     1       1.073   3.166  18.589  0.00  0.00    +0.000 A 
ATOM     29  C   UNL     1       0.864   3.254  19.961  0.00  0.00    +0.000 A 
ATOM     30  C   UNL     1       1.507   4.246  20.699  0.00  0.00    +0.000 A 
ATOM     31  C   UNL     1       2.366   5.147  20.064  0.00  0.00    +0.000 A 
ENDBRANCH  25  26
ENDBRANCH  22  25
ENDBRANCH  18  19
ENDBRANCH  17  18
ENDBRANCH   1  17
TORSDOF 10
ENDMDL
MODEL 5
REMARK VINA RESULT:      -7.4      1.464      1.791
REMARK  Name = 
REMARK  10 active torsions:
REMARK  status: ('A' for Active; 'I' for Inactive)
REMARK    1  A    between atoms: C_2  and  C_20
REMARK    2  A    between atoms: N_3  and  C_4
REMARK    3  A    between atoms: C_4  and  C_5
REMARK    4  A    between atoms: C_5  and  C_6
REMARK    5  A    between atoms: C_6  and  N_7
REMARK    6  A    between atoms: C_10  and  C_11
REMARK    7  A    between atoms: C_11  and  C_12
REMARK    8  A    between atoms: C_24  and  C_25
REMARK    9  A    between atoms: C_25  and  O_26
REMARK   10  A    between atoms: O_26  and  N_27
REMARK                            x       y       z     vdW  Elec       q    Type
REMARK                         _______ _______ _______ _____ _____    ______ ____
ROOT
ATOM      1  C   UNL     1       9.084   9.439  18.239  0.00  0.00    +0.000 C 
ENDROOT
BRANCH   1   4
ATOM      2  O   UNL     1      11.007  11.470  18.547  0.00  0.00    +0.000 OA
ATOM      3  C   UNL     1       9.841  11.782  18.338  0.00  0.00    +0.000 C 
ATOM      4  N   UNL     1       8.815  10.866  18.212  0.00  0.00    +0.000 N 
ATOM      5  H   UNL     1       7.943  11.170  17.802  0.00  0.00    +0.000 HD
BRANCH   3   6
ATOM      6  C   UNL     1       9.478  13.210  18.150  0.00  0.00    +0.000 A 
ATOM      7  C   UNL     1      10.411  14.161  17.720  0.00  0.00    +0.000 A 
ATOM      8  C   UNL     1      10.016  15.488  17.545  0.00  0.00    +0.000 A 
ATOM      9  C   UNL     1       8.697  15.871  17.805  0.00  0.00    +0.000 A 
ATOM     10  C   UNL     1       7.754  14.930  18.247  0.00  0.00    +0.000 A 
ATOM     11  C   UNL     1       8.152  13.593  18.394  0.00  0.00    +0.000 A 
BRANCH  10  12
ATOM     12  C   UNL     1       6.332  15.340  18.542  0.00  0.00    +0.000 C 
BRANCH  12  13
ATOM     13  O   UNL     1       6.183  16.718  18.239  0.00  0.00    +0.000 OA
BRANCH  13  14
ATOM     14  N   UNL     1       5.395  17.387  19.203  0.00  0.00    +0.000 N 
ATOM     15  O   UNL     1       5.954  18.231  19.903  0.00  0.00    +0.000 OA
ATOM     16  O   UNL     1       4.222  17.019  19.199  0.00  0.00    +0.000 OA
ENDBRANCH  13  14
ENDBRANCH  12  13
ENDBRANCH  10  12
ENDBRANCH   3   6
ENDBRANCH   1   4
BRANCH   1  17
ATOM     17  C   UNL     1       7.842   8.642  17.852  0.00  0.00    +0.000 C 
BRANCH  17  18
ATOM     18  C   UNL     1       7.890   7.211  18.404  0.00  0.00    +0.000 C 
BRANCH  18  19
ATOM     19  N   UNL     1       7.044   6.271  17.639  0.00  0.00    +0.000 NA
ATOM     20  C   UNL     1       6.373   5.308  18.528  0.00  0.00    +0.000 C 
ATOM     21  C   UNL     1       5.466   4.358  17.752  0.00  0.00    +0.000 C 
ATOM     22  C   UNL     1       4.384   5.118  16.980  0.00  0.00    +0.000 C 
ATOM     23  C   UNL     1       5.109   6.103  16.049  0.00  0.00    +0.000 C 
ATOM     24  C   UNL     1       6.083   7.018  16.806  0.00  0.00    +0.000 C 
BRANCH  22  25
ATOM     25  C   UNL     1       3.373   5.858  17.888  0.00  0.00    +0.000 C 
BRANCH  25  26
ATOM     26  C   UNL     1       2.521   4.983  18.778  0.00  0.00    +0.000 A 
ATOM     27  C   UNL     1       1.678   4.012  18.215  0.00  0.00    +0.000 A 
ATOM     28  C   UNL     1       0.928   3.160  19.031  0.00  0.00    +0.000 A 
ATOM     29  C   UNL     1       1.020   3.263  20.415  0.00  0.00    +0.000 A 
ATOM     30  C   UNL     1       1.850   4.226  20.986  0.00  0.00    +0.000 A 
ATOM     31  C   UNL     1       2.594   5.084  20.172  0.00  0.00    +0.000 A 
ENDBRANCH  25  26
ENDBRANCH  22  25
ENDBRANCH  18  19
ENDBRANCH  17  18
ENDBRANCH   1  17
TORSDOF 10
ENDMDL
MODEL 6
REMARK VINA RESULT:      -7.3      6.577      8.253
REMARK  Name = 
REMARK  10 active torsions:
REMARK  status: ('A' for Active; 'I' for Inactive)
REMARK    1  A    between atoms: C_2  and  C_20
REMARK    2  A    between atoms: N_3  and  C_4
REMARK    3  A    between atoms: C_4  and  C_5
REMARK    4  A    between atoms: C_5  and  C_6
REMARK    5  A    between atoms: C_6  and  N_7
REMARK    6  A    between atoms: C_10  and  C_11
REMARK    7  A    between atoms: C_11  and  C_12
REMARK    8  A    between atoms: C_24  and  C_25
REMARK    9  A    between atoms: C_25  and  O_26
REMARK   10  A    between atoms: O_26  and  N_27
REMARK                            x       y       z     vdW  Elec       q    Type
REMARK                         _______ _______ _______ _____ _____    ______ ____
ROOT
ATOM      1  C   UNL     1       1.971   9.358  17.848  0.00  0.00    +0.000 C 
ENDROOT
BRANCH   1   4
ATOM      2  O   UNL     1      -0.705  10.087  18.323  0.00  0.00    +0.000 OA
ATOM      3  C   UNL     1       0.087  10.088  19.258  0.00  0.00    +0.000 C 
ATOM      4  N   UNL     1       1.428   9.786  19.125  0.00  0.00    +0.000 N 
ATOM      5  H   UNL     1       1.958   9.566  19.957  0.00  0.00    +0.000 HD
BRANCH   3   6
ATOM      6  C   UNL     1      -0.393  10.371  20.635  0.00  0.00    +0.000 A 
ATOM      7  C   UNL     1      -0.173   9.484  21.694  0.00  0.00    +0.000 A 
ATOM      8  C   UNL     1      -0.631   9.804  22.973  0.00  0.00    +0.000 A 
ATOM      9  C   UNL     1      -1.316  11.002  23.196  0.00  0.00    +0.000 A 
ATOM     10  C   UNL     1      -1.554  11.895  22.141  0.00  0.00    +0.000 A 
ATOM     11  C   UNL     1      -1.066  11.580  20.865  0.00  0.00    +0.000 A 
BRANCH  10  12
ATOM     12  C   UNL     1      -2.305  13.184  22.373  0.00  0.00    +0.000 C 
BRANCH  12  13
ATOM     13  O   UNL     1      -2.547  13.325  23.765  0.00  0.00    +0.000 OA
BRANCH  13  14
ATOM     14  N   UNL     1      -1.923  14.479  24.293  0.00  0.00    +0.000 N 
ATOM     15  O   UNL     1      -0.734  14.648  24.030  0.00  0.00    +0.000 OA
ATOM     16  O   UNL     1      -2.690  15.173  24.959  0.00  0.00    +0.000 OA
ENDBRANCH  13  14
ENDBRANCH  12  13
ENDBRANCH  10  12
ENDBRANCH   3   6
ENDBRANCH   1   4
BRANCH   1  17
ATOM     17  C   UNL     1       2.469   7.919  17.921  0.00  0.00    +0.000 C 
BRANCH  17  18
ATOM     18  C   UNL     1       3.649   7.676  16.970  0.00  0.00    +0.000 C 
BRANCH  18  19
ATOM     19  N   UNL     1       4.614   6.685  17.491  0.00  0.00    +0.000 NA
ATOM     20  C   UNL     1       4.167   6.126  18.779  0.00  0.00    +0.000 C 
ATOM     21  C   UNL     1       5.137   5.073  19.306  0.00  0.00    +0.000 C 
ATOM     22  C   UNL     1       5.297   3.912  18.320  0.00  0.00    +0.000 C 
ATOM     23  C   UNL     1       5.779   4.518  16.991  0.00  0.00    +0.000 C 
ATOM     24  C   UNL     1       4.853   5.633  16.484  0.00  0.00    +0.000 C 
BRANCH  22  25
ATOM     25  C   UNL     1       4.005   3.086  18.114  0.00  0.00    +0.000 C 
BRANCH  25  26
ATOM     26  C   UNL     1       3.046   3.057  19.281  0.00  0.00    +0.000 A 
ATOM     27  C   UNL     1       1.721   3.488  19.118  0.00  0.00    +0.000 A 
ATOM     28  C   UNL     1       0.812   3.412  20.176  0.00  0.00    +0.000 A 
ATOM     29  C   UNL     1       1.214   2.897  21.405  0.00  0.00    +0.000 A 
ATOM     30  C   UNL     1       2.528   2.471  21.581  0.00  0.00    +0.000 A 
ATOM     31  C   UNL     1       3.441   2.553  20.527  0.00  0.00    +0.000 A 
ENDBRANCH  25  26
ENDBRANCH  22  25
ENDBRANCH  18  19
ENDBRANCH  17  18
ENDBRANCH   1  17
TORSDOF 10
ENDMDL
MODEL 7
REMARK VINA RESULT:      -7.3      6.919      9.640
REMARK  Name = 
REMARK  10 active torsions:
REMARK  status: ('A' for Active; 'I' for Inactive)
REMARK    1  A    between atoms: C_2  and  C_20
REMARK    2  A    between atoms: N_3  and  C_4
REMARK    3  A    between atoms: C_4  and  C_5
REMARK    4  A    between atoms: C_5  and  C_6
REMARK    5  A    between atoms: C_6  and  N_7
REMARK    6  A    between atoms: C_10  and  C_11
REMARK    7  A    between atoms: C_11  and  C_12
REMARK    8  A    between atoms: C_24  and  C_25
REMARK    9  A    between atoms: C_25  and  O_26
REMARK   10  A    between atoms: O_26  and  N_27
REMARK                            x       y       z     vdW  Elec       q    Type
REMARK                         _______ _______ _______ _____ _____    ______ ____
ROOT
ATOM      1  C   UNL     1       1.191   8.314  21.269  0.00  0.00    +0.000 C 
ENDROOT
BRANCH   1   4
ATOM      2  O   UNL     1       1.389  10.004  19.029  0.00  0.00    +0.000 OA
ATOM      3  C   UNL     1       0.284   9.770  19.501  0.00  0.00    +0.000 C 
ATOM      4  N   UNL     1       0.080   8.988  20.621  0.00  0.00    +0.000 N 
ATOM      5  H   UNL     1      -0.850   8.640  20.805  0.00  0.00    +0.000 HD
BRANCH   3   6
ATOM      6  C   UNL     1      -0.935  10.295  18.831  0.00  0.00    +0.000 A 
ATOM      7  C   UNL     1      -1.679  11.350  19.369  0.00  0.00    +0.000 A 
ATOM      8  C   UNL     1      -2.808  11.816  18.692  0.00  0.00    +0.000 A 
ATOM      9  C   UNL     1      -3.200  11.226  17.488  0.00  0.00    +0.000 A 
ATOM     10  C   UNL     1      -2.469  10.159  16.943  0.00  0.00    +0.000 A 
ATOM     11  C   UNL     1      -1.321   9.716  17.614  0.00  0.00    +0.000 A 
BRANCH  10  12
ATOM     12  C   UNL     1      -2.896   9.509  15.649  0.00  0.00    +0.000 C 
BRANCH  12  13
ATOM     13  O   UNL     1      -2.832  10.476  14.612  0.00  0.00    +0.000 OA
BRANCH  13  14
ATOM     14  N   UNL     1      -3.096   9.906  13.345  0.00  0.00    +0.000 N 
ATOM     15  O   UNL     1      -2.155   9.370  12.760  0.00  0.00    +0.000 OA
ATOM     16  O   UNL     1      -4.270  10.028  13.002  0.00  0.00    +0.000 OA
ENDBRANCH  13  14
ENDBRANCH  12  13
ENDBRANCH  10  12
ENDBRANCH   3   6
ENDBRANCH   1   4
BRANCH   1  17
ATOM     17  C   UNL     1       1.859   7.325  20.318  0.00  0.00    +0.000 C 
BRANCH  17  18
ATOM     18  C   UNL     1       1.871   5.903  20.894  0.00  0.00    +0.000 C 
BRANCH  18  19
ATOM     19  N   UNL     1       1.523   4.873  19.891  0.00  0.00    +0.000 NA
ATOM     20  C   UNL     1       2.098   5.192  18.573  0.00  0.00    +0.000 C 
ATOM     21  C   UNL     1       1.779   4.115  17.541  0.00  0.00    +0.000 C 
ATOM     22  C   UNL     1       2.316   2.747  17.970  0.00  0.00    +0.000 C 
ATOM     23  C   UNL     1       1.690   2.430  19.339  0.00  0.00    +0.000 C 
ATOM     24  C   UNL     1       1.939   3.541  20.370  0.00  0.00    +0.000 C 
BRANCH  22  25
ATOM     25  C   UNL     1       3.860   2.677  18.040  0.00  0.00    +0.000 C 
BRANCH  25  26
ATOM     26  C   UNL     1       4.602   3.854  17.451  0.00  0.00    +0.000 A 
ATOM     27  C   UNL     1       5.276   4.756  18.289  0.00  0.00    +0.000 A 
ATOM     28  C   UNL     1       6.011   5.815  17.751  0.00  0.00    +0.000 A 
ATOM     29  C   UNL     1       6.089   5.979  16.371  0.00  0.00    +0.000 A 
ATOM     30  C   UNL     1       5.420   5.094  15.529  0.00  0.00    +0.000 A 
ATOM     31  C   UNL     1       4.677   4.038  16.065  0.00  0.00    +0.000 A 
ENDBRANCH  25  26
ENDBRANCH  22  25
ENDBRANCH  18  19
ENDBRANCH  17  18
ENDBRANCH   1  17
TORSDOF 10
ENDMDL
MODEL 8
REMARK VINA RESULT:      -7.3      1.999      2.389
REMARK  Name = 
REMARK  10 active torsions:
REMARK  status: ('A' for Active; 'I' for Inactive)
REMARK    1  A    between atoms: C_2  and  C_20
REMARK    2  A    between atoms: N_3  and  C_4
REMARK    3  A    between atoms: C_4  and  C_5
REMARK    4  A    between atoms: C_5  and  C_6
REMARK    5  A    between atoms: C_6  and  N_7
REMARK    6  A    between atoms: C_10  and  C_11
REMARK    7  A    between atoms: C_11  and  C_12
REMARK    8  A    between atoms: C_24  and  C_25
REMARK    9  A    between atoms: C_25  and  O_26
REMARK   10  A    between atoms: O_26  and  N_27
REMARK                            x       y       z     vdW  Elec       q    Type
REMARK                         _______ _______ _______ _____ _____    ______ ____
ROOT
ATOM      1  C   UNL     1       9.301   9.917  18.515  0.00  0.00    +0.000 C 
ENDROOT
BRANCH   1   4
ATOM      2  O   UNL     1      11.181  11.959  18.054  0.00  0.00    +0.000 OA
ATOM      3  C   UNL     1      10.004  12.259  18.214  0.00  0.00    +0.000 C 
ATOM      4  N   UNL     1       9.010  11.339  18.486  0.00  0.00    +0.000 N 
ATOM      5  H   UNL     1       8.047  11.618  18.361  0.00  0.00    +0.000 HD
BRANCH   3   6
ATOM      6  C   UNL     1       9.572  13.673  18.063  0.00  0.00    +0.000 A 
ATOM      7  C   UNL     1      10.451  14.673  17.634  0.00  0.00    +0.000 A 
ATOM      8  C   UNL     1       9.992  15.985  17.494  0.00  0.00    +0.000 A 
ATOM      9  C   UNL     1       8.663  16.300  17.790  0.00  0.00    +0.000 A 
ATOM     10  C   UNL     1       7.774  15.309  18.232  0.00  0.00    +0.000 A 
ATOM     11  C   UNL     1       8.235  13.989  18.343  0.00  0.00    +0.000 A 
BRANCH  10  12
ATOM     12  C   UNL     1       6.341  15.647  18.566  0.00  0.00    +0.000 C 
BRANCH  12  13
ATOM     13  O   UNL     1       5.486  14.844  17.765  0.00  0.00    +0.000 OA
BRANCH  13  14
ATOM     14  N   UNL     1       4.240  14.617  18.392  0.00  0.00    +0.000 N 
ATOM     15  O   UNL     1       4.233  14.522  19.619  0.00  0.00    +0.000 OA
ATOM     16  O   UNL     1       3.309  14.551  17.592  0.00  0.00    +0.000 OA
ENDBRANCH  13  14
ENDBRANCH  12  13
ENDBRANCH  10  12
ENDBRANCH   3   6
ENDBRANCH   1   4
BRANCH   1  17
ATOM     17  C   UNL     1       8.138   9.110  17.947  0.00  0.00    +0.000 C 
BRANCH  17  18
ATOM     18  C   UNL     1       8.226   7.630  18.341  0.00  0.00    +0.000 C 
BRANCH  18  19
ATOM     19  N   UNL     1       7.318   6.769  17.554  0.00  0.00    +0.000 NA
ATOM     20  C   UNL     1       7.049   5.498  18.247  0.00  0.00    +0.000 C 
ATOM     21  C   UNL     1       6.080   4.619  17.461  0.00  0.00    +0.000 C 
ATOM     22  C   UNL     1       4.740   5.323  17.232  0.00  0.00    +0.000 C 
ATOM     23  C   UNL     1       5.045   6.637  16.494  0.00  0.00    +0.000 C 
ATOM     24  C   UNL     1       6.076   7.501  17.236  0.00  0.00    +0.000 C 
BRANCH  22  25
ATOM     25  C   UNL     1       3.946   5.592  18.533  0.00  0.00    +0.000 C 
BRANCH  25  26
ATOM     26  C   UNL     1       2.849   4.603  18.853  0.00  0.00    +0.000 A 
ATOM     27  C   UNL     1       1.969   4.846  19.919  0.00  0.00    +0.000 A 
ATOM     28  C   UNL     1       0.917   3.967  20.188  0.00  0.00    +0.000 A 
ATOM     29  C   UNL     1       0.727   2.843  19.390  0.00  0.00    +0.000 A 
ATOM     30  C   UNL     1       1.596   2.589  18.331  0.00  0.00    +0.000 A 
ATOM     31  C   UNL     1       2.654   3.462  18.066  0.00  0.00    +0.000 A 
ENDBRANCH  25  26
ENDBRANCH  22  25
ENDBRANCH  18  19
ENDBRANCH  17  18
ENDBRANCH   1  17
TORSDOF 10
ENDMDL
MODEL 9
REMARK VINA RESULT:      -7.3      4.282     11.567
REMARK  Name = 
REMARK  10 active torsions:
REMARK  status: ('A' for Active; 'I' for Inactive)
REMARK    1  A    between atoms: C_2  and  C_20
REMARK    2  A    between atoms: N_3  and  C_4
REMARK    3  A    between atoms: C_4  and  C_5
REMARK    4  A    between atoms: C_5  and  C_6
REMARK    5  A    between atoms: C_6  and  N_7
REMARK    6  A    between atoms: C_10  and  C_11
REMARK    7  A    between atoms: C_11  and  C_12
REMARK    8  A    between atoms: C_24  and  C_25
REMARK    9  A    between atoms: C_25  and  O_26
REMARK   10  A    between atoms: O_26  and  N_27
REMARK                            x       y       z     vdW  Elec       q    Type
REMARK                         _______ _______ _______ _____ _____    ______ ____
ROOT
ATOM      1  C   UNL     1       8.042   7.721  17.905  0.00  0.00    +0.000 C 
ENDROOT
BRANCH   1   4
ATOM      2  O   UNL     1       6.526   6.314  15.997  0.00  0.00    +0.000 OA
ATOM      3  C   UNL     1       6.013   6.599  17.071  0.00  0.00    +0.000 C 
ATOM      4  N   UNL     1       6.655   7.320  18.059  0.00  0.00    +0.000 N 
ATOM      5  H   UNL     1       6.273   7.305  18.994  0.00  0.00    +0.000 HD
BRANCH   3   6
ATOM      6  C   UNL     1       4.644   6.115  17.391  0.00  0.00    +0.000 A 
ATOM      7  C   UNL     1       3.627   6.985  17.796  0.00  0.00    +0.000 A 
ATOM      8  C   UNL     1       2.354   6.482  18.070  0.00  0.00    +0.000 A 
ATOM      9  C   UNL     1       2.097   5.114  17.949  0.00  0.00    +0.000 A 
ATOM     10  C   UNL     1       3.111   4.229  17.554  0.00  0.00    +0.000 A 
ATOM     11  C   UNL     1       4.379   4.745  17.254  0.00  0.00    +0.000 A 
BRANCH  10  12
ATOM     12  C   UNL     1       2.843   2.748  17.436  0.00  0.00    +0.000 C 
BRANCH  12  13
ATOM     13  O   UNL     1       3.490   2.080  18.508  0.00  0.00    +0.000 OA
BRANCH  13  14
ATOM     14  N   UNL     1       2.775   2.216  19.720  0.00  0.00    +0.000 N 
ATOM     15  O   UNL     1       3.402   2.602  20.706  0.00  0.00    +0.000 OA
ATOM     16  O   UNL     1       1.586   1.924  19.608  0.00  0.00    +0.000 OA
ENDBRANCH  13  14
ENDBRANCH  12  13
ENDBRANCH  10  12
ENDBRANCH   3   6
ENDBRANCH   1   4
BRANCH   1  17
ATOM     17  C   UNL     1       8.159   9.232  17.741  0.00  0.00    +0.000 C 
BRANCH  17  18
ATOM     18  C   UNL     1       8.919   9.874  18.910  0.00  0.00    +0.000 C 
BRANCH  18  19
ATOM     19  N   UNL     1       9.882  10.907  18.473  0.00  0.00    +0.000 NA
ATOM     20  C   UNL     1       9.190  12.093  17.940  0.00  0.00    +0.000 C 
ATOM     21  C   UNL     1      10.174  13.182  17.524  0.00  0.00    +0.000 C 
ATOM     22  C   UNL     1      11.044  13.634  18.699  0.00  0.00    +0.000 C 
ATOM     23  C   UNL     1      11.767  12.384  19.228  0.00  0.00    +0.000 C 
ATOM     24  C   UNL     1      10.794  11.249  19.582  0.00  0.00    +0.000 C 
BRANCH  22  25
ATOM     25  C   UNL     1      10.252  14.333  19.830  0.00  0.00    +0.000 C 
BRANCH  25  26
ATOM     26  C   UNL     1       9.232  15.357  19.387  0.00  0.00    +0.000 A 
ATOM     27  C   UNL     1       7.867  15.149  19.637  0.00  0.00    +0.000 A 
ATOM     28  C   UNL     1       6.923  16.115  19.282  0.00  0.00    +0.000 A 
ATOM     29  C   UNL     1       7.332  17.302  18.682  0.00  0.00    +0.000 A 
ATOM     30  C   UNL     1       8.684  17.518  18.424  0.00  0.00    +0.000 A 
ATOM     31  C   UNL     1       9.630  16.550  18.771  0.00  0.00    +0.000 A 
ENDBRANCH  25  26
ENDBRANCH  22  25
ENDBRANCH  18  19
ENDBRANCH  17  18
ENDBRANCH   1  17
TORSDOF 10
ENDMDL
