MODEL 1
REMARK VINA RESULT:      -7.4      0.000      0.000
REMARK  Name = 
REMARK  5 active torsions:
REMARK  status: ('A' for Active; 'I' for Inactive)
REMARK    1  A    between atoms: C_2  and  C_3
REMARK    2  A    between atoms: C_3  and  O_4
REMARK    3  A    between atoms: O_4  and  C_5
REMARK    4  A    between atoms: C_5  and  C_7
REMARK    5  A    between atoms: N_16  and  C_17
REMARK                            x       y       z     vdW  Elec       q    Type
REMARK                         _______ _______ _______ _____ _____    ______ ____
ROOT
ATOM      1  C   UNL     1       8.244   6.737  18.835  0.00  0.00    +0.000 C 
ENDROOT
BRANCH   1   3
ATOM      2  O   UNL     1       7.484   8.443  17.289  0.00  0.00    +0.000 OA
ATOM      3  C   UNL     1       8.182   8.162  18.259  0.00  0.00    +0.000 C 
ATOM      4  N   UNL     1       8.950   9.082  18.939  0.00  0.00    +0.000 N 
ATOM      5  H   UNL     1       9.316   8.795  19.846  0.00  0.00    +0.000 HD
BRANCH   4   6
ATOM      6  C   UNL     1       8.992  10.508  18.615  0.00  0.00    +0.000 C 
ATOM      7  C   UNL     1       8.952  11.352  19.896  0.00  0.00    +0.000 C 
ATOM      8  C   UNL     1      10.254  11.353  20.697  0.00  0.00    +0.000 C 
ATOM      9  C   UNL     1      11.227  12.449  20.270  0.00  0.00    +0.000 C 
ATOM     10  C   UNL     1      11.830  12.286  18.879  0.00  0.00    +0.000 C 
ATOM     11  C   UNL     1      10.817  12.154  17.743  0.00  0.00    +0.000 C 
ATOM     12  C   UNL     1      10.184  10.765  17.678  0.00  0.00    +0.000 C 
ENDBRANCH   4   6
ENDBRANCH   1   3
BRANCH   1  13
ATOM     13  O   UNL     1       6.973   6.115  19.033  0.00  0.00    +0.000 OA
BRANCH  13  14
ATOM     14  C   UNL     1       6.742   5.014  18.271  0.00  0.00    +0.000 C 
ATOM     15  O   UNL     1       7.522   4.572  17.445  0.00  0.00    +0.000 OA
BRANCH  14  16
ATOM     16  C   UNL     1       5.396   4.432  18.584  0.00  0.00    +0.000 A 
ATOM     17  N   UNL     1       5.410   3.372  19.445  0.00  0.00    +0.000 NA
ATOM     18  C   UNL     1       4.232   2.766  19.708  0.00  0.00    +0.000 A 
ATOM     19  C   UNL     1       3.024   3.160  19.163  0.00  0.00    +0.000 A 
ATOM     20 CL   UNL     1       1.606   2.273  19.580  0.00  0.00    +0.000 Cl
ATOM     21  C   UNL     1       3.023   4.258  18.295  0.00  0.00    +0.000 A 
ATOM     22 CL   UNL     1       1.520   4.799  17.600  0.00  0.00    +0.000 Cl
ATOM     23  C   UNL     1       4.228   4.918  17.990  0.00  0.00    +0.000 A 
ATOM     24 CL   UNL     1       4.228   6.301  16.943  0.00  0.00    +0.000 Cl
ENDBRANCH  14  16
ENDBRANCH  13  14
ENDBRANCH   1  13
TORSDOF 5
ENDMDL
MODEL 2
REMARK VINA RESULT:      -7.2      4.500      7.119
REMARK  Name = 
REMARK  5 active torsions:
REMARK  status: ('A' for Active; 'I' for Inactive)
REMARK    1  A    between atoms: C_2  and  C_3
REMARK    2  A    between atoms: C_3  and  O_4
REMARK    3  A    between atoms: O_4  and  C_5
REMARK    4  A    between atoms: C_5  and  C_7
REMARK    5  A    between atoms: N_16  and  C_17
REMARK                            x       y       z     vdW  Elec       q    Type
REMARK                         _______ _______ _______ _____ _____    ______ ____
ROOT
ATOM      1  C   UNL     1       7.020   4.829  16.710  0.00  0.00    +0.000 C 
ENDROOT
BRANCH   1   3
ATOM      2  O   UNL     1       5.540   6.030  15.212  0.00  0.00    +0.000 OA
ATOM      3  C   UNL     1       6.323   5.098  15.366  0.00  0.00    +0.000 C 
ATOM      4  N   UNL     1       6.675   4.224  14.360  0.00  0.00    +0.000 N 
ATOM      5  H   UNL     1       7.484   3.628  14.531  0.00  0.00    +0.000 HD
BRANCH   4   6
ATOM      6  C   UNL     1       6.193   4.327  12.983  0.00  0.00    +0.000 C 
ATOM      7  C   UNL     1       7.336   4.067  11.992  0.00  0.00    +0.000 C 
ATOM      8  C   UNL     1       7.759   2.602  11.881  0.00  0.00    +0.000 C 
ATOM      9  C   UNL     1       6.969   1.821  10.834  0.00  0.00    +0.000 C 
ATOM     10  C   UNL     1       5.495   1.597  11.156  0.00  0.00    +0.000 C 
ATOM     11  C   UNL     1       4.690   2.865  11.434  0.00  0.00    +0.000 C 
ATOM     12  C   UNL     1       4.951   3.434  12.827  0.00  0.00    +0.000 C 
ENDBRANCH   4   6
ENDBRANCH   1   3
BRANCH   1  13
ATOM     13  O   UNL     1       6.803   5.830  17.707  0.00  0.00    +0.000 OA
BRANCH  13  14
ATOM     14  C   UNL     1       6.524   5.357  18.951  0.00  0.00    +0.000 C 
ATOM     15  O   UNL     1       7.243   5.511  19.923  0.00  0.00    +0.000 OA
BRANCH  14  16
ATOM     16  C   UNL     1       5.221   4.617  18.951  0.00  0.00    +0.000 A 
ATOM     17  N   UNL     1       5.280   3.341  19.434  0.00  0.00    +0.000 NA
ATOM     18  C   UNL     1       4.150   2.604  19.394  0.00  0.00    +0.000 A 
ATOM     19  C   UNL     1       2.945   3.069  18.899  0.00  0.00    +0.000 A 
ATOM     20 CL   UNL     1       1.591   2.000  18.896  0.00  0.00    +0.000 Cl
ATOM     21  C   UNL     1       2.894   4.383  18.423  0.00  0.00    +0.000 A 
ATOM     22 CL   UNL     1       1.391   5.014  17.808  0.00  0.00    +0.000 Cl
ATOM     23  C   UNL     1       4.050   5.186  18.443  0.00  0.00    +0.000 A 
ATOM     24 CL   UNL     1       3.985   6.828  17.887  0.00  0.00    +0.000 Cl
ENDBRANCH  14  16
ENDBRANCH  13  14
ENDBRANCH   1  13
TORSDOF 5
ENDMDL
MODEL 3
REMARK VINA RESULT:      -7.1      1.892      2.530
REMARK  Name = 
REMARK  5 active torsions:
REMARK  status: ('A' for Active; 'I' for Inactive)
REMARK    1  A    between atoms: C_2  and  C_3
REMARK    2  A    between atoms: C_3  and  O_4
REMARK    3  A    between atoms: O_4  and  C_5
REMARK    4  A    between atoms: C_5  and  C_7
REMARK    5  A    between atoms: N_16  and  C_17
REMARK                            x       y       z     vdW  Elec       q    Type
REMARK                         _______ _______ _______ _____ _____    ______ ____
ROOT
ATOM      1  C   UNL     1       6.818   8.240  17.269  0.00  0.00    +0.000 C 
ENDROOT
BRANCH   1   3
ATOM      2  O   UNL     1       8.643   7.660  18.754  0.00  0.00    +0.000 OA
ATOM      3  C   UNL     1       8.070   8.535  18.112  0.00  0.00    +0.000 C 
ATOM      4  N   UNL     1       8.494   9.844  18.060  0.00  0.00    +0.000 N 
ATOM      5  H   UNL     1       8.080  10.433  17.337  0.00  0.00    +0.000 HD
BRANCH   4   6
ATOM      6  C   UNL     1       9.699  10.340  18.725  0.00  0.00    +0.000 C 
ATOM      7  C   UNL     1      10.409  11.380  17.847  0.00  0.00    +0.000 C 
ATOM      8  C   UNL     1       9.714  12.740  17.787  0.00  0.00    +0.000 C 
ATOM      9  C   UNL     1      10.157  13.696  18.893  0.00  0.00    +0.000 C 
ATOM     10  C   UNL     1       9.741  13.303  20.306  0.00  0.00    +0.000 C 
ATOM     11  C   UNL     1      10.182  11.909  20.750  0.00  0.00    +0.000 C 
ATOM     12  C   UNL     1       9.325  10.800  20.144  0.00  0.00    +0.000 C 
ENDBRANCH   4   6
ENDBRANCH   1   3
BRANCH   1  13
ATOM     13  O   UNL     1       6.393   6.876  17.285  0.00  0.00    +0.000 OA
BRANCH  13  14
ATOM     14  C   UNL     1       5.369   6.578  16.441  0.00  0.00    +0.000 C 
ATOM     15  O   UNL     1       5.327   6.904  15.268  0.00  0.00    +0.000 OA
BRANCH  14  16
ATOM     16  C   UNL     1       4.303   5.808  17.161  0.00  0.00    +0.000 A 
ATOM     17  N   UNL     1       3.455   6.564  17.919  0.00  0.00    +0.000 NA
ATOM     18  C   UNL     1       2.517   5.916  18.643  0.00  0.00    +0.000 A 
ATOM     19  C   UNL     1       2.368   4.541  18.654  0.00  0.00    +0.000 A 
ATOM     20 CL   UNL     1       1.135   3.857  19.647  0.00  0.00    +0.000 Cl
ATOM     21  C   UNL     1       3.233   3.781  17.860  0.00  0.00    +0.000 A 
ATOM     22 CL   UNL     1       3.067   2.047  17.831  0.00  0.00    +0.000 Cl
ATOM     23  C   UNL     1       4.227   4.415  17.092  0.00  0.00    +0.000 A 
ATOM     24 CL   UNL     1       5.279   3.480  16.077  0.00  0.00    +0.000 Cl
ENDBRANCH  14  16
ENDBRANCH  13  14
ENDBRANCH   1  13
TORSDOF 5
ENDMDL
MODEL 4
REMARK VINA RESULT:      -6.9      1.267      1.309
REMARK  Name = 
REMARK  5 active torsions:
REMARK  status: ('A' for Active; 'I' for Inactive)
REMARK    1  A    between atoms: C_2  and  C_3
REMARK    2  A    between atoms: C_3  and  O_4
REMARK    3  A    between atoms: O_4  and  C_5
REMARK    4  A    between atoms: C_5  and  C_7
REMARK    5  A    between atoms: N_16  and  C_17
REMARK                            x       y       z     vdW  Elec       q    Type
REMARK                         _______ _______ _______ _____ _____    ______ ____
ROOT
ATOM      1  C   UNL     1       8.105   7.426  18.483  0.00  0.00    +0.000 C 
ENDROOT
BRANCH   1   3
ATOM      2  O   UNL     1       7.436   9.337  17.151  0.00  0.00    +0.000 OA
ATOM      3  C   UNL     1       8.154   8.899  18.044  0.00  0.00    +0.000 C 
ATOM      4  N   UNL     1       9.047   9.673  18.753  0.00  0.00    +0.000 N 
ATOM      5  H   UNL     1       9.432   9.266  19.605  0.00  0.00    +0.000 HD
BRANCH   4   6
ATOM      6  C   UNL     1       9.215  11.113  18.558  0.00  0.00    +0.000 C 
ATOM      7  C   UNL     1       9.337  11.829  19.910  0.00  0.00    +0.000 C 
ATOM      8  C   UNL     1      10.679  11.627  20.615  0.00  0.00    +0.000 C 
ATOM      9  C   UNL     1      11.731  12.661  20.222  0.00  0.00    +0.000 C 
ATOM     10  C   UNL     1      12.228  12.578  18.784  0.00  0.00    +0.000 C 
ATOM     11  C   UNL     1      11.141  12.654  17.714  0.00  0.00    +0.000 C 
ATOM     12  C   UNL     1      10.367  11.345  17.567  0.00  0.00    +0.000 C 
ENDBRANCH   4   6
ENDBRANCH   1   3
BRANCH   1  13
ATOM     13  O   UNL     1       7.007   6.681  17.955  0.00  0.00    +0.000 OA
BRANCH  13  14
ATOM     14  C   UNL     1       6.913   5.397  18.394  0.00  0.00    +0.000 C 
ATOM     15  O   UNL     1       7.869   4.673  18.614  0.00  0.00    +0.000 OA
BRANCH  14  16
ATOM     16  C   UNL     1       5.476   5.001  18.556  0.00  0.00    +0.000 A 
ATOM     17  N   UNL     1       4.876   5.457  19.695  0.00  0.00    +0.000 NA
ATOM     18  C   UNL     1       3.602   5.074  19.926  0.00  0.00    +0.000 A 
ATOM     19  C   UNL     1       2.878   4.257  19.077  0.00  0.00    +0.000 A 
ATOM     20 CL   UNL     1       1.264   3.838  19.519  0.00  0.00    +0.000 Cl
ATOM     21  C   UNL     1       3.500   3.811  17.905  0.00  0.00    +0.000 A 
ATOM     22 CL   UNL     1       2.617   2.796  16.800  0.00  0.00    +0.000 Cl
ATOM     23  C   UNL     1       4.828   4.184  17.627  0.00  0.00    +0.000 A 
ATOM     24 CL   UNL     1       5.593   3.665  16.159  0.00  0.00    +0.000 Cl
ENDBRANCH  14  16
ENDBRANCH  13  14
ENDBRANCH   1  13
TORSDOF 5
ENDMDL
MODEL 5
REMARK VINA RESULT:      -6.8      6.735      9.690
REMARK  Name = 
REMARK  5 active torsions:
REMARK  status: ('A' for Active; 'I' for Inactive)
REMARK    1  A    between atoms: C_2  and  C_3
REMARK    2  A    between atoms: C_3  and  O_4
REMARK    3  A    between atoms: O_4  and  C_5
REMARK    4  A    between atoms: C_5  and  C_7
REMARK    5  A    between atoms: N_16  and  C_17
REMARK                            x       y       z     vdW  Elec       q    Type
REMARK                         _______ _______ _______ _____ _____    ______ ____
ROOT
ATOM      1  C   UNL     1       1.560   9.155  18.015  0.00  0.00    +0.000 C 
ENDROOT
BRANCH   1   3
ATOM      2  O   UNL     1       3.559   7.917  17.427  0.00  0.00    +0.000 OA
ATOM      3  C   UNL     1       2.465   7.912  17.984  0.00  0.00    +0.000 C 
ATOM      4  N   UNL     1       1.954   6.821  18.650  0.00  0.00    +0.000 N 
ATOM      5  H   UNL     1       1.148   6.986  19.253  0.00  0.00    +0.000 HD
BRANCH   4   6
ATOM      6  C   UNL     1       2.667   5.554  18.812  0.00  0.00    +0.000 C 
ATOM      7  C   UNL     1       2.536   5.042  20.253  0.00  0.00    +0.000 C 
ATOM      8  C   UNL     1       1.161   4.471  20.601  0.00  0.00    +0.000 C 
ATOM      9  C   UNL     1       1.028   2.982  20.293  0.00  0.00    +0.000 C 
ATOM     10  C   UNL     1       1.047   2.612  18.815  0.00  0.00    +0.000 C 
ATOM     11  C   UNL     1       2.271   3.096  18.039  0.00  0.00    +0.000 C 
ATOM     12  C   UNL     1       2.208   4.586  17.709  0.00  0.00    +0.000 C 
ENDBRANCH   4   6
ENDBRANCH   1   3
BRANCH   1  13
ATOM     13  O   UNL     1       1.310   9.681  19.320  0.00  0.00    +0.000 OA
BRANCH  13  14
ATOM     14  C   UNL     1       1.197  11.034  19.388  0.00  0.00    +0.000 C 
ATOM     15  O   UNL     1       1.900  11.815  18.770  0.00  0.00    +0.000 OA
BRANCH  14  16
ATOM     16  C   UNL     1       0.100  11.423  20.332  0.00  0.00    +0.000 A 
ATOM     17  N   UNL     1       0.351  11.164  21.649  0.00  0.00    +0.000 NA
ATOM     18  C   UNL     1      -0.630  11.432  22.537  0.00  0.00    +0.000 A 
ATOM     19  C   UNL     1      -1.863  11.953  22.189  0.00  0.00    +0.000 A 
ATOM     20 CL   UNL     1      -3.022  12.223  23.436  0.00  0.00    +0.000 Cl
ATOM     21  C   UNL     1      -2.100  12.229  20.838  0.00  0.00    +0.000 A 
ATOM     22 CL   UNL     1      -3.633  12.904  20.358  0.00  0.00    +0.000 Cl
ATOM     23  C   UNL     1      -1.106  11.963  19.878  0.00  0.00    +0.000 A 
ATOM     24 CL   UNL     1      -1.381  12.336  18.206  0.00  0.00    +0.000 Cl
ENDBRANCH  14  16
ENDBRANCH  13  14
ENDBRANCH   1  13
TORSDOF 5
ENDMDL
MODEL 6
REMARK VINA RESULT:      -6.8      6.311      9.462
REMARK  Name = 
REMARK  5 active torsions:
REMARK  status: ('A' for Active; 'I' for Inactive)
REMARK    1  A    between atoms: C_2  and  C_3
REMARK    2  A    between atoms: C_3  and  O_4
REMARK    3  A    between atoms: O_4  and  C_5
REMARK    4  A    between atoms: C_5  and  C_7
REMARK    5  A    between atoms: N_16  and  C_17
REMARK                            x       y       z     vdW  Elec       q    Type
REMARK                         _______ _______ _______ _____ _____    ______ ____
ROOT
ATOM      1  C   UNL     1       2.593   9.056  17.808  0.00  0.00    +0.000 C 
ENDROOT
BRANCH   1   3
ATOM      2  O   UNL     1       4.113   7.359  16.982  0.00  0.00    +0.000 OA
ATOM      3  C   UNL     1       3.130   7.622  17.668  0.00  0.00    +0.000 C 
ATOM      4  N   UNL     1       2.432   6.682  18.394  0.00  0.00    +0.000 N 
ATOM      5  H   UNL     1       1.775   7.033  19.090  0.00  0.00    +0.000 HD
BRANCH   4   6
ATOM      6  C   UNL     1       2.802   5.268  18.469  0.00  0.00    +0.000 C 
ATOM      7  C   UNL     1       3.253   4.904  19.890  0.00  0.00    +0.000 C 
ATOM      8  C   UNL     1       2.118   4.805  20.909  0.00  0.00    +0.000 C 
ATOM      9  C   UNL     1       1.495   3.413  20.988  0.00  0.00    +0.000 C 
ATOM     10  C   UNL     1       0.716   2.972  19.754  0.00  0.00    +0.000 C 
ATOM     11  C   UNL     1       1.498   3.011  18.443  0.00  0.00    +0.000 C 
ATOM     12  C   UNL     1       1.651   4.427  17.891  0.00  0.00    +0.000 C 
ENDBRANCH   4   6
ENDBRANCH   1   3
BRANCH   1  13
ATOM     13  O   UNL     1       1.178   9.183  17.656  0.00  0.00    +0.000 OA
BRANCH  13  14
ATOM     14  C   UNL     1       0.502   9.521  18.787  0.00  0.00    +0.000 C 
ATOM     15  O   UNL     1       0.924   9.352  19.918  0.00  0.00    +0.000 OA
BRANCH  14  16
ATOM     16  C   UNL     1      -0.830  10.117  18.444  0.00  0.00    +0.000 A 
ATOM     17  N   UNL     1      -1.358   9.707  17.253  0.00  0.00    +0.000 NA
ATOM     18  C   UNL     1      -2.524  10.263  16.861  0.00  0.00    +0.000 A 
ATOM     19  C   UNL     1      -3.209  11.214  17.596  0.00  0.00    +0.000 A 
ATOM     20 CL   UNL     1      -4.678  11.847  16.953  0.00  0.00    +0.000 Cl
ATOM     21  C   UNL     1      -2.665  11.613  18.822  0.00  0.00    +0.000 A 
ATOM     22 CL   UNL     1      -3.505  12.794  19.787  0.00  0.00    +0.000 Cl
ATOM     23  C   UNL     1      -1.449  11.061  19.267  0.00  0.00    +0.000 A 
ATOM     24 CL   UNL     1      -0.788  11.524  20.803  0.00  0.00    +0.000 Cl
ENDBRANCH  14  16
ENDBRANCH  13  14
ENDBRANCH   1  13
TORSDOF 5
ENDMDL
MODEL 7
REMARK VINA RESULT:      -6.7      3.954      5.485
REMARK  Name = 
REMARK  5 active torsions:
REMARK  status: ('A' for Active; 'I' for Inactive)
REMARK    1  A    between atoms: C_2  and  C_3
REMARK    2  A    between atoms: C_3  and  O_4
REMARK    3  A    between atoms: O_4  and  C_5
REMARK    4  A    between atoms: C_5  and  C_7
REMARK    5  A    between atoms: N_16  and  C_17
REMARK                            x       y       z     vdW  Elec       q    Type
REMARK                         _______ _______ _______ _____ _____    ______ ____
ROOT
ATOM      1  C   UNL     1       6.723   6.927  17.259  0.00  0.00    +0.000 C 
ENDROOT
BRANCH   1   3
ATOM      2  O   UNL     1       4.923   7.082  15.642  0.00  0.00    +0.000 OA
ATOM      3  C   UNL     1       5.261   7.121  16.821  0.00  0.00    +0.000 C 
ATOM      4  N   UNL     1       4.379   7.313  17.862  0.00  0.00    +0.000 N 
ATOM      5  H   UNL     1       4.725   7.116  18.801  0.00  0.00    +0.000 HD
BRANCH   4   6
ATOM      6  C   UNL     1       2.932   7.450  17.691  0.00  0.00    +0.000 C 
ATOM      7  C   UNL     1       2.185   6.632  18.753  0.00  0.00    +0.000 C 
ATOM      8  C   UNL     1       2.217   7.236  20.158  0.00  0.00    +0.000 C 
ATOM      9  C   UNL     1       1.074   8.212  20.423  0.00  0.00    +0.000 C 
ATOM     10  C   UNL     1       1.122   9.512  19.628  0.00  0.00    +0.000 C 
ATOM     11  C   UNL     1       1.191   9.345  18.111  0.00  0.00    +0.000 C 
ATOM     12  C   UNL     1       2.584   8.947  17.626  0.00  0.00    +0.000 C 
ENDBRANCH   4   6
ENDBRANCH   1   3
BRANCH   1  13
ATOM     13  O   UNL     1       7.373   5.789  16.688  0.00  0.00    +0.000 OA
BRANCH  13  14
ATOM     14  C   UNL     1       7.445   4.698  17.496  0.00  0.00    +0.000 C 
ATOM     15  O   UNL     1       8.475   4.098  17.751  0.00  0.00    +0.000 OA
BRANCH  14  16
ATOM     16  C   UNL     1       6.085   4.337  18.013  0.00  0.00    +0.000 A 
ATOM     17  N   UNL     1       5.911   4.516  19.356  0.00  0.00    +0.000 NA
ATOM     18  C   UNL     1       4.727   4.142  19.888  0.00  0.00    +0.000 A 
ATOM     19  C   UNL     1       3.690   3.598  19.152  0.00  0.00    +0.000 A 
ATOM     20 CL   UNL     1       2.244   3.152  19.978  0.00  0.00    +0.000 Cl
ATOM     21  C   UNL     1       3.877   3.436  17.775  0.00  0.00    +0.000 A 
ATOM     22 CL   UNL     1       2.589   2.772  16.808  0.00  0.00    +0.000 Cl
ATOM     23  C   UNL     1       5.096   3.809  17.179  0.00  0.00    +0.000 A 
ATOM     24 CL   UNL     1       5.320   3.645  15.467  0.00  0.00    +0.000 Cl
ENDBRANCH  14  16
ENDBRANCH  13  14
ENDBRANCH   1  13
TORSDOF 5
ENDMDL
MODEL 8
REMARK VINA RESULT:      -6.7      6.148      9.432
REMARK  Name = 
REMARK  5 active torsions:
REMARK  status: ('A' for Active; 'I' for Inactive)
REMARK    1  A    between atoms: C_2  and  C_3
REMARK    2  A    between atoms: C_3  and  O_4
REMARK    3  A    between atoms: O_4  and  C_5
REMARK    4  A    between atoms: C_5  and  C_7
REMARK    5  A    between atoms: N_16  and  C_17
REMARK                            x       y       z     vdW  Elec       q    Type
REMARK                         _______ _______ _______ _____ _____    ______ ____
ROOT
ATOM      1  C   UNL     1       2.475   8.877  17.885  0.00  0.00    +0.000 C 
ENDROOT
BRANCH   1   3
ATOM      2  O   UNL     1       4.180   7.288  17.220  0.00  0.00    +0.000 OA
ATOM      3  C   UNL     1       3.115   7.482  17.799  0.00  0.00    +0.000 C 
ATOM      4  N   UNL     1       2.405   6.492  18.442  0.00  0.00    +0.000 N 
ATOM      5  H   UNL     1       1.657   6.793  19.065  0.00  0.00    +0.000 HD
BRANCH   4   6
ATOM      6  C   UNL     1       2.854   5.104  18.551  0.00  0.00    +0.000 C 
ATOM      7  C   UNL     1       2.997   4.698  20.024  0.00  0.00    +0.000 C 
ATOM      8  C   UNL     1       1.672   4.472  20.751  0.00  0.00    +0.000 C 
ATOM      9  C   UNL     1       1.154   3.040  20.637  0.00  0.00    +0.000 C 
ATOM     10  C   UNL     1       0.711   2.612  19.242  0.00  0.00    +0.000 C 
ATOM     11  C   UNL     1       1.765   2.770  18.148  0.00  0.00    +0.000 C 
ATOM     12  C   UNL     1       1.932   4.219  17.696  0.00  0.00    +0.000 C 
ENDBRANCH   4   6
ENDBRANCH   1   3
BRANCH   1  13
ATOM     13  O   UNL     1       1.211   8.916  18.550  0.00  0.00    +0.000 OA
BRANCH  13  14
ATOM     14  C   UNL     1       1.271   9.061  19.901  0.00  0.00    +0.000 C 
ATOM     15  O   UNL     1       1.807   8.268  20.655  0.00  0.00    +0.000 OA
BRANCH  14  16
ATOM     16  C   UNL     1       0.577  10.320  20.325  0.00  0.00    +0.000 A 
ATOM     17  N   UNL     1       0.855  11.419  19.563  0.00  0.00    +0.000 NA
ATOM     18  C   UNL     1       0.311  12.595  19.941  0.00  0.00    +0.000 A 
ATOM     19  C   UNL     1      -0.509  12.745  21.044  0.00  0.00    +0.000 A 
ATOM     20 CL   UNL     1      -1.113  14.318  21.411  0.00  0.00    +0.000 Cl
ATOM     21  C   UNL     1      -0.799  11.608  21.806  0.00  0.00    +0.000 A 
ATOM     22 CL   UNL     1      -1.842  11.750  23.194  0.00  0.00    +0.000 Cl
ATOM     23  C   UNL     1      -0.250  10.362  21.451  0.00  0.00    +0.000 A 
ATOM     24 CL   UNL     1      -0.635   8.942  22.369  0.00  0.00    +0.000 Cl
ENDBRANCH  14  16
ENDBRANCH  13  14
ENDBRANCH   1  13
TORSDOF 5
ENDMDL
MODEL 9
REMARK VINA RESULT:      -6.7      5.053      7.021
REMARK  Name = 
REMARK  5 active torsions:
REMARK  status: ('A' for Active; 'I' for Inactive)
REMARK    1  A    between atoms: C_2  and  C_3
REMARK    2  A    between atoms: C_3  and  O_4
REMARK    3  A    between atoms: O_4  and  C_5
REMARK    4  A    between atoms: C_5  and  C_7
REMARK    5  A    between atoms: N_16  and  C_17
REMARK                            x       y       z     vdW  Elec       q    Type
REMARK                         _______ _______ _______ _____ _____    ______ ____
ROOT
ATOM      1  C   UNL     1       1.859   5.337  19.674  0.00  0.00    +0.000 C 
ENDROOT
BRANCH   1   3
ATOM      2  O   UNL     1       3.607   3.709  20.089  0.00  0.00    +0.000 OA
ATOM      3  C   UNL     1       3.266   4.738  19.512  0.00  0.00    +0.000 C 
ATOM      4  N   UNL     1       4.085   5.438  18.654  0.00  0.00    +0.000 N 
ATOM      5  H   UNL     1       3.641   6.145  18.069  0.00  0.00    +0.000 HD
BRANCH   4   6
ATOM      6  C   UNL     1       5.440   5.018  18.293  0.00  0.00    +0.000 C 
ATOM      7  C   UNL     1       5.823   5.565  16.911  0.00  0.00    +0.000 C 
ATOM      8  C   UNL     1       6.130   7.062  16.884  0.00  0.00    +0.000 C 
ATOM      9  C   UNL     1       7.593   7.386  17.173  0.00  0.00    +0.000 C 
ATOM     10  C   UNL     1       8.062   7.095  18.594  0.00  0.00    +0.000 C 
ATOM     11  C   UNL     1       7.844   5.660  19.070  0.00  0.00    +0.000 C 
ATOM     12  C   UNL     1       6.391   5.379  19.446  0.00  0.00    +0.000 C 
ENDBRANCH   4   6
ENDBRANCH   1   3
BRANCH   1  13
ATOM     13  O   UNL     1       1.789   6.475  20.535  0.00  0.00    +0.000 OA
BRANCH  13  14
ATOM     14  C   UNL     1       1.877   7.680  19.911  0.00  0.00    +0.000 C 
ATOM     15  O   UNL     1       2.516   7.883  18.893  0.00  0.00    +0.000 OA
BRANCH  14  16
ATOM     16  C   UNL     1       1.090   8.716  20.656  0.00  0.00    +0.000 A 
ATOM     17  N   UNL     1       1.133   8.607  22.016  0.00  0.00    +0.000 NA
ATOM     18  C   UNL     1       0.388   9.473  22.736  0.00  0.00    +0.000 A 
ATOM     19  C   UNL     1      -0.406  10.457  22.176  0.00  0.00    +0.000 A 
ATOM     20 CL   UNL     1      -1.317  11.475  23.227  0.00  0.00    +0.000 Cl
ATOM     21  C   UNL     1      -0.427  10.567  20.781  0.00  0.00    +0.000 A 
ATOM     22 CL   UNL     1      -1.399  11.805  20.035  0.00  0.00    +0.000 Cl
ATOM     23  C   UNL     1       0.332   9.684  19.991  0.00  0.00    +0.000 A 
ATOM     24 CL   UNL     1       0.338   9.838  18.264  0.00  0.00    +0.000 Cl
ENDBRANCH  14  16
ENDBRANCH  13  14
ENDBRANCH   1  13
TORSDOF 5
ENDMDL
