MODEL 1
REMARK VINA RESULT:      -7.3      0.000      0.000
REMARK  Name = 
REMARK  11 active torsions:
REMARK  status: ('A' for Active; 'I' for Inactive)
REMARK    1  A    between atoms: C_1  and  O_2
REMARK    2  A    between atoms: O_2  and  C_3
REMARK    3  A    between atoms: C_5  and  N_6
REMARK    4  A    between atoms: C_7  and  C_9
REMARK    5  A    between atoms: C_9  and  O_10
REMARK    6  A    between atoms: O_10  and  C_11
REMARK    7  A    between atoms: C_12  and  C_13
REMARK    8  A    between atoms: C_15  and  C_16
REMARK    9  A    between atoms: C_18  and  N_19
REMARK   10  A    between atoms: C_22  and  O_23
REMARK   11  A    between atoms: O_23  and  C_24
REMARK                            x       y       z     vdW  Elec       q    Type
REMARK                         _______ _______ _______ _____ _____    ______ ____
ROOT
ATOM      1  N   UNL     1       2.346   7.332  18.913  0.00  0.00    +0.000 N 
ATOM      2  C   UNL     1       1.844   8.565  18.527  0.00  0.00    +0.000 C 
ATOM      3  O   UNL     1       1.952   9.049  17.403  0.00  0.00    +0.000 OA
ATOM      4  H   UNL     1       1.865   6.825  19.648  0.00  0.00    +0.000 HD
ENDROOT
BRANCH   1   7
ATOM      5  C   UNL     1       5.206   6.251  16.778  0.00  0.00    +0.000 A 
ATOM      6  C   UNL     1       4.350   7.061  17.536  0.00  0.00    +0.000 A 
ATOM      7  C   UNL     1       3.186   6.539  18.106  0.00  0.00    +0.000 A 
ATOM      8  C   UNL     1       2.857   5.186  17.938  0.00  0.00    +0.000 A 
ATOM      9  C   UNL     1       3.683   4.387  17.149  0.00  0.00    +0.000 A 
ATOM     10  C   UNL     1       4.862   4.907  16.589  0.00  0.00    +0.000 A 
ATOM     11 CL   UNL     1       5.860   3.770  15.753  0.00  0.00    +0.000 Cl
BRANCH   5  13
ATOM     12  C   UNL     1       7.381   6.965  17.396  0.00  0.00    +0.000 C 
ATOM     13  O   UNL     1       6.364   6.877  16.408  0.00  0.00    +0.000 OA
ENDBRANCH   5  13
BRANCH   8  14
ATOM     14  O   UNL     1       1.699   4.770  18.550  0.00  0.00    +0.000 OA
ATOM     15  C   UNL     1       1.820   3.712  19.497  0.00  0.00    +0.000 C 
ENDBRANCH   8  14
ENDBRANCH   1   7
BRANCH   2  16
ATOM     16  C   UNL     1       1.049   9.237  19.641  0.00  0.00    +0.000 C 
BRANCH  16  17
ATOM     17  O   UNL     1       0.732  10.582  19.352  0.00  0.00    +0.000 OA
BRANCH  17  18
ATOM     18  C   UNL     1      -0.567  11.008  19.436  0.00  0.00    +0.000 A 
ATOM     19  C   UNL     1      -1.602  10.805  18.495  0.00  0.00    +0.000 A 
ATOM     20  C   UNL     1      -1.529  10.057  17.193  0.00  0.00    +0.000 C 
ATOM     21  C   UNL     1      -2.843  11.445  18.722  0.00  0.00    +0.000 A 
ATOM     22  C   UNL     1      -3.104  12.243  19.840  0.00  0.00    +0.000 A 
ATOM     23  C   UNL     1      -4.448  12.878  20.029  0.00  0.00    +0.000 C 
ATOM     24  C   UNL     1      -2.095  12.417  20.781  0.00  0.00    +0.000 A 
ATOM     25  C   UNL     1      -0.854  11.805  20.569  0.00  0.00    +0.000 A 
BRANCH  25  26
ATOM     26  N   UNL     1       0.148  11.992  21.612  0.00  0.00    +0.000 N 
ATOM     27  O   UNL     1       0.121  11.213  22.574  0.00  0.00    +0.000 OA
ATOM     28  O   UNL     1       0.893  12.978  21.505  0.00  0.00    +0.000 OA
ENDBRANCH  25  26
ENDBRANCH  17  18
ENDBRANCH  16  17
ENDBRANCH   2  16
TORSDOF 7
ENDMDL
MODEL 2
REMARK VINA RESULT:      -7.0      1.808      2.401
REMARK  Name = 
REMARK  11 active torsions:
REMARK  status: ('A' for Active; 'I' for Inactive)
REMARK    1  A    between atoms: C_1  and  O_2
REMARK    2  A    between atoms: O_2  and  C_3
REMARK    3  A    between atoms: C_5  and  N_6
REMARK    4  A    between atoms: C_7  and  C_9
REMARK    5  A    between atoms: C_9  and  O_10
REMARK    6  A    between atoms: O_10  and  C_11
REMARK    7  A    between atoms: C_12  and  C_13
REMARK    8  A    between atoms: C_15  and  C_16
REMARK    9  A    between atoms: C_18  and  N_19
REMARK   10  A    between atoms: C_22  and  O_23
REMARK   11  A    between atoms: O_23  and  C_24
REMARK                            x       y       z     vdW  Elec       q    Type
REMARK                         _______ _______ _______ _____ _____    ______ ____
ROOT
ATOM      1  N   UNL     1       2.724   6.539  18.493  0.00  0.00    +0.000 N 
ATOM      2  C   UNL     1       2.566   6.203  19.828  0.00  0.00    +0.000 C 
ATOM      3  O   UNL     1       3.314   5.464  20.462  0.00  0.00    +0.000 OA
ATOM      4  H   UNL     1       2.379   7.440  18.178  0.00  0.00    +0.000 HD
ENDROOT
BRANCH   1   7
ATOM      5  C   UNL     1       5.835   5.995  16.509  0.00  0.00    +0.000 A 
ATOM      6  C   UNL     1       4.866   6.611  17.312  0.00  0.00    +0.000 A 
ATOM      7  C   UNL     1       3.681   5.948  17.643  0.00  0.00    +0.000 A 
ATOM      8  C   UNL     1       3.443   4.645  17.183  0.00  0.00    +0.000 A 
ATOM      9  C   UNL     1       4.385   4.045  16.349  0.00  0.00    +0.000 A 
ATOM     10  C   UNL     1       5.584   4.704  16.029  0.00  0.00    +0.000 A 
ATOM     11 CL   UNL     1       6.719   3.788  15.102  0.00  0.00    +0.000 Cl
BRANCH   5  13
ATOM     12  C   UNL     1       7.477   7.329  17.579  0.00  0.00    +0.000 C 
ATOM     13  O   UNL     1       6.988   6.720  16.392  0.00  0.00    +0.000 OA
ENDBRANCH   5  13
BRANCH   8  14
ATOM     14  O   UNL     1       2.255   4.078  17.577  0.00  0.00    +0.000 OA
ATOM     15  C   UNL     1       2.334   2.811  18.224  0.00  0.00    +0.000 C 
ENDBRANCH   8  14
ENDBRANCH   1   7
BRANCH   2  16
ATOM     16  C   UNL     1       1.389   6.932  20.468  0.00  0.00    +0.000 C 
BRANCH  16  17
ATOM     17  O   UNL     1       1.692   8.268  20.808  0.00  0.00    +0.000 OA
BRANCH  17  18
ATOM     18  C   UNL     1       0.923   9.287  20.314  0.00  0.00    +0.000 A 
ATOM     19  C   UNL     1       0.965   9.845  19.016  0.00  0.00    +0.000 A 
ATOM     20  C   UNL     1       1.844   9.438  17.866  0.00  0.00    +0.000 C 
ATOM     21  C   UNL     1       0.167  10.983  18.754  0.00  0.00    +0.000 A 
ATOM     22  C   UNL     1      -0.678  11.565  19.704  0.00  0.00    +0.000 A 
ATOM     23  C   UNL     1      -1.510  12.762  19.356  0.00  0.00    +0.000 C 
ATOM     24  C   UNL     1      -0.741  10.998  20.972  0.00  0.00    +0.000 A 
ATOM     25  C   UNL     1       0.052   9.880  21.257  0.00  0.00    +0.000 A 
BRANCH  25  26
ATOM     26  N   UNL     1      -0.091   9.307  22.591  0.00  0.00    +0.000 N 
ATOM     27  O   UNL     1       0.648   9.748  23.482  0.00  0.00    +0.000 OA
ATOM     28  O   UNL     1      -0.874   8.352  22.712  0.00  0.00    +0.000 OA
ENDBRANCH  25  26
ENDBRANCH  17  18
ENDBRANCH  16  17
ENDBRANCH   2  16
TORSDOF 7
ENDMDL
MODEL 3
REMARK VINA RESULT:      -6.9      1.744      2.725
REMARK  Name = 
REMARK  11 active torsions:
REMARK  status: ('A' for Active; 'I' for Inactive)
REMARK    1  A    between atoms: C_1  and  O_2
REMARK    2  A    between atoms: O_2  and  C_3
REMARK    3  A    between atoms: C_5  and  N_6
REMARK    4  A    between atoms: C_7  and  C_9
REMARK    5  A    between atoms: C_9  and  O_10
REMARK    6  A    between atoms: O_10  and  C_11
REMARK    7  A    between atoms: C_12  and  C_13
REMARK    8  A    between atoms: C_15  and  C_16
REMARK    9  A    between atoms: C_18  and  N_19
REMARK   10  A    between atoms: C_22  and  O_23
REMARK   11  A    between atoms: O_23  and  C_24
REMARK                            x       y       z     vdW  Elec       q    Type
REMARK                         _______ _______ _______ _____ _____    ______ ____
ROOT
ATOM      1  N   UNL     1       2.510   6.878  18.724  0.00  0.00    +0.000 N 
ATOM      2  C   UNL     1       2.286   6.560  20.054  0.00  0.00    +0.000 C 
ATOM      3  O   UNL     1       2.901   5.706  20.687  0.00  0.00    +0.000 OA
ATOM      4  H   UNL     1       2.315   7.825  18.416  0.00  0.00    +0.000 HD
ENDROOT
BRANCH   1   7
ATOM      5  C   UNL     1       5.454   5.938  16.638  0.00  0.00    +0.000 A 
ATOM      6  C   UNL     1       4.582   6.689  17.437  0.00  0.00    +0.000 A 
ATOM      7  C   UNL     1       3.370   6.151  17.877  0.00  0.00    +0.000 A 
ATOM      8  C   UNL     1       3.007   4.840  17.533  0.00  0.00    +0.000 A 
ATOM      9  C   UNL     1       3.852   4.106  16.702  0.00  0.00    +0.000 A 
ATOM     10  C   UNL     1       5.079   4.640  16.273  0.00  0.00    +0.000 A 
ATOM     11 CL   UNL     1       6.086   3.569  15.365  0.00  0.00    +0.000 Cl
BRANCH   5  13
ATOM     12  C   UNL     1       7.430   6.878  17.553  0.00  0.00    +0.000 C 
ATOM     13  O   UNL     1       6.652   6.557  16.408  0.00  0.00    +0.000 OA
ENDBRANCH   5  13
BRANCH   8  14
ATOM     14  O   UNL     1       1.802   4.402  18.028  0.00  0.00    +0.000 OA
ATOM     15  C   UNL     1       1.712   3.021  18.364  0.00  0.00    +0.000 C 
ENDBRANCH   8  14
ENDBRANCH   1   7
BRANCH   2  16
ATOM     16  C   UNL     1       1.233   7.461  20.691  0.00  0.00    +0.000 C 
BRANCH  16  17
ATOM     17  O   UNL     1       1.644   8.808  20.777  0.00  0.00    +0.000 OA
BRANCH  17  18
ATOM     18  C   UNL     1       0.707   9.802  20.867  0.00  0.00    +0.000 A 
ATOM     19  C   UNL     1      -0.071  10.151  21.996  0.00  0.00    +0.000 A 
ATOM     20  C   UNL     1      -0.037   9.531  23.365  0.00  0.00    +0.000 C 
ATOM     21  C   UNL     1      -1.077  11.132  21.834  0.00  0.00    +0.000 A 
ATOM     22  C   UNL     1      -1.322  11.790  20.624  0.00  0.00    +0.000 A 
ATOM     23  C   UNL     1      -2.393  12.833  20.525  0.00  0.00    +0.000 C 
ATOM     24  C   UNL     1      -0.536  11.468  19.523  0.00  0.00    +0.000 A 
ATOM     25  C   UNL     1       0.456  10.489  19.657  0.00  0.00    +0.000 A 
BRANCH  25  26
ATOM     26  N   UNL     1       1.272  10.226  18.478  0.00  0.00    +0.000 N 
ATOM     27  O   UNL     1       2.188  11.023  18.231  0.00  0.00    +0.000 OA
ATOM     28  O   UNL     1       0.927   9.279  17.755  0.00  0.00    +0.000 OA
ENDBRANCH  25  26
ENDBRANCH  17  18
ENDBRANCH  16  17
ENDBRANCH   2  16
TORSDOF 7
ENDMDL
MODEL 4
REMARK VINA RESULT:      -6.9      1.658      2.454
REMARK  Name = 
REMARK  11 active torsions:
REMARK  status: ('A' for Active; 'I' for Inactive)
REMARK    1  A    between atoms: C_1  and  O_2
REMARK    2  A    between atoms: O_2  and  C_3
REMARK    3  A    between atoms: C_5  and  N_6
REMARK    4  A    between atoms: C_7  and  C_9
REMARK    5  A    between atoms: C_9  and  O_10
REMARK    6  A    between atoms: O_10  and  C_11
REMARK    7  A    between atoms: C_12  and  C_13
REMARK    8  A    between atoms: C_15  and  C_16
REMARK    9  A    between atoms: C_18  and  N_19
REMARK   10  A    between atoms: C_22  and  O_23
REMARK   11  A    between atoms: O_23  and  C_24
REMARK                            x       y       z     vdW  Elec       q    Type
REMARK                         _______ _______ _______ _____ _____    ______ ____
ROOT
ATOM      1  N   UNL     1       2.708   7.027  19.376  0.00  0.00    +0.000 N 
ATOM      2  C   UNL     1       1.963   8.172  19.148  0.00  0.00    +0.000 C 
ATOM      3  O   UNL     1       1.714   8.642  18.040  0.00  0.00    +0.000 OA
ATOM      4  H   UNL     1       2.503   6.476  20.203  0.00  0.00    +0.000 HD
ENDROOT
BRANCH   1   7
ATOM      5  C   UNL     1       5.265   6.175  16.799  0.00  0.00    +0.000 A 
ATOM      6  C   UNL     1       4.540   6.891  17.760  0.00  0.00    +0.000 A 
ATOM      7  C   UNL     1       3.413   6.335  18.371  0.00  0.00    +0.000 A 
ATOM      8  C   UNL     1       2.991   5.040  18.038  0.00  0.00    +0.000 A 
ATOM      9  C   UNL     1       3.684   4.341  17.051  0.00  0.00    +0.000 A 
ATOM     10  C   UNL     1       4.827   4.893  16.449  0.00  0.00    +0.000 A 
ATOM     11 CL   UNL     1       5.666   3.860  15.346  0.00  0.00    +0.000 Cl
BRANCH   5  13
ATOM     12  C   UNL     1       7.328   7.161  17.427  0.00  0.00    +0.000 C 
ATOM     13  O   UNL     1       6.412   6.803  16.401  0.00  0.00    +0.000 OA
ENDBRANCH   5  13
BRANCH   8  14
ATOM     14  O   UNL     1       1.881   4.581  18.706  0.00  0.00    +0.000 OA
ATOM     15  C   UNL     1       1.401   3.291  18.340  0.00  0.00    +0.000 C 
ENDBRANCH   8  14
ENDBRANCH   1   7
BRANCH   2  16
ATOM     16  C   UNL     1       1.396   8.757  20.437  0.00  0.00    +0.000 C 
BRANCH  16  17
ATOM     17  O   UNL     1       0.048   9.157  20.310  0.00  0.00    +0.000 OA
BRANCH  17  18
ATOM     18  C   UNL     1      -0.407  10.248  21.003  0.00  0.00    +0.000 A 
ATOM     19  C   UNL     1      -0.522  10.389  22.405  0.00  0.00    +0.000 A 
ATOM     20  C   UNL     1      -0.155   9.388  23.465  0.00  0.00    +0.000 C 
ATOM     21  C   UNL     1      -1.139  11.559  22.907  0.00  0.00    +0.000 A 
ATOM     22  C   UNL     1      -1.614  12.589  22.090  0.00  0.00    +0.000 A 
ATOM     23  C   UNL     1      -2.243  13.811  22.689  0.00  0.00    +0.000 C 
ATOM     24  C   UNL     1      -1.472  12.463  20.713  0.00  0.00    +0.000 A 
ATOM     25  C   UNL     1      -0.878  11.307  20.193  0.00  0.00    +0.000 A 
BRANCH  25  26
ATOM     26  N   UNL     1      -0.721  11.253  18.744  0.00  0.00    +0.000 N 
ATOM     27  O   UNL     1       0.304  11.757  18.264  0.00  0.00    +0.000 OA
ATOM     28  O   UNL     1      -1.671  10.793  18.093  0.00  0.00    +0.000 OA
ENDBRANCH  25  26
ENDBRANCH  17  18
ENDBRANCH  16  17
ENDBRANCH   2  16
TORSDOF 7
ENDMDL
MODEL 5
REMARK VINA RESULT:      -6.8      3.393      8.454
REMARK  Name = 
REMARK  11 active torsions:
REMARK  status: ('A' for Active; 'I' for Inactive)
REMARK    1  A    between atoms: C_1  and  O_2
REMARK    2  A    between atoms: O_2  and  C_3
REMARK    3  A    between atoms: C_5  and  N_6
REMARK    4  A    between atoms: C_7  and  C_9
REMARK    5  A    between atoms: C_9  and  O_10
REMARK    6  A    between atoms: O_10  and  C_11
REMARK    7  A    between atoms: C_12  and  C_13
REMARK    8  A    between atoms: C_15  and  C_16
REMARK    9  A    between atoms: C_18  and  N_19
REMARK   10  A    between atoms: C_22  and  O_23
REMARK   11  A    between atoms: O_23  and  C_24
REMARK                            x       y       z     vdW  Elec       q    Type
REMARK                         _______ _______ _______ _____ _____    ______ ____
ROOT
ATOM      1  N   UNL     1       2.687   6.783  20.001  0.00  0.00    +0.000 N 
ATOM      2  C   UNL     1       2.236   5.501  20.268  0.00  0.00    +0.000 C 
ATOM      3  O   UNL     1       1.066   5.197  20.488  0.00  0.00    +0.000 OA
ATOM      4  H   UNL     1       3.509   6.893  19.417  0.00  0.00    +0.000 HD
ENDROOT
BRANCH   1   7
ATOM      5  C   UNL     1       0.750   9.628  21.437  0.00  0.00    +0.000 A 
ATOM      6  C   UNL     1       1.506   8.453  21.345  0.00  0.00    +0.000 A 
ATOM      7  C   UNL     1       1.882   7.936  20.102  0.00  0.00    +0.000 A 
ATOM      8  C   UNL     1       1.515   8.593  18.919  0.00  0.00    +0.000 A 
ATOM      9  C   UNL     1       0.726   9.739  19.004  0.00  0.00    +0.000 A 
ATOM     10  C   UNL     1       0.362  10.268  20.254  0.00  0.00    +0.000 A 
ATOM     11 CL   UNL     1      -0.497  11.768  20.212  0.00  0.00    +0.000 Cl
BRANCH   5  13
ATOM     12  C   UNL     1      -0.724   9.964  23.264  0.00  0.00    +0.000 C 
ATOM     13  O   UNL     1       0.584  10.071  22.719  0.00  0.00    +0.000 OA
ENDBRANCH   5  13
BRANCH   8  14
ATOM     14  O   UNL     1       1.947   8.011  17.751  0.00  0.00    +0.000 OA
ATOM     15  C   UNL     1       3.334   8.129  17.451  0.00  0.00    +0.000 C 
ENDBRANCH   8  14
ENDBRANCH   1   7
BRANCH   2  16
ATOM     16  C   UNL     1       3.352   4.467  20.172  0.00  0.00    +0.000 C 
BRANCH  16  17
ATOM     17  O   UNL     1       4.546   4.998  19.638  0.00  0.00    +0.000 OA
BRANCH  17  18
ATOM     18  C   UNL     1       4.860   4.778  18.323  0.00  0.00    +0.000 A 
ATOM     19  C   UNL     1       4.031   4.225  17.321  0.00  0.00    +0.000 A 
ATOM     20  C   UNL     1       2.605   3.766  17.454  0.00  0.00    +0.000 C 
ATOM     21  C   UNL     1       4.600   3.967  16.052  0.00  0.00    +0.000 A 
ATOM     22  C   UNL     1       5.931   4.257  15.734  0.00  0.00    +0.000 A 
ATOM     23  C   UNL     1       6.468   3.974  14.363  0.00  0.00    +0.000 C 
ATOM     24  C   UNL     1       6.737   4.830  16.710  0.00  0.00    +0.000 A 
ATOM     25  C   UNL     1       6.198   5.079  17.978  0.00  0.00    +0.000 A 
BRANCH  25  26
ATOM     26  N   UNL     1       7.082   5.719  18.945  0.00  0.00    +0.000 N 
ATOM     27  O   UNL     1       7.646   6.765  18.596  0.00  0.00    +0.000 OA
ATOM     28  O   UNL     1       7.279   5.116  20.011  0.00  0.00    +0.000 OA
ENDBRANCH  25  26
ENDBRANCH  17  18
ENDBRANCH  16  17
ENDBRANCH   2  16
TORSDOF 7
ENDMDL
MODEL 6
REMARK VINA RESULT:      -6.8      1.782      2.112
REMARK  Name = 
REMARK  11 active torsions:
REMARK  status: ('A' for Active; 'I' for Inactive)
REMARK    1  A    between atoms: C_1  and  O_2
REMARK    2  A    between atoms: O_2  and  C_3
REMARK    3  A    between atoms: C_5  and  N_6
REMARK    4  A    between atoms: C_7  and  C_9
REMARK    5  A    between atoms: C_9  and  O_10
REMARK    6  A    between atoms: O_10  and  C_11
REMARK    7  A    between atoms: C_12  and  C_13
REMARK    8  A    between atoms: C_15  and  C_16
REMARK    9  A    between atoms: C_18  and  N_19
REMARK   10  A    between atoms: C_22  and  O_23
REMARK   11  A    between atoms: O_23  and  C_24
REMARK                            x       y       z     vdW  Elec       q    Type
REMARK                         _______ _______ _______ _____ _____    ______ ____
ROOT
ATOM      1  N   UNL     1       3.383   6.311  19.122  0.00  0.00    +0.000 N 
ATOM      2  C   UNL     1       2.366   7.240  18.971  0.00  0.00    +0.000 C 
ATOM      3  O   UNL     1       1.971   7.683  17.896  0.00  0.00    +0.000 OA
ATOM      4  H   UNL     1       3.351   5.688  19.922  0.00  0.00    +0.000 HD
ENDROOT
BRANCH   1   7
ATOM      5  C   UNL     1       6.223   6.060  16.719  0.00  0.00    +0.000 A 
ATOM      6  C   UNL     1       5.386   6.537  17.736  0.00  0.00    +0.000 A 
ATOM      7  C   UNL     1       4.205   5.868  18.066  0.00  0.00    +0.000 A 
ATOM      8  C   UNL     1       3.839   4.695  17.390  0.00  0.00    +0.000 A 
ATOM      9  C   UNL     1       4.647   4.241  16.349  0.00  0.00    +0.000 A 
ATOM     10  C   UNL     1       5.844   4.904  16.027  0.00  0.00    +0.000 A 
ATOM     11 CL   UNL     1       6.814   4.151  14.811  0.00  0.00    +0.000 Cl
BRANCH   5  13
ATOM     12  C   UNL     1       7.673   7.698  17.634  0.00  0.00    +0.000 C 
ATOM     13  O   UNL     1       7.400   6.748  16.613  0.00  0.00    +0.000 OA
ENDBRANCH   5  13
BRANCH   8  14
ATOM     14  O   UNL     1       2.667   4.106  17.801  0.00  0.00    +0.000 OA
ATOM     15  C   UNL     1       2.710   2.706  18.059  0.00  0.00    +0.000 C 
ENDBRANCH   8  14
ENDBRANCH   1   7
BRANCH   2  16
ATOM     16  C   UNL     1       1.714   7.600  20.301  0.00  0.00    +0.000 C 
BRANCH  16  17
ATOM     17  O   UNL     1       1.948   8.940  20.681  0.00  0.00    +0.000 OA
BRANCH  17  18
ATOM     18  C   UNL     1       1.036   9.909  20.357  0.00  0.00    +0.000 A 
ATOM     19  C   UNL     1       1.031  10.737  19.211  0.00  0.00    +0.000 A 
ATOM     20  C   UNL     1       2.010  10.737  18.070  0.00  0.00    +0.000 C 
ATOM     21  C   UNL     1       0.062  11.765  19.137  0.00  0.00    +0.000 A 
ATOM     22  C   UNL     1      -0.904  11.984  20.124  0.00  0.00    +0.000 A 
ATOM     23  C   UNL     1      -1.915  13.081  19.974  0.00  0.00    +0.000 C 
ATOM     24  C   UNL     1      -0.918  11.149  21.235  0.00  0.00    +0.000 A 
ATOM     25  C   UNL     1       0.042  10.135  21.337  0.00  0.00    +0.000 A 
BRANCH  25  26
ATOM     26  N   UNL     1      -0.051   9.268  22.506  0.00  0.00    +0.000 N 
ATOM     27  O   UNL     1      -0.779   8.269  22.417  0.00  0.00    +0.000 OA
ATOM     28  O   UNL     1       0.529   9.647  23.534  0.00  0.00    +0.000 OA
ENDBRANCH  25  26
ENDBRANCH  17  18
ENDBRANCH  16  17
ENDBRANCH   2  16
TORSDOF 7
ENDMDL
MODEL 7
REMARK VINA RESULT:      -6.7      2.167      3.593
REMARK  Name = 
REMARK  11 active torsions:
REMARK  status: ('A' for Active; 'I' for Inactive)
REMARK    1  A    between atoms: C_1  and  O_2
REMARK    2  A    between atoms: O_2  and  C_3
REMARK    3  A    between atoms: C_5  and  N_6
REMARK    4  A    between atoms: C_7  and  C_9
REMARK    5  A    between atoms: C_9  and  O_10
REMARK    6  A    between atoms: O_10  and  C_11
REMARK    7  A    between atoms: C_12  and  C_13
REMARK    8  A    between atoms: C_15  and  C_16
REMARK    9  A    between atoms: C_18  and  N_19
REMARK   10  A    between atoms: C_22  and  O_23
REMARK   11  A    between atoms: O_23  and  C_24
REMARK                            x       y       z     vdW  Elec       q    Type
REMARK                         _______ _______ _______ _____ _____    ______ ____
ROOT
ATOM      1  N   UNL     1       1.998   7.468  18.853  0.00  0.00    +0.000 N 
ATOM      2  C   UNL     1       1.642   8.134  20.014  0.00  0.00    +0.000 C 
ATOM      3  O   UNL     1       1.779   7.691  21.152  0.00  0.00    +0.000 OA
ATOM      4  H   UNL     1       2.273   8.019  18.047  0.00  0.00    +0.000 HD
ENDROOT
BRANCH   1   7
ATOM      5  C   UNL     1       2.126   3.785  19.422  0.00  0.00    +0.000 A 
ATOM      6  C   UNL     1       1.728   5.126  19.506  0.00  0.00    +0.000 A 
ATOM      7  C   UNL     1       2.422   6.124  18.817  0.00  0.00    +0.000 A 
ATOM      8  C   UNL     1       3.529   5.800  18.019  0.00  0.00    +0.000 A 
ATOM      9  C   UNL     1       3.954   4.474  17.968  0.00  0.00    +0.000 A 
ATOM     10  C   UNL     1       3.247   3.466  18.646  0.00  0.00    +0.000 A 
ATOM     11 CL   UNL     1       3.803   1.852  18.381  0.00  0.00    +0.000 Cl
BRANCH   5  13
ATOM     12  C   UNL     1       1.478   2.698  21.427  0.00  0.00    +0.000 C 
ATOM     13  O   UNL     1       1.266   2.921  20.040  0.00  0.00    +0.000 OA
ENDBRANCH   5  13
BRANCH   8  14
ATOM     14  O   UNL     1       4.131   6.853  17.374  0.00  0.00    +0.000 OA
ATOM     15  C   UNL     1       5.019   6.528  16.307  0.00  0.00    +0.000 C 
ENDBRANCH   8  14
ENDBRANCH   1   7
BRANCH   2  16
ATOM     16  C   UNL     1       1.131   9.544  19.735  0.00  0.00    +0.000 C 
BRANCH  16  17
ATOM     17  O   UNL     1       1.161  10.373  20.877  0.00  0.00    +0.000 OA
BRANCH  17  18
ATOM     18  C   UNL     1       0.093  11.183  21.159  0.00  0.00    +0.000 A 
ATOM     19  C   UNL     1      -0.298  12.359  20.478  0.00  0.00    +0.000 A 
ATOM     20  C   UNL     1       0.349  12.986  19.275  0.00  0.00    +0.000 C 
ATOM     21  C   UNL     1      -1.364  13.117  21.018  0.00  0.00    +0.000 A 
ATOM     22  C   UNL     1      -2.063  12.748  22.171  0.00  0.00    +0.000 A 
ATOM     23  C   UNL     1      -3.195  13.589  22.680  0.00  0.00    +0.000 C 
ATOM     24  C   UNL     1      -1.698  11.576  22.822  0.00  0.00    +0.000 A 
ATOM     25  C   UNL     1      -0.636  10.818  22.314  0.00  0.00    +0.000 A 
BRANCH  25  26
ATOM     26  N   UNL     1      -0.328   9.578  23.018  0.00  0.00    +0.000 N 
ATOM     27  O   UNL     1       0.515   9.632  23.924  0.00  0.00    +0.000 OA
ATOM     28  O   UNL     1      -0.863   8.543  22.593  0.00  0.00    +0.000 OA
ENDBRANCH  25  26
ENDBRANCH  17  18
ENDBRANCH  16  17
ENDBRANCH   2  16
TORSDOF 7
ENDMDL
MODEL 8
REMARK VINA RESULT:      -6.7      1.359      1.727
REMARK  Name = 
REMARK  11 active torsions:
REMARK  status: ('A' for Active; 'I' for Inactive)
REMARK    1  A    between atoms: C_1  and  O_2
REMARK    2  A    between atoms: O_2  and  C_3
REMARK    3  A    between atoms: C_5  and  N_6
REMARK    4  A    between atoms: C_7  and  C_9
REMARK    5  A    between atoms: C_9  and  O_10
REMARK    6  A    between atoms: O_10  and  C_11
REMARK    7  A    between atoms: C_12  and  C_13
REMARK    8  A    between atoms: C_15  and  C_16
REMARK    9  A    between atoms: C_18  and  N_19
REMARK   10  A    between atoms: C_22  and  O_23
REMARK   11  A    between atoms: O_23  and  C_24
REMARK                            x       y       z     vdW  Elec       q    Type
REMARK                         _______ _______ _______ _____ _____    ______ ____
ROOT
ATOM      1  N   UNL     1       2.505   7.731  19.106  0.00  0.00    +0.000 N 
ATOM      2  C   UNL     1       1.894   8.869  18.605  0.00  0.00    +0.000 C 
ATOM      3  O   UNL     1       1.741   9.121  17.413  0.00  0.00    +0.000 OA
ATOM      4  H   UNL     1       2.211   7.385  20.013  0.00  0.00    +0.000 HD
ENDROOT
BRANCH   1   7
ATOM      5  C   UNL     1       4.990   6.170  16.804  0.00  0.00    +0.000 A 
ATOM      6  C   UNL     1       4.301   7.131  17.555  0.00  0.00    +0.000 A 
ATOM      7  C   UNL     1       3.175   6.783  18.306  0.00  0.00    +0.000 A 
ATOM      8  C   UNL     1       2.718   5.457  18.329  0.00  0.00    +0.000 A 
ATOM      9  C   UNL     1       3.375   4.507  17.549  0.00  0.00    +0.000 A 
ATOM     10  C   UNL     1       4.517   4.853  16.807  0.00  0.00    +0.000 A 
ATOM     11 CL   UNL     1       5.310   3.547  16.000  0.00  0.00    +0.000 Cl
BRANCH   5  13
ATOM     12  C   UNL     1       7.262   6.779  17.104  0.00  0.00    +0.000 C 
ATOM     13  O   UNL     1       6.142   6.643  16.240  0.00  0.00    +0.000 OA
ENDBRANCH   5  13
BRANCH   8  14
ATOM     14  O   UNL     1       1.612   5.218  19.109  0.00  0.00    +0.000 OA
ATOM     15  C   UNL     1       1.793   4.357  20.229  0.00  0.00    +0.000 C 
ENDBRANCH   8  14
ENDBRANCH   1   7
BRANCH   2  16
ATOM     16  C   UNL     1       1.339   9.758  19.713  0.00  0.00    +0.000 C 
BRANCH  16  17
ATOM     17  O   UNL     1      -0.059   9.635  19.866  0.00  0.00    +0.000 OA
BRANCH  17  18
ATOM     18  C   UNL     1      -0.775  10.654  20.435  0.00  0.00    +0.000 A 
ATOM     19  C   UNL     1      -1.392  11.743  19.778  0.00  0.00    +0.000 A 
ATOM     20  C   UNL     1      -1.426  12.030  18.303  0.00  0.00    +0.000 C 
ATOM     21  C   UNL     1      -1.976  12.757  20.574  0.00  0.00    +0.000 A 
ATOM     22  C   UNL     1      -1.996  12.720  21.972  0.00  0.00    +0.000 A 
ATOM     23  C   UNL     1      -2.648  13.820  22.755  0.00  0.00    +0.000 C 
ATOM     24  C   UNL     1      -1.417  11.633  22.616  0.00  0.00    +0.000 A 
ATOM     25  C   UNL     1      -0.819  10.626  21.848  0.00  0.00    +0.000 A 
BRANCH  25  26
ATOM     26  N   UNL     1      -0.266   9.493  22.581  0.00  0.00    +0.000 N 
ATOM     27  O   UNL     1       0.751   9.696  23.258  0.00  0.00    +0.000 OA
ATOM     28  O   UNL     1      -0.799   8.389  22.395  0.00  0.00    +0.000 OA
ENDBRANCH  25  26
ENDBRANCH  17  18
ENDBRANCH  16  17
ENDBRANCH   2  16
TORSDOF 7
ENDMDL
MODEL 9
REMARK VINA RESULT:      -6.6      1.736      2.489
REMARK  Name = 
REMARK  11 active torsions:
REMARK  status: ('A' for Active; 'I' for Inactive)
REMARK    1  A    between atoms: C_1  and  O_2
REMARK    2  A    between atoms: O_2  and  C_3
REMARK    3  A    between atoms: C_5  and  N_6
REMARK    4  A    between atoms: C_7  and  C_9
REMARK    5  A    between atoms: C_9  and  O_10
REMARK    6  A    between atoms: O_10  and  C_11
REMARK    7  A    between atoms: C_12  and  C_13
REMARK    8  A    between atoms: C_15  and  C_16
REMARK    9  A    between atoms: C_18  and  N_19
REMARK   10  A    between atoms: C_22  and  O_23
REMARK   11  A    between atoms: O_23  and  C_24
REMARK                            x       y       z     vdW  Elec       q    Type
REMARK                         _______ _______ _______ _____ _____    ______ ____
ROOT
ATOM      1  N   UNL     1       2.313   7.941  19.295  0.00  0.00    +0.000 N 
ATOM      2  C   UNL     1       1.570   8.968  18.737  0.00  0.00    +0.000 C 
ATOM      3  O   UNL     1       1.243   9.039  17.555  0.00  0.00    +0.000 OA
ATOM      4  H   UNL     1       2.165   7.715  20.273  0.00  0.00    +0.000 HD
ENDROOT
BRANCH   1   7
ATOM      5  C   UNL     1       4.605   6.169  16.946  0.00  0.00    +0.000 A 
ATOM      6  C   UNL     1       3.964   7.198  17.649  0.00  0.00    +0.000 A 
ATOM      7  C   UNL     1       2.929   6.919  18.545  0.00  0.00    +0.000 A 
ATOM      8  C   UNL     1       2.517   5.596  18.765  0.00  0.00    +0.000 A 
ATOM      9  C   UNL     1       3.122   4.574  18.035  0.00  0.00    +0.000 A 
ATOM     10  C   UNL     1       4.174   4.853  17.146  0.00  0.00    +0.000 A 
ATOM     11 CL   UNL     1       4.923   3.477  16.417  0.00  0.00    +0.000 Cl
BRANCH   5  13
ATOM     12  C   UNL     1       6.951   6.490  16.843  0.00  0.00    +0.000 C 
ATOM     13  O   UNL     1       5.680   6.594  16.218  0.00  0.00    +0.000 OA
ENDBRANCH   5  13
BRANCH   8  14
ATOM     14  O   UNL     1       1.501   5.428  19.675  0.00  0.00    +0.000 OA
ATOM     15  C   UNL     1       1.279   4.104  20.150  0.00  0.00    +0.000 C 
ENDBRANCH   8  14
ENDBRANCH   1   7
BRANCH   2  16
ATOM     16  C   UNL     1       1.112   9.980  19.781  0.00  0.00    +0.000 C 
BRANCH  16  17
ATOM     17  O   UNL     1      -0.281   9.943  20.006  0.00  0.00    +0.000 OA
BRANCH  17  18
ATOM     18  C   UNL     1      -0.842  10.771  20.942  0.00  0.00    +0.000 A 
ATOM     19  C   UNL     1      -0.794  10.638  22.348  0.00  0.00    +0.000 A 
ATOM     20  C   UNL     1      -0.101   9.571  23.149  0.00  0.00    +0.000 C 
ATOM     21  C   UNL     1      -1.554  11.540  23.129  0.00  0.00    +0.000 A 
ATOM     22  C   UNL     1      -2.325  12.570  22.581  0.00  0.00    +0.000 A 
ATOM     23  C   UNL     1      -3.094  13.503  23.467  0.00  0.00    +0.000 C 
ATOM     24  C   UNL     1      -2.347  12.719  21.199  0.00  0.00    +0.000 A 
ATOM     25  C   UNL     1      -1.614  11.828  20.406  0.00  0.00    +0.000 A 
BRANCH  25  26
ATOM     26  N   UNL     1      -1.645  12.063  18.967  0.00  0.00    +0.000 N 
ATOM     27  O   UNL     1      -0.769  12.797  18.491  0.00  0.00    +0.000 OA
ATOM     28  O   UNL     1      -2.605  11.587  18.341  0.00  0.00    +0.000 OA
ENDBRANCH  25  26
ENDBRANCH  17  18
ENDBRANCH  16  17
ENDBRANCH   2  16
TORSDOF 7
ENDMDL
