MODEL 1
REMARK VINA RESULT:      -8.2      0.000      0.000
REMARK  Name = 
REMARK  6 active torsions:
REMARK  status: ('A' for Active; 'I' for Inactive)
REMARK    1  A    between atoms: C_4  and  C_5
REMARK    2  A    between atoms: C_5  and  N_6
REMARK    3  A    between atoms: N_6  and  C_7
REMARK    4  A    between atoms: C_7  and  C_8
REMARK    5  A    between atoms: N_10  and  C_11
REMARK    6  A    between atoms: C_11  and  C_12
REMARK                            x       y       z     vdW  Elec       q    Type
REMARK                         _______ _______ _______ _____ _____    ______ ____
ROOT
ATOM      1  C   UNL     1       3.449   3.821  17.791  0.00  0.00    +0.000 A 
ATOM      2  C   UNL     1       2.796   5.016  17.515  0.00  0.00    +0.000 A 
ATOM      3  N   UNL     1       2.514   5.562  18.739  0.00  0.00    +0.000 N 
ATOM      4  C   UNL     1       2.261   4.530  19.612  0.00  0.00    +0.000 A 
ATOM      5  C   UNL     1       1.564   4.537  20.826  0.00  0.00    +0.000 A 
ATOM      6  C   UNL     1       1.731   3.440  21.662  0.00  0.00    +0.000 A 
ATOM      7  C   UNL     1       2.618   2.424  21.308  0.00  0.00    +0.000 A 
ATOM      8  C   UNL     1       3.292   2.429  20.066  0.00  0.00    +0.000 A 
ATOM      9  C   UNL     1       3.057   3.474  19.146  0.00  0.00    +0.000 A 
ENDROOT
BRANCH   1  10
ATOM     10  C   UNL     1       4.428   3.223  16.824  0.00  0.00    +0.000 C 
BRANCH  10  11
ATOM     11  N   UNL     1       5.005   4.136  15.838  0.00  0.00    +0.000 NA
ATOM     12  H   UNL     1       4.762   3.759  14.921  0.00  0.00    +0.000 HD
BRANCH  11  13
ATOM     13  C   UNL     1       6.473   4.222  15.870  0.00  0.00    +0.000 C 
BRANCH  13  17
ATOM     14  C   UNL     1       8.100   7.059  18.741  0.00  0.00    +0.000 A 
ATOM     15  C   UNL     1       8.051   5.705  19.060  0.00  0.00    +0.000 A 
ATOM     16  C   UNL     1       7.511   4.786  18.153  0.00  0.00    +0.000 A 
ATOM     17  C   UNL     1       6.995   5.204  16.915  0.00  0.00    +0.000 A 
ATOM     18  C   UNL     1       7.050   6.576  16.615  0.00  0.00    +0.000 A 
ATOM     19  C   UNL     1       7.595   7.494  17.519  0.00  0.00    +0.000 A 
ENDBRANCH  13  17
ENDBRANCH  11  13
ENDBRANCH  10  11
ENDBRANCH   1  10
BRANCH   3  20
ATOM     20  C   UNL     1       3.102   6.824  19.201  0.00  0.00    +0.000 C 
BRANCH  20  21
ATOM     21  C   UNL     1       2.096   7.930  19.213  0.00  0.00    +0.000 A 
ATOM     22  C   UNL     1       1.782   8.614  18.033  0.00  0.00    +0.000 A 
ATOM     23  C   UNL     1       0.903   9.693  18.069  0.00  0.00    +0.000 A 
ATOM     24  C   UNL     1       0.332  10.081  19.286  0.00  0.00    +0.000 A 
ATOM     25  C   UNL     1       0.619   9.388  20.453  0.00  0.00    +0.000 A 
ATOM     26  C   UNL     1       1.485   8.299  20.415  0.00  0.00    +0.000 A 
ENDBRANCH  20  21
ENDBRANCH   3  20
TORSDOF 6
ENDMDL
MODEL 2
REMARK VINA RESULT:      -8.2      1.868      3.254
REMARK  Name = 
REMARK  6 active torsions:
REMARK  status: ('A' for Active; 'I' for Inactive)
REMARK    1  A    between atoms: C_4  and  C_5
REMARK    2  A    between atoms: C_5  and  N_6
REMARK    3  A    between atoms: N_6  and  C_7
REMARK    4  A    between atoms: C_7  and  C_8
REMARK    5  A    between atoms: N_10  and  C_11
REMARK    6  A    between atoms: C_11  and  C_12
REMARK                            x       y       z     vdW  Elec       q    Type
REMARK                         _______ _______ _______ _____ _____    ______ ____
ROOT
ATOM      1  C   UNL     1       5.192   4.802  18.002  0.00  0.00    +0.000 A 
ATOM      2  C   UNL     1       4.575   6.044  17.927  0.00  0.00    +0.000 A 
ATOM      3  N   UNL     1       3.332   5.861  18.472  0.00  0.00    +0.000 N 
ATOM      4  C   UNL     1       2.921   4.586  18.165  0.00  0.00    +0.000 A 
ATOM      5  C   UNL     1       1.630   4.046  18.134  0.00  0.00    +0.000 A 
ATOM      6  C   UNL     1       1.520   2.662  18.109  0.00  0.00    +0.000 A 
ATOM      7  C   UNL     1       2.665   1.870  18.186  0.00  0.00    +0.000 A 
ATOM      8  C   UNL     1       3.959   2.440  18.192  0.00  0.00    +0.000 A 
ATOM      9  C   UNL     1       4.108   3.841  18.105  0.00  0.00    +0.000 A 
ENDROOT
BRANCH   1  10
ATOM     10  C   UNL     1       6.685   4.673  18.086  0.00  0.00    +0.000 C 
BRANCH  10  11
ATOM     11  N   UNL     1       7.381   4.396  16.830  0.00  0.00    +0.000 NA
ATOM     12  H   UNL     1       8.379   4.400  17.048  0.00  0.00    +0.000 HD
BRANCH  11  13
ATOM     13  C   UNL     1       7.187   5.413  15.786  0.00  0.00    +0.000 C 
BRANCH  13  17
ATOM     14  C   UNL     1       6.077   3.559  12.008  0.00  0.00    +0.000 A 
ATOM     15  C   UNL     1       7.268   4.271  12.103  0.00  0.00    +0.000 A 
ATOM     16  C   UNL     1       7.626   4.889  13.308  0.00  0.00    +0.000 A 
ATOM     17  C   UNL     1       6.793   4.820  14.436  0.00  0.00    +0.000 A 
ATOM     18  C   UNL     1       5.591   4.100  14.317  0.00  0.00    +0.000 A 
ATOM     19  C   UNL     1       5.237   3.477  13.115  0.00  0.00    +0.000 A 
ENDBRANCH  13  17
ENDBRANCH  11  13
ENDBRANCH  10  11
ENDBRANCH   1  10
BRANCH   3  20
ATOM     20  C   UNL     1       2.901   6.524  19.708  0.00  0.00    +0.000 C 
BRANCH  20  21
ATOM     21  C   UNL     1       2.081   7.742  19.425  0.00  0.00    +0.000 A 
ATOM     22  C   UNL     1       2.031   8.276  18.132  0.00  0.00    +0.000 A 
ATOM     23  C   UNL     1       1.329   9.455  17.895  0.00  0.00    +0.000 A 
ATOM     24  C   UNL     1       0.668  10.092  18.951  0.00  0.00    +0.000 A 
ATOM     25  C   UNL     1       0.691   9.550  20.228  0.00  0.00    +0.000 A 
ATOM     26  C   UNL     1       1.380   8.363  20.463  0.00  0.00    +0.000 A 
ENDBRANCH  20  21
ENDBRANCH   3  20
TORSDOF 6
ENDMDL
MODEL 3
REMARK VINA RESULT:      -8.0      0.351      1.409
REMARK  Name = 
REMARK  6 active torsions:
REMARK  status: ('A' for Active; 'I' for Inactive)
REMARK    1  A    between atoms: C_4  and  C_5
REMARK    2  A    between atoms: C_5  and  N_6
REMARK    3  A    between atoms: N_6  and  C_7
REMARK    4  A    between atoms: C_7  and  C_8
REMARK    5  A    between atoms: N_10  and  C_11
REMARK    6  A    between atoms: C_11  and  C_12
REMARK                            x       y       z     vdW  Elec       q    Type
REMARK                         _______ _______ _______ _____ _____    ______ ____
ROOT
ATOM      1  C   UNL     1       3.138   3.921  17.718  0.00  0.00    +0.000 A 
ATOM      2  C   UNL     1       2.448   5.118  17.581  0.00  0.00    +0.000 A 
ATOM      3  N   UNL     1       2.364   5.631  18.849  0.00  0.00    +0.000 N 
ATOM      4  C   UNL     1       2.255   4.576  19.723  0.00  0.00    +0.000 A 
ATOM      5  C   UNL     1       1.760   4.548  21.033  0.00  0.00    +0.000 A 
ATOM      6  C   UNL     1       2.059   3.431  21.802  0.00  0.00    +0.000 A 
ATOM      7  C   UNL     1       2.880   2.429  21.285  0.00  0.00    +0.000 A 
ATOM      8  C   UNL     1       3.347   2.469  19.951  0.00  0.00    +0.000 A 
ATOM      9  C   UNL     1       2.967   3.536  19.109  0.00  0.00    +0.000 A 
ENDROOT
BRANCH   1  10
ATOM     10  C   UNL     1       3.950   3.352  16.592  0.00  0.00    +0.000 C 
BRANCH  10  11
ATOM     11  N   UNL     1       5.397   3.302  16.799  0.00  0.00    +0.000 NA
ATOM     12  H   UNL     1       5.553   3.502  17.789  0.00  0.00    +0.000 HD
BRANCH  11  13
ATOM     13  C   UNL     1       6.158   4.314  16.052  0.00  0.00    +0.000 C 
BRANCH  13  17
ATOM     14  C   UNL     1       8.131   7.103  18.748  0.00  0.00    +0.000 A 
ATOM     15  C   UNL     1       7.638   7.555  17.528  0.00  0.00    +0.000 A 
ATOM     16  C   UNL     1       7.019   6.663  16.644  0.00  0.00    +0.000 A 
ATOM     17  C   UNL     1       6.896   5.299  16.955  0.00  0.00    +0.000 A 
ATOM     18  C   UNL     1       7.405   4.862  18.190  0.00  0.00    +0.000 A 
ATOM     19  C   UNL     1       8.018   5.755  19.077  0.00  0.00    +0.000 A 
ENDBRANCH  13  17
ENDBRANCH  11  13
ENDBRANCH  10  11
ENDBRANCH   1  10
BRANCH   3  20
ATOM     20  C   UNL     1       3.018   6.884  19.244  0.00  0.00    +0.000 C 
BRANCH  20  21
ATOM     21  C   UNL     1       2.046   8.019  19.305  0.00  0.00    +0.000 A 
ATOM     22  C   UNL     1       1.393   8.327  20.504  0.00  0.00    +0.000 A 
ATOM     23  C   UNL     1       0.432   9.334  20.532  0.00  0.00    +0.000 A 
ATOM     24  C   UNL     1       0.133  10.039  19.360  0.00  0.00    +0.000 A 
ATOM     25  C   UNL     1       0.799   9.755  18.177  0.00  0.00    +0.000 A 
ATOM     26  C   UNL     1       1.772   8.759  18.151  0.00  0.00    +0.000 A 
ENDBRANCH  20  21
ENDBRANCH   3  20
TORSDOF 6
ENDMDL
MODEL 4
REMARK VINA RESULT:      -7.8      1.869      3.053
REMARK  Name = 
REMARK  6 active torsions:
REMARK  status: ('A' for Active; 'I' for Inactive)
REMARK    1  A    between atoms: C_4  and  C_5
REMARK    2  A    between atoms: C_5  and  N_6
REMARK    3  A    between atoms: N_6  and  C_7
REMARK    4  A    between atoms: C_7  and  C_8
REMARK    5  A    between atoms: N_10  and  C_11
REMARK    6  A    between atoms: C_11  and  C_12
REMARK                            x       y       z     vdW  Elec       q    Type
REMARK                         _______ _______ _______ _____ _____    ______ ____
ROOT
ATOM      1  C   UNL     1       4.807   4.833  18.112  0.00  0.00    +0.000 A 
ATOM      2  C   UNL     1       4.154   6.054  18.004  0.00  0.00    +0.000 A 
ATOM      3  N   UNL     1       2.951   5.874  18.636  0.00  0.00    +0.000 N 
ATOM      4  C   UNL     1       2.557   4.574  18.428  0.00  0.00    +0.000 A 
ATOM      5  C   UNL     1       1.280   4.003  18.507  0.00  0.00    +0.000 A 
ATOM      6  C   UNL     1       1.206   2.618  18.568  0.00  0.00    +0.000 A 
ATOM      7  C   UNL     1       2.374   1.859  18.618  0.00  0.00    +0.000 A 
ATOM      8  C   UNL     1       3.651   2.457  18.512  0.00  0.00    +0.000 A 
ATOM      9  C   UNL     1       3.757   3.854  18.336  0.00  0.00    +0.000 A 
ENDROOT
BRANCH   1  10
ATOM     10  C   UNL     1       6.305   4.743  18.110  0.00  0.00    +0.000 C 
BRANCH  10  11
ATOM     11  N   UNL     1       6.923   4.276  16.869  0.00  0.00    +0.000 NA
ATOM     12  H   UNL     1       7.401   5.083  16.465  0.00  0.00    +0.000 HD
BRANCH  11  13
ATOM     13  C   UNL     1       5.972   3.811  15.849  0.00  0.00    +0.000 C 
BRANCH  13  17
ATOM     14  C   UNL     1       7.308   4.613  11.786  0.00  0.00    +0.000 A 
ATOM     15  C   UNL     1       6.334   3.645  12.013  0.00  0.00    +0.000 A 
ATOM     16  C   UNL     1       5.911   3.364  13.318  0.00  0.00    +0.000 A 
ATOM     17  C   UNL     1       6.464   4.034  14.422  0.00  0.00    +0.000 A 
ATOM     18  C   UNL     1       7.450   5.004  14.170  0.00  0.00    +0.000 A 
ATOM     19  C   UNL     1       7.868   5.289  12.865  0.00  0.00    +0.000 A 
ENDBRANCH  13  17
ENDBRANCH  11  13
ENDBRANCH  10  11
ENDBRANCH   1  10
BRANCH   3  20
ATOM     20  C   UNL     1       2.579   6.598  19.857  0.00  0.00    +0.000 C 
BRANCH  20  21
ATOM     21  C   UNL     1       1.878   7.882  19.546  0.00  0.00    +0.000 A 
ATOM     22  C   UNL     1       1.892   8.398  18.245  0.00  0.00    +0.000 A 
ATOM     23  C   UNL     1       1.304   9.633  17.982  0.00  0.00    +0.000 A 
ATOM     24  C   UNL     1       0.694  10.344  19.020  0.00  0.00    +0.000 A 
ATOM     25  C   UNL     1       0.653   9.822  20.305  0.00  0.00    +0.000 A 
ATOM     26  C   UNL     1       1.226   8.580  20.566  0.00  0.00    +0.000 A 
ENDBRANCH  20  21
ENDBRANCH   3  20
TORSDOF 6
ENDMDL
MODEL 5
REMARK VINA RESULT:      -7.8      1.802      5.342
REMARK  Name = 
REMARK  6 active torsions:
REMARK  status: ('A' for Active; 'I' for Inactive)
REMARK    1  A    between atoms: C_4  and  C_5
REMARK    2  A    between atoms: C_5  and  N_6
REMARK    3  A    between atoms: N_6  and  C_7
REMARK    4  A    between atoms: C_7  and  C_8
REMARK    5  A    between atoms: N_10  and  C_11
REMARK    6  A    between atoms: C_11  and  C_12
REMARK                            x       y       z     vdW  Elec       q    Type
REMARK                         _______ _______ _______ _____ _____    ______ ____
ROOT
ATOM      1  C   UNL     1       3.762   6.887  17.948  0.00  0.00    +0.000 A 
ATOM      2  C   UNL     1       3.969   6.140  19.101  0.00  0.00    +0.000 A 
ATOM      3  N   UNL     1       2.809   6.259  19.819  0.00  0.00    +0.000 N 
ATOM      4  C   UNL     1       2.300   7.515  19.591  0.00  0.00    +0.000 A 
ATOM      5  C   UNL     1       1.393   8.264  20.352  0.00  0.00    +0.000 A 
ATOM      6  C   UNL     1       0.801   9.359  19.738  0.00  0.00    +0.000 A 
ATOM      7  C   UNL     1       1.064   9.633  18.397  0.00  0.00    +0.000 A 
ATOM      8  C   UNL     1       2.002   8.876  17.657  0.00  0.00    +0.000 A 
ATOM      9  C   UNL     1       2.704   7.825  18.285  0.00  0.00    +0.000 A 
ENDROOT
BRANCH   1  10
ATOM     10  C   UNL     1       4.476   6.568  16.668  0.00  0.00    +0.000 C 
BRANCH  10  11
ATOM     11  N   UNL     1       5.209   5.302  16.634  0.00  0.00    +0.000 NA
ATOM     12  H   UNL     1       5.356   5.030  17.607  0.00  0.00    +0.000 HD
BRANCH  11  13
ATOM     13  C   UNL     1       6.544   5.385  16.025  0.00  0.00    +0.000 C 
BRANCH  13  17
ATOM     14  C   UNL     1       6.670   3.823  11.965  0.00  0.00    +0.000 A 
ATOM     15  C   UNL     1       7.644   4.722  12.389  0.00  0.00    +0.000 A 
ATOM     16  C   UNL     1       7.602   5.247  13.686  0.00  0.00    +0.000 A 
ATOM     17  C   UNL     1       6.577   4.896  14.580  0.00  0.00    +0.000 A 
ATOM     18  C   UNL     1       5.600   3.990  14.130  0.00  0.00    +0.000 A 
ATOM     19  C   UNL     1       5.646   3.461  12.835  0.00  0.00    +0.000 A 
ENDBRANCH  13  17
ENDBRANCH  11  13
ENDBRANCH  10  11
ENDBRANCH   1  10
BRANCH   3  20
ATOM     20  C   UNL     1       1.930   5.119  20.102  0.00  0.00    +0.000 C 
BRANCH  20  21
ATOM     21  C   UNL     1       2.411   3.871  19.434  0.00  0.00    +0.000 A 
ATOM     22  C   UNL     1       3.304   3.016  20.091  0.00  0.00    +0.000 A 
ATOM     23  C   UNL     1       3.807   1.898  19.431  0.00  0.00    +0.000 A 
ATOM     24  C   UNL     1       3.407   1.631  18.117  0.00  0.00    +0.000 A 
ATOM     25  C   UNL     1       2.500   2.460  17.473  0.00  0.00    +0.000 A 
ATOM     26  C   UNL     1       1.984   3.570  18.138  0.00  0.00    +0.000 A 
ENDBRANCH  20  21
ENDBRANCH   3  20
TORSDOF 6
ENDMDL
MODEL 6
REMARK VINA RESULT:      -7.8      1.993      5.293
REMARK  Name = 
REMARK  6 active torsions:
REMARK  status: ('A' for Active; 'I' for Inactive)
REMARK    1  A    between atoms: C_4  and  C_5
REMARK    2  A    between atoms: C_5  and  N_6
REMARK    3  A    between atoms: N_6  and  C_7
REMARK    4  A    between atoms: C_7  and  C_8
REMARK    5  A    between atoms: N_10  and  C_11
REMARK    6  A    between atoms: C_11  and  C_12
REMARK                            x       y       z     vdW  Elec       q    Type
REMARK                         _______ _______ _______ _____ _____    ______ ____
ROOT
ATOM      1  C   UNL     1       3.722   7.029  17.847  0.00  0.00    +0.000 A 
ATOM      2  C   UNL     1       3.953   6.215  18.948  0.00  0.00    +0.000 A 
ATOM      3  N   UNL     1       2.809   6.291  19.697  0.00  0.00    +0.000 N 
ATOM      4  C   UNL     1       2.297   7.558  19.554  0.00  0.00    +0.000 A 
ATOM      5  C   UNL     1       1.408   8.261  20.378  0.00  0.00    +0.000 A 
ATOM      6  C   UNL     1       0.803   9.391  19.842  0.00  0.00    +0.000 A 
ATOM      7  C   UNL     1       1.039   9.743  18.514  0.00  0.00    +0.000 A 
ATOM      8  C   UNL     1       1.959   9.031  17.710  0.00  0.00    +0.000 A 
ATOM      9  C   UNL     1       2.674   7.946  18.261  0.00  0.00    +0.000 A 
ENDROOT
BRANCH   1  10
ATOM     10  C   UNL     1       4.408   6.785  16.534  0.00  0.00    +0.000 C 
BRANCH  10  11
ATOM     11  N   UNL     1       5.517   5.832  16.551  0.00  0.00    +0.000 NA
ATOM     12  H   UNL     1       6.268   6.256  16.003  0.00  0.00    +0.000 HD
BRANCH  11  13
ATOM     13  C   UNL     1       5.224   4.540  15.914  0.00  0.00    +0.000 C 
BRANCH  13  17
ATOM     14  C   UNL     1       7.159   4.213  12.030  0.00  0.00    +0.000 A 
ATOM     15  C   UNL     1       5.989   3.503  12.280  0.00  0.00    +0.000 A 
ATOM     16  C   UNL     1       5.368   3.585  13.532  0.00  0.00    +0.000 A 
ATOM     17  C   UNL     1       5.914   4.364  14.564  0.00  0.00    +0.000 A 
ATOM     18  C   UNL     1       7.100   5.069  14.294  0.00  0.00    +0.000 A 
ATOM     19  C   UNL     1       7.717   4.993  13.039  0.00  0.00    +0.000 A 
ENDBRANCH  13  17
ENDBRANCH  11  13
ENDBRANCH  10  11
ENDBRANCH   1  10
BRANCH   3  20
ATOM     20  C   UNL     1       1.934   5.137  19.931  0.00  0.00    +0.000 C 
BRANCH  20  21
ATOM     21  C   UNL     1       2.496   3.887  19.332  0.00  0.00    +0.000 A 
ATOM     22  C   UNL     1       2.037   3.430  18.091  0.00  0.00    +0.000 A 
ATOM     23  C   UNL     1       2.508   2.225  17.578  0.00  0.00    +0.000 A 
ATOM     24  C   UNL     1       3.447   1.483  18.303  0.00  0.00    +0.000 A 
ATOM     25  C   UNL     1       3.926   1.947  19.520  0.00  0.00    +0.000 A 
ATOM     26  C   UNL     1       3.467   3.161  20.027  0.00  0.00    +0.000 A 
ENDBRANCH  20  21
ENDBRANCH   3  20
TORSDOF 6
ENDMDL
MODEL 7
REMARK VINA RESULT:      -7.8      3.128      6.677
REMARK  Name = 
REMARK  6 active torsions:
REMARK  status: ('A' for Active; 'I' for Inactive)
REMARK    1  A    between atoms: C_4  and  C_5
REMARK    2  A    between atoms: C_5  and  N_6
REMARK    3  A    between atoms: N_6  and  C_7
REMARK    4  A    between atoms: C_7  and  C_8
REMARK    5  A    between atoms: N_10  and  C_11
REMARK    6  A    between atoms: C_11  and  C_12
REMARK                            x       y       z     vdW  Elec       q    Type
REMARK                         _______ _______ _______ _____ _____    ______ ____
ROOT
ATOM      1  C   UNL     1       1.267   9.875  18.030  0.00  0.00    +0.000 A 
ATOM      2  C   UNL     1       1.978  11.036  18.308  0.00  0.00    +0.000 A 
ATOM      3  N   UNL     1       1.103  11.837  18.992  0.00  0.00    +0.000 N 
ATOM      4  C   UNL     1      -0.158  11.601  18.500  0.00  0.00    +0.000 A 
ATOM      5  C   UNL     1      -1.306  12.401  18.561  0.00  0.00    +0.000 A 
ATOM      6  C   UNL     1      -2.521  11.793  18.272  0.00  0.00    +0.000 A 
ATOM      7  C   UNL     1      -2.569  10.425  18.005  0.00  0.00    +0.000 A 
ATOM      8  C   UNL     1      -1.393   9.644  17.925  0.00  0.00    +0.000 A 
ATOM      9  C   UNL     1      -0.134  10.256  18.103  0.00  0.00    +0.000 A 
ENDROOT
BRANCH   1  10
ATOM     10  C   UNL     1       1.959   8.556  17.850  0.00  0.00    +0.000 C 
BRANCH  10  11
ATOM     11  N   UNL     1       2.247   7.804  19.072  0.00  0.00    +0.000 NA
ATOM     12  H   UNL     1       2.822   8.414  19.656  0.00  0.00    +0.000 HD
BRANCH  11  13
ATOM     13  C   UNL     1       3.030   6.578  18.865  0.00  0.00    +0.000 C 
BRANCH  13  17
ATOM     14  C   UNL     1       0.868   2.877  19.618  0.00  0.00    +0.000 A 
ATOM     15  C   UNL     1       1.247   3.202  18.320  0.00  0.00    +0.000 A 
ATOM     16  C   UNL     1       1.926   4.399  18.062  0.00  0.00    +0.000 A 
ATOM     17  C   UNL     1       2.224   5.303  19.095  0.00  0.00    +0.000 A 
ATOM     18  C   UNL     1       1.827   4.958  20.399  0.00  0.00    +0.000 A 
ATOM     19  C   UNL     1       1.154   3.758  20.657  0.00  0.00    +0.000 A 
ENDBRANCH  13  17
ENDBRANCH  11  13
ENDBRANCH  10  11
ENDBRANCH   1  10
BRANCH   3  20
ATOM     20  C   UNL     1       1.314  12.232  20.390  0.00  0.00    +0.000 C 
BRANCH  20  21
ATOM     21  C   UNL     1       0.574  11.339  21.334  0.00  0.00    +0.000 A 
ATOM     22  C   UNL     1      -0.544  11.816  22.028  0.00  0.00    +0.000 A 
ATOM     23  C   UNL     1      -1.179  11.003  22.963  0.00  0.00    +0.000 A 
ATOM     24  C   UNL     1      -0.700   9.709  23.194  0.00  0.00    +0.000 A 
ATOM     25  C   UNL     1       0.390   9.223  22.487  0.00  0.00    +0.000 A 
ATOM     26  C   UNL     1       1.016  10.030  21.540  0.00  0.00    +0.000 A 
ENDBRANCH  20  21
ENDBRANCH   3  20
TORSDOF 6
ENDMDL
MODEL 8
REMARK VINA RESULT:      -7.8      2.934      5.841
REMARK  Name = 
REMARK  6 active torsions:
REMARK  status: ('A' for Active; 'I' for Inactive)
REMARK    1  A    between atoms: C_4  and  C_5
REMARK    2  A    between atoms: C_5  and  N_6
REMARK    3  A    between atoms: N_6  and  C_7
REMARK    4  A    between atoms: C_7  and  C_8
REMARK    5  A    between atoms: N_10  and  C_11
REMARK    6  A    between atoms: C_11  and  C_12
REMARK                            x       y       z     vdW  Elec       q    Type
REMARK                         _______ _______ _______ _____ _____    ______ ____
ROOT
ATOM      1  C   UNL     1       6.668   6.461  17.636  0.00  0.00    +0.000 A 
ATOM      2  C   UNL     1       5.475   6.275  18.321  0.00  0.00    +0.000 A 
ATOM      3  N   UNL     1       4.972   5.091  17.850  0.00  0.00    +0.000 N 
ATOM      4  C   UNL     1       5.325   4.981  16.526  0.00  0.00    +0.000 A 
ATOM      5  C   UNL     1       4.757   4.200  15.512  0.00  0.00    +0.000 A 
ATOM      6  C   UNL     1       5.499   4.029  14.351  0.00  0.00    +0.000 A 
ATOM      7  C   UNL     1       6.782   4.566  14.258  0.00  0.00    +0.000 A 
ATOM      8  C   UNL     1       7.324   5.370  15.287  0.00  0.00    +0.000 A 
ATOM      9  C   UNL     1       6.550   5.656  16.433  0.00  0.00    +0.000 A 
ENDROOT
BRANCH   1  10
ATOM     10  C   UNL     1       7.795   7.257  18.228  0.00  0.00    +0.000 C 
BRANCH  10  11
ATOM     11  N   UNL     1       8.285   8.378  17.427  0.00  0.00    +0.000 NA
ATOM     12  H   UNL     1       9.305   8.314  17.435  0.00  0.00    +0.000 HD
BRANCH  11  13
ATOM     13  C   UNL     1       7.955   9.705  17.968  0.00  0.00    +0.000 C 
BRANCH  13  17
ATOM     14  C   UNL     1      11.276  11.895  19.731  0.00  0.00    +0.000 A 
ATOM     15  C   UNL     1      11.238  11.690  18.356  0.00  0.00    +0.000 A 
ATOM     16  C   UNL     1      10.185  10.970  17.779  0.00  0.00    +0.000 A 
ATOM     17  C   UNL     1       9.158  10.427  18.568  0.00  0.00    +0.000 A 
ATOM     18  C   UNL     1       9.218  10.641  19.956  0.00  0.00    +0.000 A 
ATOM     19  C   UNL     1      10.268  11.366  20.532  0.00  0.00    +0.000 A 
ENDBRANCH  13  17
ENDBRANCH  11  13
ENDBRANCH  10  11
ENDBRANCH   1  10
BRANCH   3  20
ATOM     20  C   UNL     1       4.810   3.903  18.697  0.00  0.00    +0.000 C 
BRANCH  20  21
ATOM     21  C   UNL     1       3.387   3.714  19.117  0.00  0.00    +0.000 A 
ATOM     22  C   UNL     1       2.988   4.022  20.423  0.00  0.00    +0.000 A 
ATOM     23  C   UNL     1       1.680   3.769  20.826  0.00  0.00    +0.000 A 
ATOM     24  C   UNL     1       0.769   3.217  19.918  0.00  0.00    +0.000 A 
ATOM     25  C   UNL     1       1.154   2.937  18.615  0.00  0.00    +0.000 A 
ATOM     26  C   UNL     1       2.457   3.205  18.205  0.00  0.00    +0.000 A 
ENDBRANCH  20  21
ENDBRANCH   3  20
TORSDOF 6
ENDMDL
MODEL 9
REMARK VINA RESULT:      -7.7      3.129      6.644
REMARK  Name = 
REMARK  6 active torsions:
REMARK  status: ('A' for Active; 'I' for Inactive)
REMARK    1  A    between atoms: C_4  and  C_5
REMARK    2  A    between atoms: C_5  and  N_6
REMARK    3  A    between atoms: N_6  and  C_7
REMARK    4  A    between atoms: C_7  and  C_8
REMARK    5  A    between atoms: N_10  and  C_11
REMARK    6  A    between atoms: C_11  and  C_12
REMARK                            x       y       z     vdW  Elec       q    Type
REMARK                         _______ _______ _______ _____ _____    ______ ____
ROOT
ATOM      1  C   UNL     1       1.230   9.983  18.052  0.00  0.00    +0.000 A 
ATOM      2  C   UNL     1       1.938  11.143  18.337  0.00  0.00    +0.000 A 
ATOM      3  N   UNL     1       1.077  11.919  19.066  0.00  0.00    +0.000 N 
ATOM      4  C   UNL     1      -0.196  11.682  18.606  0.00  0.00    +0.000 A 
ATOM      5  C   UNL     1      -1.349  12.469  18.722  0.00  0.00    +0.000 A 
ATOM      6  C   UNL     1      -2.566  11.856  18.454  0.00  0.00    +0.000 A 
ATOM      7  C   UNL     1      -2.610  10.495  18.155  0.00  0.00    +0.000 A 
ATOM      8  C   UNL     1      -1.430   9.728  18.021  0.00  0.00    +0.000 A 
ATOM      9  C   UNL     1      -0.171  10.348  18.177  0.00  0.00    +0.000 A 
ENDROOT
BRANCH   1  10
ATOM     10  C   UNL     1       1.929   8.675  17.820  0.00  0.00    +0.000 C 
BRANCH  10  11
ATOM     11  N   UNL     1       2.200   7.866  19.007  0.00  0.00    +0.000 NA
ATOM     12  H   UNL     1       2.735   8.460  19.644  0.00  0.00    +0.000 HD
BRANCH  11  13
ATOM     13  C   UNL     1       3.029   6.677  18.761  0.00  0.00    +0.000 C 
BRANCH  13  17
ATOM     14  C   UNL     1       0.867   3.005  19.640  0.00  0.00    +0.000 A 
ATOM     15  C   UNL     1       1.203   3.872  20.675  0.00  0.00    +0.000 A 
ATOM     16  C   UNL     1       1.916   5.047  20.407  0.00  0.00    +0.000 A 
ATOM     17  C   UNL     1       2.321   5.369  19.102  0.00  0.00    +0.000 A 
ATOM     18  C   UNL     1       1.976   4.477  18.072  0.00  0.00    +0.000 A 
ATOM     19  C   UNL     1       1.258   3.306  18.339  0.00  0.00    +0.000 A 
ENDBRANCH  13  17
ENDBRANCH  11  13
ENDBRANCH  10  11
ENDBRANCH   1  10
BRANCH   3  20
ATOM     20  C   UNL     1       1.327  12.282  20.466  0.00  0.00    +0.000 C 
BRANCH  20  21
ATOM     21  C   UNL     1       0.633  11.352  21.410  0.00  0.00    +0.000 A 
ATOM     22  C   UNL     1       1.058  10.024  21.533  0.00  0.00    +0.000 A 
ATOM     23  C   UNL     1       0.357   9.145  22.354  0.00  0.00    +0.000 A 
ATOM     24  C   UNL     1      -0.762   9.600  23.060  0.00  0.00    +0.000 A 
ATOM     25  C   UNL     1      -1.168  10.923  22.963  0.00  0.00    +0.000 A 
ATOM     26  C   UNL     1      -0.459  11.807  22.154  0.00  0.00    +0.000 A 
ENDBRANCH  20  21
ENDBRANCH   3  20
TORSDOF 6
ENDMDL
