MODEL 1
REMARK VINA RESULT:      -9.8      0.000      0.000
REMARK  Name = 
REMARK  6 active torsions:
REMARK  status: ('A' for Active; 'I' for Inactive)
REMARK    1  A    between atoms: N_1  and  C_2
REMARK    2  A    between atoms: C_6  and  O_7
REMARK    3  A    between atoms: O_7  and  C_8
REMARK    4  A    between atoms: N_16  and  C_17
REMARK    5  A    between atoms: C_21  and  C_22
REMARK    6  A    between atoms: C_22  and  O_24
REMARK                            x       y       z     vdW  Elec       q    Type
REMARK                         _______ _______ _______ _____ _____    ______ ____
ROOT
ATOM      1  C   UNL     1       1.836   4.996  20.686  0.00  0.00    +0.000 A 
ATOM      2  C   UNL     1       0.709   4.189  20.564  0.00  0.00    +0.000 A 
ATOM      3  C   UNL     1       0.786   3.069  19.734  0.00  0.00    +0.000 A 
ATOM      4  C   UNL     1       2.030   2.673  19.281  0.00  0.00    +0.000 A 
ATOM      5  C   UNL     1       3.059   3.041  20.097  0.00  0.00    +0.000 A 
ATOM      6  C   UNL     1       3.067   4.380  20.496  0.00  0.00    +0.000 A 
ATOM      7  C   UNL     1       4.190   2.464  19.385  0.00  0.00    +0.000 C 
ATOM      8  O   UNL     1       4.842   1.535  19.822  0.00  0.00    +0.000 OA
ATOM      9  N   UNL     1       4.059   2.944  18.142  0.00  0.00    +0.000 N 
ATOM     10  C   UNL     1       2.689   3.024  17.913  0.00  0.00    +0.000 C 
ATOM     11  O   UNL     1       2.080   3.448  16.945  0.00  0.00    +0.000 OA
ENDROOT
BRANCH   9  12
ATOM     12  C   UNL     1       5.071   3.895  17.766  0.00  0.00    +0.000 A 
ATOM     13  C   UNL     1       5.315   4.059  16.368  0.00  0.00    +0.000 A 
ATOM     14  C   UNL     1       6.414   4.736  15.861  0.00  0.00    +0.000 A 
ATOM     15  C   UNL     1       7.251   5.388  16.740  0.00  0.00    +0.000 A 
ATOM     16  C   UNL     1       6.992   5.333  18.119  0.00  0.00    +0.000 A 
ATOM     17  C   UNL     1       5.940   4.539  18.642  0.00  0.00    +0.000 A 
BRANCH  16  18
ATOM     18  C   UNL     1       7.871   6.150  18.985  0.00  0.00    +0.000 C 
ATOM     19  O   UNL     1       8.312   7.241  18.651  0.00  0.00    +0.000 OA
BRANCH  18  20
ATOM     20  O   UNL     1       8.039   5.623  20.212  0.00  0.00    +0.000 OA
ATOM     21  H   UNL     1       8.935   5.722  20.585  0.00  0.00    +0.000 HD
ENDBRANCH  18  20
ENDBRANCH  16  18
ENDBRANCH   9  12
BRANCH   1  22
ATOM     22  O   UNL     1       1.846   6.346  20.938  0.00  0.00    +0.000 OA
BRANCH  22  27
ATOM     23  C   UNL     1       1.501   9.459  18.923  0.00  0.00    +0.000 A 
ATOM     24  C   UNL     1       2.230   9.057  17.805  0.00  0.00    +0.000 A 
ATOM     25  C   UNL     1       2.750   7.763  17.722  0.00  0.00    +0.000 A 
ATOM     26  C   UNL     1       2.574   6.873  18.779  0.00  0.00    +0.000 A 
ATOM     27  C   UNL     1       1.862   7.266  19.911  0.00  0.00    +0.000 A 
ATOM     28  C   UNL     1       1.224   8.513  19.914  0.00  0.00    +0.000 A 
BRANCH  23  29
ATOM     29  N   UNL     1       0.888  10.718  18.953  0.00  0.00    +0.000 N 
ATOM     30  H   UNL     1       0.522  11.015  18.053  0.00  0.00    +0.000 HD
ATOM     31  H   UNL     1       1.446  11.442  19.393  0.00  0.00    +0.000 HD
ENDBRANCH  23  29
ENDBRANCH  22  27
ENDBRANCH   1  22
TORSDOF 6
ENDMDL
MODEL 2
REMARK VINA RESULT:      -9.7      0.982      1.338
REMARK  Name = 
REMARK  6 active torsions:
REMARK  status: ('A' for Active; 'I' for Inactive)
REMARK    1  A    between atoms: N_1  and  C_2
REMARK    2  A    between atoms: C_6  and  O_7
REMARK    3  A    between atoms: O_7  and  C_8
REMARK    4  A    between atoms: N_16  and  C_17
REMARK    5  A    between atoms: C_21  and  C_22
REMARK    6  A    between atoms: C_22  and  O_24
REMARK                            x       y       z     vdW  Elec       q    Type
REMARK                         _______ _______ _______ _____ _____    ______ ____
ROOT
ATOM      1  C   UNL     1       1.719   4.816  20.624  0.00  0.00    +0.000 A 
ATOM      2  C   UNL     1       0.643   3.941  20.511  0.00  0.00    +0.000 A 
ATOM      3  C   UNL     1       0.805   2.794  19.731  0.00  0.00    +0.000 A 
ATOM      4  C   UNL     1       2.080   2.452  19.323  0.00  0.00    +0.000 A 
ATOM      5  C   UNL     1       3.065   2.912  20.146  0.00  0.00    +0.000 A 
ATOM      6  C   UNL     1       2.988   4.265  20.489  0.00  0.00    +0.000 A 
ATOM      7  C   UNL     1       4.244   2.372  19.485  0.00  0.00    +0.000 C 
ATOM      8  O   UNL     1       4.938   1.501  19.976  0.00  0.00    +0.000 OA
ATOM      9  N   UNL     1       4.118   2.793  18.221  0.00  0.00    +0.000 N 
ATOM     10  C   UNL     1       2.752   2.784  17.957  0.00  0.00    +0.000 C 
ATOM     11  O   UNL     1       2.145   3.132  16.959  0.00  0.00    +0.000 OA
ENDROOT
BRANCH   9  12
ATOM     12  C   UNL     1       5.084   3.785  17.828  0.00  0.00    +0.000 A 
ATOM     13  C   UNL     1       5.281   3.974  16.426  0.00  0.00    +0.000 A 
ATOM     14  C   UNL     1       6.339   4.696  15.896  0.00  0.00    +0.000 A 
ATOM     15  C   UNL     1       7.178   5.368  16.759  0.00  0.00    +0.000 A 
ATOM     16  C   UNL     1       6.961   5.287  18.144  0.00  0.00    +0.000 A 
ATOM     17  C   UNL     1       5.955   4.449  18.687  0.00  0.00    +0.000 A 
BRANCH  16  18
ATOM     18  C   UNL     1       7.835   6.125  18.995  0.00  0.00    +0.000 C 
ATOM     19  O   UNL     1       8.265   7.215  18.643  0.00  0.00    +0.000 OA
BRANCH  18  20
ATOM     20  O   UNL     1       8.012   5.618  20.229  0.00  0.00    +0.000 OA
ATOM     21  H   UNL     1       7.229   5.178  20.610  0.00  0.00    +0.000 HD
ENDBRANCH  18  20
ENDBRANCH  16  18
ENDBRANCH   9  12
BRANCH   1  22
ATOM     22  O   UNL     1       1.646   6.173  20.819  0.00  0.00    +0.000 OA
BRANCH  22  27
ATOM     23  C   UNL     1       3.125   7.695  17.759  0.00  0.00    +0.000 A 
ATOM     24  C   UNL     1       2.456   8.918  17.799  0.00  0.00    +0.000 A 
ATOM     25  C   UNL     1       1.599   9.226  18.858  0.00  0.00    +0.000 A 
ATOM     26  C   UNL     1       1.376   8.293  19.868  0.00  0.00    +0.000 A 
ATOM     27  C   UNL     1       2.024   7.060  19.833  0.00  0.00    +0.000 A 
ATOM     28  C   UNL     1       2.990   6.826  18.845  0.00  0.00    +0.000 A 
BRANCH  23  29
ATOM     29  N   UNL     1       4.066   7.436  16.755  0.00  0.00    +0.000 N 
ATOM     30  H   UNL     1       3.746   6.772  16.057  0.00  0.00    +0.000 HD
ATOM     31  H   UNL     1       4.992   7.207  17.102  0.00  0.00    +0.000 HD
ENDBRANCH  23  29
ENDBRANCH  22  27
ENDBRANCH   1  22
TORSDOF 6
ENDMDL
MODEL 3
REMARK VINA RESULT:      -9.2      1.427      2.037
REMARK  Name = 
REMARK  6 active torsions:
REMARK  status: ('A' for Active; 'I' for Inactive)
REMARK    1  A    between atoms: N_1  and  C_2
REMARK    2  A    between atoms: C_6  and  O_7
REMARK    3  A    between atoms: O_7  and  C_8
REMARK    4  A    between atoms: N_16  and  C_17
REMARK    5  A    between atoms: C_21  and  C_22
REMARK    6  A    between atoms: C_22  and  O_24
REMARK                            x       y       z     vdW  Elec       q    Type
REMARK                         _______ _______ _______ _____ _____    ______ ____
ROOT
ATOM      1  C   UNL     1       2.067   5.156  20.669  0.00  0.00    +0.000 A 
ATOM      2  C   UNL     1       0.891   4.413  20.655  0.00  0.00    +0.000 A 
ATOM      3  C   UNL     1       0.842   3.270  19.854  0.00  0.00    +0.000 A 
ATOM      4  C   UNL     1       2.023   2.791  19.321  0.00  0.00    +0.000 A 
ATOM      5  C   UNL     1       3.130   3.120  20.047  0.00  0.00    +0.000 A 
ATOM      6  C   UNL     1       3.244   4.465  20.406  0.00  0.00    +0.000 A 
ATOM      7  C   UNL     1       4.169   2.460  19.270  0.00  0.00    +0.000 C 
ATOM      8  O   UNL     1       4.801   1.506  19.684  0.00  0.00    +0.000 OA
ATOM      9  N   UNL     1       3.972   2.917  18.027  0.00  0.00    +0.000 N 
ATOM     10  C   UNL     1       2.595   3.070  17.898  0.00  0.00    +0.000 C 
ATOM     11  O   UNL     1       1.939   3.504  16.967  0.00  0.00    +0.000 OA
ENDROOT
BRANCH   9  12
ATOM     12  C   UNL     1       5.004   3.798  17.549  0.00  0.00    +0.000 A 
ATOM     13  C   UNL     1       5.469   4.799  18.457  0.00  0.00    +0.000 A 
ATOM     14  C   UNL     1       6.264   5.867  18.071  0.00  0.00    +0.000 A 
ATOM     15  C   UNL     1       6.731   5.908  16.775  0.00  0.00    +0.000 A 
ATOM     16  C   UNL     1       6.377   4.890  15.875  0.00  0.00    +0.000 A 
ATOM     17  C   UNL     1       5.465   3.866  16.238  0.00  0.00    +0.000 A 
BRANCH  16  18
ATOM     18  C   UNL     1       7.010   4.947  14.538  0.00  0.00    +0.000 C 
ATOM     19  O   UNL     1       7.993   5.630  14.293  0.00  0.00    +0.000 OA
BRANCH  18  20
ATOM     20  O   UNL     1       6.462   4.086  13.660  0.00  0.00    +0.000 OA
ATOM     21  H   UNL     1       6.390   3.165  13.975  0.00  0.00    +0.000 HD
ENDBRANCH  18  20
ENDBRANCH  16  18
ENDBRANCH   9  12
BRANCH   1  22
ATOM     22  O   UNL     1       2.171   6.509  20.880  0.00  0.00    +0.000 OA
BRANCH  22  27
ATOM     23  C   UNL     1       1.333   9.542  18.888  0.00  0.00    +0.000 A 
ATOM     24  C   UNL     1       1.986   9.193  17.706  0.00  0.00    +0.000 A 
ATOM     25  C   UNL     1       2.618   7.954  17.582  0.00  0.00    +0.000 A 
ATOM     26  C   UNL     1       2.633   7.068  18.657  0.00  0.00    +0.000 A 
ATOM     27  C   UNL     1       1.999   7.410  19.850  0.00  0.00    +0.000 A 
ATOM     28  C   UNL     1       1.247   8.590  19.908  0.00  0.00    +0.000 A 
BRANCH  23  29
ATOM     29  N   UNL     1       0.608  10.738  18.970  0.00  0.00    +0.000 N 
ATOM     30  H   UNL     1      -0.223  10.671  19.550  0.00  0.00    +0.000 HD
ATOM     31  H   UNL     1       0.411  11.167  18.071  0.00  0.00    +0.000 HD
ENDBRANCH  23  29
ENDBRANCH  22  27
ENDBRANCH   1  22
TORSDOF 6
ENDMDL
MODEL 4
REMARK VINA RESULT:      -9.1      2.051      2.864
REMARK  Name = 
REMARK  6 active torsions:
REMARK  status: ('A' for Active; 'I' for Inactive)
REMARK    1  A    between atoms: N_1  and  C_2
REMARK    2  A    between atoms: C_6  and  O_7
REMARK    3  A    between atoms: O_7  and  C_8
REMARK    4  A    between atoms: N_16  and  C_17
REMARK    5  A    between atoms: C_21  and  C_22
REMARK    6  A    between atoms: C_22  and  O_24
REMARK                            x       y       z     vdW  Elec       q    Type
REMARK                         _______ _______ _______ _____ _____    ______ ____
ROOT
ATOM      1  C   UNL     1       2.250   6.030  20.068  0.00  0.00    +0.000 A 
ATOM      2  C   UNL     1       1.060   5.332  20.252  0.00  0.00    +0.000 A 
ATOM      3  C   UNL     1       1.000   4.005  19.820  0.00  0.00    +0.000 A 
ATOM      4  C   UNL     1       2.179   3.375  19.471  0.00  0.00    +0.000 A 
ATOM      5  C   UNL     1       3.282   3.885  20.089  0.00  0.00    +0.000 A 
ATOM      6  C   UNL     1       3.417   5.275  20.040  0.00  0.00    +0.000 A 
ATOM      7  C   UNL     1       4.319   3.012  19.556  0.00  0.00    +0.000 C 
ATOM      8  O   UNL     1       4.926   2.212  20.243  0.00  0.00    +0.000 OA
ATOM      9  N   UNL     1       4.145   3.087  18.231  0.00  0.00    +0.000 N 
ATOM     10  C   UNL     1       2.774   3.216  18.039  0.00  0.00    +0.000 C 
ATOM     11  O   UNL     1       2.138   3.368  17.010  0.00  0.00    +0.000 OA
ENDROOT
BRANCH   9  12
ATOM     12  C   UNL     1       5.200   3.775  17.535  0.00  0.00    +0.000 A 
ATOM     13  C   UNL     1       5.998   4.679  18.303  0.00  0.00    +0.000 A 
ATOM     14  C   UNL     1       6.873   5.592  17.736  0.00  0.00    +0.000 A 
ATOM     15  C   UNL     1       7.078   5.551  16.373  0.00  0.00    +0.000 A 
ATOM     16  C   UNL     1       6.386   4.612  15.592  0.00  0.00    +0.000 A 
ATOM     17  C   UNL     1       5.401   3.763  16.158  0.00  0.00    +0.000 A 
BRANCH  16  18
ATOM     18  C   UNL     1       6.746   4.559  14.158  0.00  0.00    +0.000 C 
ATOM     19  O   UNL     1       7.451   5.397  13.614  0.00  0.00    +0.000 OA
BRANCH  18  20
ATOM     20  O   UNL     1       6.313   3.439  13.548  0.00  0.00    +0.000 OA
ATOM     21  H   UNL     1       5.887   2.787  14.136  0.00  0.00    +0.000 HD
ENDBRANCH  18  20
ENDBRANCH  16  18
ENDBRANCH   9  12
BRANCH   1  22
ATOM     22  O   UNL     1       2.377   7.384  19.876  0.00  0.00    +0.000 OA
BRANCH  22  27
ATOM     23  C   UNL     1       0.249   9.365  22.203  0.00  0.00    +0.000 A 
ATOM     24  C   UNL     1      -0.227  10.305  21.290  0.00  0.00    +0.000 A 
ATOM     25  C   UNL     1       0.112  10.218  19.938  0.00  0.00    +0.000 A 
ATOM     26  C   UNL     1       0.962   9.206  19.496  0.00  0.00    +0.000 A 
ATOM     27  C   UNL     1       1.459   8.270  20.400  0.00  0.00    +0.000 A 
ATOM     28  C   UNL     1       0.994   8.284  21.722  0.00  0.00    +0.000 A 
BRANCH  23  29
ATOM     29  N   UNL     1      -0.182   9.392  23.536  0.00  0.00    +0.000 N 
ATOM     30  H   UNL     1      -0.669   8.549  23.824  0.00  0.00    +0.000 HD
ATOM     31  H   UNL     1      -0.691  10.232  23.791  0.00  0.00    +0.000 HD
ENDBRANCH  23  29
ENDBRANCH  22  27
ENDBRANCH   1  22
TORSDOF 6
ENDMDL
MODEL 5
REMARK VINA RESULT:      -9.1      1.594      2.089
REMARK  Name = 
REMARK  6 active torsions:
REMARK  status: ('A' for Active; 'I' for Inactive)
REMARK    1  A    between atoms: N_1  and  C_2
REMARK    2  A    between atoms: C_6  and  O_7
REMARK    3  A    between atoms: O_7  and  C_8
REMARK    4  A    between atoms: N_16  and  C_17
REMARK    5  A    between atoms: C_21  and  C_22
REMARK    6  A    between atoms: C_22  and  O_24
REMARK                            x       y       z     vdW  Elec       q    Type
REMARK                         _______ _______ _______ _____ _____    ______ ____
ROOT
ATOM      1  C   UNL     1       2.183   6.184  20.172  0.00  0.00    +0.000 A 
ATOM      2  C   UNL     1       1.019   5.451  20.386  0.00  0.00    +0.000 A 
ATOM      3  C   UNL     1       0.964   4.143  19.900  0.00  0.00    +0.000 A 
ATOM      4  C   UNL     1       2.137   3.555  19.464  0.00  0.00    +0.000 A 
ATOM      5  C   UNL     1       3.260   4.065  20.046  0.00  0.00    +0.000 A 
ATOM      6  C   UNL     1       3.363   5.459  20.051  0.00  0.00    +0.000 A 
ATOM      7  C   UNL     1       4.285   3.240  19.424  0.00  0.00    +0.000 C 
ATOM      8  O   UNL     1       4.945   2.426  20.043  0.00  0.00    +0.000 OA
ATOM      9  N   UNL     1       4.041   3.367  18.114  0.00  0.00    +0.000 N 
ATOM     10  C   UNL     1       2.659   3.471  17.999  0.00  0.00    +0.000 C 
ATOM     11  O   UNL     1       1.967   3.651  17.011  0.00  0.00    +0.000 OA
ENDROOT
BRANCH   9  12
ATOM     12  C   UNL     1       5.043   4.108  17.395  0.00  0.00    +0.000 A 
ATOM     13  C   UNL     1       5.380   3.637  16.089  0.00  0.00    +0.000 A 
ATOM     14  C   UNL     1       6.486   4.080  15.381  0.00  0.00    +0.000 A 
ATOM     15  C   UNL     1       7.236   5.111  15.906  0.00  0.00    +0.000 A 
ATOM     16  C   UNL     1       6.882   5.669  17.145  0.00  0.00    +0.000 A 
ATOM     17  C   UNL     1       5.825   5.131  17.922  0.00  0.00    +0.000 A 
BRANCH  16  18
ATOM     18  C   UNL     1       7.668   6.843  17.584  0.00  0.00    +0.000 C 
ATOM     19  O   UNL     1       7.750   7.874  16.933  0.00  0.00    +0.000 OA
BRANCH  18  20
ATOM     20  O   UNL     1       8.185   6.698  18.819  0.00  0.00    +0.000 OA
ATOM     21  H   UNL     1       7.757   7.237  19.511  0.00  0.00    +0.000 HD
ENDBRANCH  18  20
ENDBRANCH  16  18
ENDBRANCH   9  12
BRANCH   1  22
ATOM     22  O   UNL     1       2.271   7.547  20.032  0.00  0.00    +0.000 OA
BRANCH  22  27
ATOM     23  C   UNL     1       0.019   9.440  22.316  0.00  0.00    +0.000 A 
ATOM     24  C   UNL     1      -0.522  10.321  21.380  0.00  0.00    +0.000 A 
ATOM     25  C   UNL     1      -0.182  10.221  20.030  0.00  0.00    +0.000 A 
ATOM     26  C   UNL     1       0.734   9.259  19.611  0.00  0.00    +0.000 A 
ATOM     27  C   UNL     1       1.296   8.382  20.537  0.00  0.00    +0.000 A 
ATOM     28  C   UNL     1       0.834   8.400  21.859  0.00  0.00    +0.000 A 
BRANCH  23  29
ATOM     29  N   UNL     1      -0.409   9.473  23.649  0.00  0.00    +0.000 N 
ATOM     30  H   UNL     1       0.325   9.260  24.318  0.00  0.00    +0.000 HD
ATOM     31  H   UNL     1      -1.253   8.939  23.828  0.00  0.00    +0.000 HD
ENDBRANCH  23  29
ENDBRANCH  22  27
ENDBRANCH   1  22
TORSDOF 6
ENDMDL
MODEL 6
REMARK VINA RESULT:      -8.9      1.992      2.460
REMARK  Name = 
REMARK  6 active torsions:
REMARK  status: ('A' for Active; 'I' for Inactive)
REMARK    1  A    between atoms: N_1  and  C_2
REMARK    2  A    between atoms: C_6  and  O_7
REMARK    3  A    between atoms: O_7  and  C_8
REMARK    4  A    between atoms: N_16  and  C_17
REMARK    5  A    between atoms: C_21  and  C_22
REMARK    6  A    between atoms: C_22  and  O_24
REMARK                            x       y       z     vdW  Elec       q    Type
REMARK                         _______ _______ _______ _____ _____    ______ ____
ROOT
ATOM      1  C   UNL     1       2.178   5.682  20.627  0.00  0.00    +0.000 A 
ATOM      2  C   UNL     1       1.011   4.967  20.880  0.00  0.00    +0.000 A 
ATOM      3  C   UNL     1       0.745   3.841  20.098  0.00  0.00    +0.000 A 
ATOM      4  C   UNL     1       1.755   3.345  19.297  0.00  0.00    +0.000 A 
ATOM      5  C   UNL     1       3.010   3.633  19.748  0.00  0.00    +0.000 A 
ATOM      6  C   UNL     1       3.241   4.969  20.087  0.00  0.00    +0.000 A 
ATOM      7  C   UNL     1       3.820   2.965  18.740  0.00  0.00    +0.000 C 
ATOM      8  O   UNL     1       4.504   1.988  18.982  0.00  0.00    +0.000 OA
ATOM      9  N   UNL     1       3.350   3.449  17.584  0.00  0.00    +0.000 N 
ATOM     10  C   UNL     1       1.986   3.637  17.783  0.00  0.00    +0.000 C 
ATOM     11  O   UNL     1       1.142   4.104  17.037  0.00  0.00    +0.000 OA
ENDROOT
BRANCH   9  12
ATOM     12  C   UNL     1       4.265   4.315  16.889  0.00  0.00    +0.000 A 
ATOM     13  C   UNL     1       4.211   5.705  17.214  0.00  0.00    +0.000 A 
ATOM     14  C   UNL     1       4.838   6.688  16.464  0.00  0.00    +0.000 A 
ATOM     15  C   UNL     1       5.654   6.302  15.421  0.00  0.00    +0.000 A 
ATOM     16  C   UNL     1       5.812   4.938  15.129  0.00  0.00    +0.000 A 
ATOM     17  C   UNL     1       5.073   3.944  15.819  0.00  0.00    +0.000 A 
BRANCH  16  18
ATOM     18  C   UNL     1       6.790   4.604  14.069  0.00  0.00    +0.000 C 
ATOM     19  O   UNL     1       7.784   5.278  13.841  0.00  0.00    +0.000 OA
BRANCH  18  20
ATOM     20  O   UNL     1       6.531   3.428  13.467  0.00  0.00    +0.000 OA
ATOM     21  H   UNL     1       7.214   3.128  12.838  0.00  0.00    +0.000 HD
ENDBRANCH  18  20
ENDBRANCH  16  18
ENDBRANCH   9  12
BRANCH   1  22
ATOM     22  O   UNL     1       2.365   7.028  20.826  0.00  0.00    +0.000 OA
BRANCH  22  27
ATOM     23  C   UNL     1       0.299   9.902  19.667  0.00  0.00    +0.000 A 
ATOM     24  C   UNL     1       0.720   9.929  18.338  0.00  0.00    +0.000 A 
ATOM     25  C   UNL     1       1.611   8.968  17.854  0.00  0.00    +0.000 A 
ATOM     26  C   UNL     1       2.117   7.993  18.710  0.00  0.00    +0.000 A 
ATOM     27  C   UNL     1       1.719   7.963  20.045  0.00  0.00    +0.000 A 
ATOM     28  C   UNL     1       0.715   8.841  20.476  0.00  0.00    +0.000 A 
BRANCH  23  29
ATOM     29  N   UNL     1      -0.677  10.799  20.118  0.00  0.00    +0.000 N 
ATOM     30  H   UNL     1      -0.442  11.248  20.998  0.00  0.00    +0.000 HD
ATOM     31  H   UNL     1      -1.618  10.420  20.124  0.00  0.00    +0.000 HD
ENDBRANCH  23  29
ENDBRANCH  22  27
ENDBRANCH   1  22
TORSDOF 6
ENDMDL
MODEL 7
REMARK VINA RESULT:      -8.7      1.908      2.816
REMARK  Name = 
REMARK  6 active torsions:
REMARK  status: ('A' for Active; 'I' for Inactive)
REMARK    1  A    between atoms: N_1  and  C_2
REMARK    2  A    between atoms: C_6  and  O_7
REMARK    3  A    between atoms: O_7  and  C_8
REMARK    4  A    between atoms: N_16  and  C_17
REMARK    5  A    between atoms: C_21  and  C_22
REMARK    6  A    between atoms: C_22  and  O_24
REMARK                            x       y       z     vdW  Elec       q    Type
REMARK                         _______ _______ _______ _____ _____    ______ ____
ROOT
ATOM      1  C   UNL     1       2.267   6.139  20.016  0.00  0.00    +0.000 A 
ATOM      2  C   UNL     1       1.071   5.455  20.216  0.00  0.00    +0.000 A 
ATOM      3  C   UNL     1       0.999   4.121  19.811  0.00  0.00    +0.000 A 
ATOM      4  C   UNL     1       2.171   3.473  19.473  0.00  0.00    +0.000 A 
ATOM      5  C   UNL     1       3.280   3.986  20.078  0.00  0.00    +0.000 A 
ATOM      6  C   UNL     1       3.427   5.374  20.001  0.00  0.00    +0.000 A 
ATOM      7  C   UNL     1       4.308   3.094  19.562  0.00  0.00    +0.000 C 
ATOM      8  O   UNL     1       4.911   2.303  20.264  0.00  0.00    +0.000 OA
ATOM      9  N   UNL     1       4.133   3.143  18.237  0.00  0.00    +0.000 N 
ATOM     10  C   UNL     1       2.762   3.280  18.044  0.00  0.00    +0.000 C 
ATOM     11  O   UNL     1       2.126   3.416  17.013  0.00  0.00    +0.000 OA
ENDROOT
BRANCH   9  12
ATOM     12  C   UNL     1       5.192   3.808  17.524  0.00  0.00    +0.000 A 
ATOM     13  C   UNL     1       6.011   4.706  18.276  0.00  0.00    +0.000 A 
ATOM     14  C   UNL     1       6.896   5.599  17.693  0.00  0.00    +0.000 A 
ATOM     15  C   UNL     1       7.088   5.543  16.329  0.00  0.00    +0.000 A 
ATOM     16  C   UNL     1       6.374   4.607  15.563  0.00  0.00    +0.000 A 
ATOM     17  C   UNL     1       5.381   3.780  16.146  0.00  0.00    +0.000 A 
BRANCH  16  18
ATOM     18  C   UNL     1       6.720   4.535  14.126  0.00  0.00    +0.000 C 
ATOM     19  O   UNL     1       7.414   5.369  13.563  0.00  0.00    +0.000 OA
BRANCH  18  20
ATOM     20  O   UNL     1       6.290   3.403  13.538  0.00  0.00    +0.000 OA
ATOM     21  H   UNL     1       6.875   2.630  13.651  0.00  0.00    +0.000 HD
ENDBRANCH  18  20
ENDBRANCH  16  18
ENDBRANCH   9  12
BRANCH   1  22
ATOM     22  O   UNL     1       2.405   7.488  19.796  0.00  0.00    +0.000 OA
BRANCH  22  27
ATOM     23  C   UNL     1      -0.312   9.993  20.254  0.00  0.00    +0.000 A 
ATOM     24  C   UNL     1      -0.366   9.979  21.647  0.00  0.00    +0.000 A 
ATOM     25  C   UNL     1       0.529   9.202  22.386  0.00  0.00    +0.000 A 
ATOM     26  C   UNL     1       1.465   8.404  21.731  0.00  0.00    +0.000 A 
ATOM     27  C   UNL     1       1.520   8.395  20.339  0.00  0.00    +0.000 A 
ATOM     28  C   UNL     1       0.715   9.289  19.619  0.00  0.00    +0.000 A 
BRANCH  23  29
ATOM     29  N   UNL     1      -1.137  10.856  19.522  0.00  0.00    +0.000 N 
ATOM     30  H   UNL     1      -2.064  10.970  19.922  0.00  0.00    +0.000 HD
ATOM     31  H   UNL     1      -1.174  10.654  18.529  0.00  0.00    +0.000 HD
ENDBRANCH  23  29
ENDBRANCH  22  27
ENDBRANCH   1  22
TORSDOF 6
ENDMDL
MODEL 8
REMARK VINA RESULT:      -8.6      1.451      2.078
REMARK  Name = 
REMARK  6 active torsions:
REMARK  status: ('A' for Active; 'I' for Inactive)
REMARK    1  A    between atoms: N_1  and  C_2
REMARK    2  A    between atoms: C_6  and  O_7
REMARK    3  A    between atoms: O_7  and  C_8
REMARK    4  A    between atoms: N_16  and  C_17
REMARK    5  A    between atoms: C_21  and  C_22
REMARK    6  A    between atoms: C_22  and  O_24
REMARK                            x       y       z     vdW  Elec       q    Type
REMARK                         _______ _______ _______ _____ _____    ______ ____
ROOT
ATOM      1  C   UNL     1       2.097   6.341  20.160  0.00  0.00    +0.000 A 
ATOM      2  C   UNL     1       0.930   5.632  20.429  0.00  0.00    +0.000 A 
ATOM      3  C   UNL     1       0.855   4.302  20.010  0.00  0.00    +0.000 A 
ATOM      4  C   UNL     1       2.014   3.681  19.585  0.00  0.00    +0.000 A 
ATOM      5  C   UNL     1       3.151   4.208  20.122  0.00  0.00    +0.000 A 
ATOM      6  C   UNL     1       3.267   5.599  20.056  0.00  0.00    +0.000 A 
ATOM      7  C   UNL     1       4.159   3.342  19.526  0.00  0.00    +0.000 C 
ATOM      8  O   UNL     1       4.821   2.553  20.174  0.00  0.00    +0.000 OA
ATOM      9  N   UNL     1       3.894   3.407  18.215  0.00  0.00    +0.000 N 
ATOM     10  C   UNL     1       2.511   3.520  18.116  0.00  0.00    +0.000 C 
ATOM     11  O   UNL     1       1.805   3.658  17.132  0.00  0.00    +0.000 OA
ENDROOT
BRANCH   9  12
ATOM     12  C   UNL     1       4.891   4.101  17.444  0.00  0.00    +0.000 A 
ATOM     13  C   UNL     1       5.163   3.595  16.136  0.00  0.00    +0.000 A 
ATOM     14  C   UNL     1       6.255   3.989  15.379  0.00  0.00    +0.000 A 
ATOM     15  C   UNL     1       7.057   5.004  15.854  0.00  0.00    +0.000 A 
ATOM     16  C   UNL     1       6.768   5.597  17.094  0.00  0.00    +0.000 A 
ATOM     17  C   UNL     1       5.724   5.109  17.921  0.00  0.00    +0.000 A 
BRANCH  16  18
ATOM     18  C   UNL     1       7.607   6.753  17.480  0.00  0.00    +0.000 C 
ATOM     19  O   UNL     1       7.746   7.743  16.776  0.00  0.00    +0.000 OA
BRANCH  18  20
ATOM     20  O   UNL     1       8.104   6.649  18.727  0.00  0.00    +0.000 OA
ATOM     21  H   UNL     1       7.827   5.852  19.217  0.00  0.00    +0.000 HD
ENDBRANCH  18  20
ENDBRANCH  16  18
ENDBRANCH   9  12
BRANCH   1  22
ATOM     22  O   UNL     1       2.196   7.695  19.952  0.00  0.00    +0.000 OA
BRANCH  22  27
ATOM     23  C   UNL     1      -0.453  10.211  20.677  0.00  0.00    +0.000 A 
ATOM     24  C   UNL     1      -0.456  10.105  22.067  0.00  0.00    +0.000 A 
ATOM     25  C   UNL     1       0.451   9.267  22.719  0.00  0.00    +0.000 A 
ATOM     26  C   UNL     1       1.346   8.498  21.978  0.00  0.00    +0.000 A 
ATOM     27  C   UNL     1       1.349   8.580  20.587  0.00  0.00    +0.000 A 
ATOM     28  C   UNL     1       0.536   9.532  19.959  0.00  0.00    +0.000 A 
BRANCH  23  29
ATOM     29  N   UNL     1      -1.288  11.134  20.036  0.00  0.00    +0.000 N 
ATOM     30  H   UNL     1      -2.189  10.750  19.766  0.00  0.00    +0.000 HD
ATOM     31  H   UNL     1      -0.845  11.636  19.273  0.00  0.00    +0.000 HD
ENDBRANCH  23  29
ENDBRANCH  22  27
ENDBRANCH   1  22
TORSDOF 6
ENDMDL
MODEL 9
REMARK VINA RESULT:      -8.6      1.654      2.301
REMARK  Name = 
REMARK  6 active torsions:
REMARK  status: ('A' for Active; 'I' for Inactive)
REMARK    1  A    between atoms: N_1  and  C_2
REMARK    2  A    between atoms: C_6  and  O_7
REMARK    3  A    between atoms: O_7  and  C_8
REMARK    4  A    between atoms: N_16  and  C_17
REMARK    5  A    between atoms: C_21  and  C_22
REMARK    6  A    between atoms: C_22  and  O_24
REMARK                            x       y       z     vdW  Elec       q    Type
REMARK                         _______ _______ _______ _____ _____    ______ ____
ROOT
ATOM      1  C   UNL     1       1.791   4.895  20.758  0.00  0.00    +0.000 A 
ATOM      2  C   UNL     1       0.694   4.047  20.631  0.00  0.00    +0.000 A 
ATOM      3  C   UNL     1       0.845   2.881  19.878  0.00  0.00    +0.000 A 
ATOM      4  C   UNL     1       2.121   2.496  19.513  0.00  0.00    +0.000 A 
ATOM      5  C   UNL     1       3.096   2.945  20.355  0.00  0.00    +0.000 A 
ATOM      6  C   UNL     1       3.047   4.306  20.669  0.00  0.00    +0.000 A 
ATOM      7  C   UNL     1       4.278   2.361  19.738  0.00  0.00    +0.000 C 
ATOM      8  O   UNL     1       4.932   1.481  20.265  0.00  0.00    +0.000 OA
ATOM      9  N   UNL     1       4.198   2.759  18.463  0.00  0.00    +0.000 N 
ATOM     10  C   UNL     1       2.840   2.783  18.161  0.00  0.00    +0.000 C 
ATOM     11  O   UNL     1       2.271   3.127  17.139  0.00  0.00    +0.000 OA
ENDROOT
BRANCH   9  12
ATOM     12  C   UNL     1       5.202   3.716  18.079  0.00  0.00    +0.000 A 
ATOM     13  C   UNL     1       5.890   4.389  19.135  0.00  0.00    +0.000 A 
ATOM     14  C   UNL     1       6.690   5.503  18.935  0.00  0.00    +0.000 A 
ATOM     15  C   UNL     1       6.935   5.916  17.643  0.00  0.00    +0.000 A 
ATOM     16  C   UNL     1       6.355   5.222  16.568  0.00  0.00    +0.000 A 
ATOM     17  C   UNL     1       5.440   4.161  16.782  0.00  0.00    +0.000 A 
BRANCH  16  18
ATOM     18  C   UNL     1       6.757   5.659  15.213  0.00  0.00    +0.000 C 
ATOM     19  O   UNL     1       7.861   5.431  14.737  0.00  0.00    +0.000 OA
BRANCH  18  20
ATOM     20  O   UNL     1       5.751   6.227  14.523  0.00  0.00    +0.000 OA
ATOM     21  H   UNL     1       5.204   6.855  15.032  0.00  0.00    +0.000 HD
ENDBRANCH  18  20
ENDBRANCH  16  18
ENDBRANCH   9  12
BRANCH   1  22
ATOM     22  O   UNL     1       1.750   6.257  20.924  0.00  0.00    +0.000 OA
BRANCH  22  27
ATOM     23  C   UNL     1       2.960   7.697  17.710  0.00  0.00    +0.000 A 
ATOM     24  C   UNL     1       2.267   8.906  17.758  0.00  0.00    +0.000 A 
ATOM     25  C   UNL     1       1.484   9.234  18.867  0.00  0.00    +0.000 A 
ATOM     26  C   UNL     1       1.360   8.334  19.923  0.00  0.00    +0.000 A 
ATOM     27  C   UNL     1       2.033   7.115  19.882  0.00  0.00    +0.000 A 
ATOM     28  C   UNL     1       2.927   6.865  18.833  0.00  0.00    +0.000 A 
BRANCH  23  29
ATOM     29  N   UNL     1       3.830   7.421  16.648  0.00  0.00    +0.000 N 
ATOM     30  H   UNL     1       3.598   7.916  15.792  0.00  0.00    +0.000 HD
ATOM     31  H   UNL     1       3.986   6.432  16.484  0.00  0.00    +0.000 HD
ENDBRANCH  23  29
ENDBRANCH  22  27
ENDBRANCH   1  22
TORSDOF 6
ENDMDL
