MODEL 1
REMARK VINA RESULT:      -8.0      0.000      0.000
REMARK  Name = 
REMARK  1 active torsions:
REMARK  status: ('A' for Active; 'I' for Inactive)
REMARK    1  A    between atoms: C_7  and  C_8
REMARK                            x       y       z     vdW  Elec       q    Type
REMARK                         _______ _______ _______ _____ _____    ______ ____
ROOT
ATOM      1  C   UNL     1       4.124   3.305  17.590  0.00  0.00    +0.000 A 
ATOM      2  N   UNL     1       4.100   1.928  17.629  0.00  0.00    +0.000 NA
ATOM      3  N   UNL     1       3.126   1.543  18.433  0.00  0.00    +0.000 NA
ATOM      4  N   UNL     1       2.558   2.652  18.913  0.00  0.00    +0.000 N 
ATOM      5  C   UNL     1       3.127   3.808  18.426  0.00  0.00    +0.000 A 
ATOM      6  C   UNL     1       2.656   5.126  18.881  0.00  0.00    +0.000 A 
ATOM      7  C   UNL     1       2.885   6.288  18.130  0.00  0.00    +0.000 A 
ATOM      8  C   UNL     1       2.570   7.551  18.641  0.00  0.00    +0.000 A 
ATOM      9  C   UNL     1       1.965   7.669  19.886  0.00  0.00    +0.000 A 
ATOM     10  C   UNL     1       1.650   6.524  20.613  0.00  0.00    +0.000 A 
ATOM     11  C   UNL     1       1.979   5.253  20.114  0.00  0.00    +0.000 A 
ATOM     12  S   UNL     1       1.518   3.846  21.131  0.00  0.00    +0.000 S 
ATOM     13  C   UNL     1       1.442   2.576  19.834  0.00  0.00    +0.000 C 
ENDROOT
BRANCH   1  20
ATOM     14 CL   UNL     1       6.260   5.108  19.055  0.00  0.00    +0.000 Cl
ATOM     15  C   UNL     1       6.105   4.832  17.352  0.00  0.00    +0.000 A 
ATOM     16  C   UNL     1       7.079   5.431  16.541  0.00  0.00    +0.000 A 
ATOM     17  C   UNL     1       7.072   5.234  15.162  0.00  0.00    +0.000 A 
ATOM     18  C   UNL     1       6.053   4.490  14.580  0.00  0.00    +0.000 A 
ATOM     19  C   UNL     1       5.053   3.929  15.380  0.00  0.00    +0.000 A 
ATOM     20  C   UNL     1       5.096   4.031  16.783  0.00  0.00    +0.000 A 
ENDBRANCH   1  20
TORSDOF 1
ENDMDL
MODEL 2
REMARK VINA RESULT:      -6.9      1.316      1.849
REMARK  Name = 
REMARK  1 active torsions:
REMARK  status: ('A' for Active; 'I' for Inactive)
REMARK    1  A    between atoms: C_7  and  C_8
REMARK                            x       y       z     vdW  Elec       q    Type
REMARK                         _______ _______ _______ _____ _____    ______ ____
ROOT
ATOM      1  C   UNL     1       4.456   3.684  17.925  0.00  0.00    +0.000 A 
ATOM      2  N   UNL     1       4.509   2.353  17.575  0.00  0.00    +0.000 NA
ATOM      3  N   UNL     1       3.377   1.775  17.934  0.00  0.00    +0.000 NA
ATOM      4  N   UNL     1       2.631   2.713  18.520  0.00  0.00    +0.000 N 
ATOM      5  C   UNL     1       3.238   3.948  18.552  0.00  0.00    +0.000 A 
ATOM      6  C   UNL     1       2.578   5.094  19.201  0.00  0.00    +0.000 A 
ATOM      7  C   UNL     1       2.932   6.416  18.895  0.00  0.00    +0.000 A 
ATOM      8  C   UNL     1       2.410   7.488  19.625  0.00  0.00    +0.000 A 
ATOM      9  C   UNL     1       1.479   7.261  20.631  0.00  0.00    +0.000 A 
ATOM     10  C   UNL     1       1.049   5.963  20.895  0.00  0.00    +0.000 A 
ATOM     11  C   UNL     1       1.581   4.879  20.178  0.00  0.00    +0.000 A 
ATOM     12  S   UNL     1       0.948   3.251  20.595  0.00  0.00    +0.000 S 
ATOM     13  C   UNL     1       1.311   2.401  19.031  0.00  0.00    +0.000 C 
ENDROOT
BRANCH   1  20
ATOM     14 CL   UNL     1       5.167   4.363  14.926  0.00  0.00    +0.000 Cl
ATOM     15  C   UNL     1       5.932   4.976  16.355  0.00  0.00    +0.000 A 
ATOM     16  C   UNL     1       6.941   5.929  16.152  0.00  0.00    +0.000 A 
ATOM     17  C   UNL     1       7.588   6.517  17.236  0.00  0.00    +0.000 A 
ATOM     18  C   UNL     1       7.274   6.110  18.527  0.00  0.00    +0.000 A 
ATOM     19  C   UNL     1       6.301   5.127  18.732  0.00  0.00    +0.000 A 
ATOM     20  C   UNL     1       5.566   4.591  17.658  0.00  0.00    +0.000 A 
ENDBRANCH   1  20
TORSDOF 1
ENDMDL
MODEL 3
REMARK VINA RESULT:      -6.8      1.755      2.438
REMARK  Name = 
REMARK  1 active torsions:
REMARK  status: ('A' for Active; 'I' for Inactive)
REMARK    1  A    between atoms: C_7  and  C_8
REMARK                            x       y       z     vdW  Elec       q    Type
REMARK                         _______ _______ _______ _____ _____    ______ ____
ROOT
ATOM      1  C   UNL     1       5.158   4.331  17.517  0.00  0.00    +0.000 A 
ATOM      2  N   UNL     1       5.447   3.190  16.801  0.00  0.00    +0.000 NA
ATOM      3  N   UNL     1       4.394   2.393  16.831  0.00  0.00    +0.000 NA
ATOM      4  N   UNL     1       3.465   3.005  17.570  0.00  0.00    +0.000 N 
ATOM      5  C   UNL     1       3.867   4.236  18.037  0.00  0.00    +0.000 A 
ATOM      6  C   UNL     1       2.987   5.034  18.906  0.00  0.00    +0.000 A 
ATOM      7  C   UNL     1       3.152   6.420  19.048  0.00  0.00    +0.000 A 
ATOM      8  C   UNL     1       2.412   7.141  19.989  0.00  0.00    +0.000 A 
ATOM      9  C   UNL     1       1.451   6.501  20.761  0.00  0.00    +0.000 A 
ATOM     10  C   UNL     1       1.209   5.142  20.578  0.00  0.00    +0.000 A 
ATOM     11  C   UNL     1       1.960   4.407  19.647  0.00  0.00    +0.000 A 
ATOM     12  S   UNL     1       1.558   2.663  19.486  0.00  0.00    +0.000 S 
ATOM     13  C   UNL     1       2.174   2.389  17.799  0.00  0.00    +0.000 C 
ENDROOT
BRANCH   1  20
ATOM     14 CL   UNL     1       4.957   6.831  15.599  0.00  0.00    +0.000 Cl
ATOM     15  C   UNL     1       6.096   6.573  16.879  0.00  0.00    +0.000 A 
ATOM     16  C   UNL     1       6.990   7.626  17.127  0.00  0.00    +0.000 A 
ATOM     17  C   UNL     1       7.916   7.538  18.164  0.00  0.00    +0.000 A 
ATOM     18  C   UNL     1       7.997   6.373  18.917  0.00  0.00    +0.000 A 
ATOM     19  C   UNL     1       7.139   5.304  18.643  0.00  0.00    +0.000 A 
ATOM     20  C   UNL     1       6.130   5.408  17.667  0.00  0.00    +0.000 A 
ENDBRANCH   1  20
TORSDOF 1
ENDMDL
MODEL 4
REMARK VINA RESULT:      -6.6      2.583      5.252
REMARK  Name = 
REMARK  1 active torsions:
REMARK  status: ('A' for Active; 'I' for Inactive)
REMARK    1  A    between atoms: C_7  and  C_8
REMARK                            x       y       z     vdW  Elec       q    Type
REMARK                         _______ _______ _______ _____ _____    ______ ____
ROOT
ATOM      1  C   UNL     1       2.202   6.454  19.767  0.00  0.00    +0.000 A 
ATOM      2  N   UNL     1       1.624   5.852  20.863  0.00  0.00    +0.000 NA
ATOM      3  N   UNL     1       2.117   4.633  20.986  0.00  0.00    +0.000 NA
ATOM      4  N   UNL     1       2.972   4.456  19.976  0.00  0.00    +0.000 N 
ATOM      5  C   UNL     1       3.087   5.560  19.162  0.00  0.00    +0.000 A 
ATOM      6  C   UNL     1       3.953   5.529  17.973  0.00  0.00    +0.000 A 
ATOM      7  C   UNL     1       4.431   6.707  17.380  0.00  0.00    +0.000 A 
ATOM      8  C   UNL     1       5.123   6.674  16.166  0.00  0.00    +0.000 A 
ATOM      9  C   UNL     1       5.404   5.458  15.555  0.00  0.00    +0.000 A 
ATOM     10  C   UNL     1       5.014   4.270  16.169  0.00  0.00    +0.000 A 
ATOM     11  C   UNL     1       4.303   4.296  17.379  0.00  0.00    +0.000 A 
ATOM     12  S   UNL     1       3.859   2.705  18.086  0.00  0.00    +0.000 S 
ATOM     13  C   UNL     1       3.692   3.208  19.824  0.00  0.00    +0.000 C 
ENDROOT
BRANCH   1  20
ATOM     14 CL   UNL     1       1.111   8.442  21.962  0.00  0.00    +0.000 Cl
ATOM     15  C   UNL     1       1.397   8.776  20.286  0.00  0.00    +0.000 A 
ATOM     16  C   UNL     1       1.174  10.099  19.876  0.00  0.00    +0.000 A 
ATOM     17  C   UNL     1       1.418  10.483  18.560  0.00  0.00    +0.000 A 
ATOM     18  C   UNL     1       1.824   9.533  17.631  0.00  0.00    +0.000 A 
ATOM     19  C   UNL     1       2.003   8.204  18.025  0.00  0.00    +0.000 A 
ATOM     20  C   UNL     1       1.858   7.814  19.369  0.00  0.00    +0.000 A 
ENDBRANCH   1  20
TORSDOF 1
ENDMDL
MODEL 5
REMARK VINA RESULT:      -6.6      2.413      3.435
REMARK  Name = 
REMARK  1 active torsions:
REMARK  status: ('A' for Active; 'I' for Inactive)
REMARK    1  A    between atoms: C_7  and  C_8
REMARK                            x       y       z     vdW  Elec       q    Type
REMARK                         _______ _______ _______ _____ _____    ______ ____
ROOT
ATOM      1  C   UNL     1       4.252   6.393  17.408  0.00  0.00    +0.000 A 
ATOM      2  N   UNL     1       3.779   7.660  17.146  0.00  0.00    +0.000 NA
ATOM      3  N   UNL     1       2.953   8.012  18.115  0.00  0.00    +0.000 NA
ATOM      4  N   UNL     1       2.884   6.981  18.960  0.00  0.00    +0.000 N 
ATOM      5  C   UNL     1       3.677   5.920  18.588  0.00  0.00    +0.000 A 
ATOM      6  C   UNL     1       3.693   4.679  19.380  0.00  0.00    +0.000 A 
ATOM      7  C   UNL     1       4.759   3.771  19.304  0.00  0.00    +0.000 A 
ATOM      8  C   UNL     1       4.693   2.528  19.940  0.00  0.00    +0.000 A 
ATOM      9  C   UNL     1       3.588   2.196  20.713  0.00  0.00    +0.000 A 
ATOM     10  C   UNL     1       2.554   3.116  20.872  0.00  0.00    +0.000 A 
ATOM     11  C   UNL     1       2.605   4.360  20.223  0.00  0.00    +0.000 A 
ATOM     12  S   UNL     1       1.223   5.472  20.506  0.00  0.00    +0.000 S 
ATOM     13  C   UNL     1       2.053   7.047  20.145  0.00  0.00    +0.000 C 
ENDROOT
BRANCH   1  20
ATOM     14 CL   UNL     1       7.345   6.697  17.956  0.00  0.00    +0.000 Cl
ATOM     15  C   UNL     1       6.583   5.778  16.700  0.00  0.00    +0.000 A 
ATOM     16  C   UNL     1       7.441   5.038  15.873  0.00  0.00    +0.000 A 
ATOM     17  C   UNL     1       6.926   4.230  14.862  0.00  0.00    +0.000 A 
ATOM     18  C   UNL     1       5.557   4.208  14.630  0.00  0.00    +0.000 A 
ATOM     19  C   UNL     1       4.702   4.980  15.423  0.00  0.00    +0.000 A 
ATOM     20  C   UNL     1       5.189   5.725  16.513  0.00  0.00    +0.000 A 
ENDBRANCH   1  20
TORSDOF 1
ENDMDL
MODEL 6
REMARK VINA RESULT:      -6.5      1.226      1.596
REMARK  Name = 
REMARK  1 active torsions:
REMARK  status: ('A' for Active; 'I' for Inactive)
REMARK    1  A    between atoms: C_7  and  C_8
REMARK                            x       y       z     vdW  Elec       q    Type
REMARK                         _______ _______ _______ _____ _____    ______ ____
ROOT
ATOM      1  C   UNL     1       3.969   4.254  18.445  0.00  0.00    +0.000 A 
ATOM      2  N   UNL     1       3.839   3.038  19.080  0.00  0.00    +0.000 NA
ATOM      3  N   UNL     1       2.827   3.107  19.925  0.00  0.00    +0.000 NA
ATOM      4  N   UNL     1       2.340   4.348  19.846  0.00  0.00    +0.000 N 
ATOM      5  C   UNL     1       3.003   5.135  18.931  0.00  0.00    +0.000 A 
ATOM      6  C   UNL     1       2.629   6.546  18.742  0.00  0.00    +0.000 A 
ATOM      7  C   UNL     1       2.958   7.244  17.571  0.00  0.00    +0.000 A 
ATOM      8  C   UNL     1       2.735   8.620  17.466  0.00  0.00    +0.000 A 
ATOM      9  C   UNL     1       2.123   9.310  18.505  0.00  0.00    +0.000 A 
ATOM     10  C   UNL     1       1.711   8.622  19.643  0.00  0.00    +0.000 A 
ATOM     11  C   UNL     1       1.947   7.243  19.764  0.00  0.00    +0.000 A 
ATOM     12  S   UNL     1       1.364   6.456  21.271  0.00  0.00    +0.000 S 
ATOM     13  C   UNL     1       1.208   4.755  20.655  0.00  0.00    +0.000 C 
ENDROOT
BRANCH   1  20
ATOM     14 CL   UNL     1       6.714   5.499  19.382  0.00  0.00    +0.000 Cl
ATOM     15  C   UNL     1       6.271   5.010  17.780  0.00  0.00    +0.000 A 
ATOM     16  C   UNL     1       7.272   5.126  16.804  0.00  0.00    +0.000 A 
ATOM     17  C   UNL     1       7.033   4.717  15.494  0.00  0.00    +0.000 A 
ATOM     18  C   UNL     1       5.774   4.251  15.138  0.00  0.00    +0.000 A 
ATOM     19  C   UNL     1       4.760   4.176  16.098  0.00  0.00    +0.000 A 
ATOM     20  C   UNL     1       5.007   4.490  17.448  0.00  0.00    +0.000 A 
ENDBRANCH   1  20
TORSDOF 1
ENDMDL
MODEL 7
REMARK VINA RESULT:      -6.4      3.169      6.139
REMARK  Name = 
REMARK  1 active torsions:
REMARK  status: ('A' for Active; 'I' for Inactive)
REMARK    1  A    between atoms: C_7  and  C_8
REMARK                            x       y       z     vdW  Elec       q    Type
REMARK                         _______ _______ _______ _____ _____    ______ ____
ROOT
ATOM      1  C   UNL     1       2.478   7.609  18.855  0.00  0.00    +0.000 A 
ATOM      2  N   UNL     1       3.125   8.301  17.854  0.00  0.00    +0.000 NA
ATOM      3  N   UNL     1       3.843   7.448  17.145  0.00  0.00    +0.000 NA
ATOM      4  N   UNL     1       3.674   6.245  17.699  0.00  0.00    +0.000 N 
ATOM      5  C   UNL     1       2.823   6.259  18.781  0.00  0.00    +0.000 A 
ATOM      6  C   UNL     1       2.554   5.028  19.542  0.00  0.00    +0.000 A 
ATOM      7  C   UNL     1       1.412   4.894  20.345  0.00  0.00    +0.000 A 
ATOM      8  C   UNL     1       1.244   3.786  21.180  0.00  0.00    +0.000 A 
ATOM      9  C   UNL     1       2.185   2.764  21.182  0.00  0.00    +0.000 A 
ATOM     10  C   UNL     1       3.285   2.835  20.331  0.00  0.00    +0.000 A 
ATOM     11  C   UNL     1       3.470   3.953  19.501  0.00  0.00    +0.000 A 
ATOM     12  S   UNL     1       4.917   3.935  18.437  0.00  0.00    +0.000 S 
ATOM     13  C   UNL     1       4.332   5.076  17.150  0.00  0.00    +0.000 C 
ENDROOT
BRANCH   1  20
ATOM     14 CL   UNL     1       0.380   9.703  17.771  0.00  0.00    +0.000 Cl
ATOM     15  C   UNL     1       0.618   9.204  19.413  0.00  0.00    +0.000 A 
ATOM     16  C   UNL     1      -0.265   9.749  20.356  0.00  0.00    +0.000 A 
ATOM     17  C   UNL     1      -0.188   9.378  21.696  0.00  0.00    +0.000 A 
ATOM     18  C   UNL     1       0.814   8.509  22.112  0.00  0.00    +0.000 A 
ATOM     19  C   UNL     1       1.725   7.998  21.182  0.00  0.00    +0.000 A 
ATOM     20  C   UNL     1       1.604   8.281  19.809  0.00  0.00    +0.000 A 
ENDBRANCH   1  20
TORSDOF 1
ENDMDL
MODEL 8
REMARK VINA RESULT:      -6.3      5.461      7.393
REMARK  Name = 
REMARK  1 active torsions:
REMARK  status: ('A' for Active; 'I' for Inactive)
REMARK    1  A    between atoms: C_7  and  C_8
REMARK                            x       y       z     vdW  Elec       q    Type
REMARK                         _______ _______ _______ _____ _____    ______ ____
ROOT
ATOM      1  C   UNL     1       0.879   9.388  20.759  0.00  0.00    +0.000 A 
ATOM      2  N   UNL     1       1.312   9.610  22.048  0.00  0.00    +0.000 NA
ATOM      3  N   UNL     1       0.510  10.490  22.619  0.00  0.00    +0.000 NA
ATOM      4  N   UNL     1      -0.398  10.838  21.704  0.00  0.00    +0.000 N 
ATOM      5  C   UNL     1      -0.237  10.184  20.503  0.00  0.00    +0.000 A 
ATOM      6  C   UNL     1      -1.123  10.475  19.365  0.00  0.00    +0.000 A 
ATOM      7  C   UNL     1      -1.282   9.570  18.306  0.00  0.00    +0.000 A 
ATOM      8  C   UNL     1      -2.003   9.920  17.160  0.00  0.00    +0.000 A 
ATOM      9  C   UNL     1      -2.627  11.158  17.079  0.00  0.00    +0.000 A 
ATOM     10  C   UNL     1      -2.554  12.041  18.154  0.00  0.00    +0.000 A 
ATOM     11  C   UNL     1      -1.818  11.704  19.301  0.00  0.00    +0.000 A 
ATOM     12  S   UNL     1      -1.800  12.913  20.629  0.00  0.00    +0.000 S 
ATOM     13  C   UNL     1      -1.437  11.798  22.017  0.00  0.00    +0.000 C 
ENDROOT
BRANCH   1  20
ATOM     14 CL   UNL     1       2.043  10.481  18.037  0.00  0.00    +0.000 Cl
ATOM     15  C   UNL     1       2.145   8.865  18.653  0.00  0.00    +0.000 A 
ATOM     16  C   UNL     1       2.883   7.957  17.879  0.00  0.00    +0.000 A 
ATOM     17  C   UNL     1       3.064   6.645  18.308  0.00  0.00    +0.000 A 
ATOM     18  C   UNL     1       2.455   6.214  19.480  0.00  0.00    +0.000 A 
ATOM     19  C   UNL     1       1.682   7.104  20.232  0.00  0.00    +0.000 A 
ATOM     20  C   UNL     1       1.567   8.459  19.870  0.00  0.00    +0.000 A 
ENDBRANCH   1  20
TORSDOF 1
ENDMDL
MODEL 9
REMARK VINA RESULT:      -6.1      3.914      5.579
REMARK  Name = 
REMARK  1 active torsions:
REMARK  status: ('A' for Active; 'I' for Inactive)
REMARK    1  A    between atoms: C_7  and  C_8
REMARK                            x       y       z     vdW  Elec       q    Type
REMARK                         _______ _______ _______ _____ _____    ______ ____
ROOT
ATOM      1  C   UNL     1       2.583   6.181  18.913  0.00  0.00    +0.000 A 
ATOM      2  N   UNL     1       3.424   6.080  17.826  0.00  0.00    +0.000 NA
ATOM      3  N   UNL     1       3.649   7.292  17.351  0.00  0.00    +0.000 NA
ATOM      4  N   UNL     1       2.947   8.141  18.105  0.00  0.00    +0.000 N 
ATOM      5  C   UNL     1       2.249   7.520  19.117  0.00  0.00    +0.000 A 
ATOM      6  C   UNL     1       1.385   8.297  20.021  0.00  0.00    +0.000 A 
ATOM      7  C   UNL     1       1.012   7.809  21.281  0.00  0.00    +0.000 A 
ATOM      8  C   UNL     1       0.072   8.483  22.066  0.00  0.00    +0.000 A 
ATOM      9  C   UNL     1      -0.466   9.688  21.630  0.00  0.00    +0.000 A 
ATOM     10  C   UNL     1      -0.047  10.235  20.420  0.00  0.00    +0.000 A 
ATOM     11  C   UNL     1       0.885   9.555  19.618  0.00  0.00    +0.000 A 
ATOM     12  S   UNL     1       1.361  10.357  18.083  0.00  0.00    +0.000 S 
ATOM     13  C   UNL     1       2.979   9.566  17.845  0.00  0.00    +0.000 C 
ENDROOT
BRANCH   1  20
ATOM     14 CL   UNL     1       0.923   3.963  17.401  0.00  0.00    +0.000 Cl
ATOM     15  C   UNL     1       1.434   3.951  19.056  0.00  0.00    +0.000 A 
ATOM     16  C   UNL     1       1.124   2.795  19.786  0.00  0.00    +0.000 A 
ATOM     17  C   UNL     1       1.530   2.665  21.113  0.00  0.00    +0.000 A 
ATOM     18  C   UNL     1       2.190   3.717  21.735  0.00  0.00    +0.000 A 
ATOM     19  C   UNL     1       2.460   4.890  21.024  0.00  0.00    +0.000 A 
ATOM     20  C   UNL     1       2.148   5.004  19.656  0.00  0.00    +0.000 A 
ENDBRANCH   1  20
TORSDOF 1
ENDMDL
