MODEL 1
REMARK VINA RESULT:      -7.1      0.000      0.000
REMARK  Name = 
REMARK  6 active torsions:
REMARK  status: ('A' for Active; 'I' for Inactive)
REMARK    1  A    between atoms: C_1  and  N_2
REMARK    2  A    between atoms: N_2  and  C_3
REMARK    3  A    between atoms: N_2  and  C_4
REMARK    4  A    between atoms: C_9  and  C_10
REMARK    5  A    between atoms: C_10  and  N_11
REMARK    6  A    between atoms: C_12  and  C_14
REMARK                            x       y       z     vdW  Elec       q    Type
REMARK                         _______ _______ _______ _____ _____    ______ ____
ROOT
ATOM      1  C   UNL     1       4.147   6.065  17.498  0.00  0.00    +0.000 C 
ENDROOT
BRANCH   1   7
ATOM      2  C   UNL     1       6.579   5.827  16.785  0.00  0.00    +0.000 A 
ATOM      3  N   UNL     1       7.500   5.415  15.875  0.00  0.00    +0.000 NA
ATOM      4  C   UNL     1       7.118   4.739  14.773  0.00  0.00    +0.000 A 
ATOM      5  C   UNL     1       5.814   4.420  14.493  0.00  0.00    +0.000 A 
ATOM      6  C   UNL     1       4.850   4.838  15.398  0.00  0.00    +0.000 A 
ATOM      7  C   UNL     1       5.209   5.554  16.559  0.00  0.00    +0.000 A 
BRANCH   2   9
ATOM      8  C   UNL     1       7.692   5.936  19.024  0.00  0.00    +0.000 C 
ATOM      9  N   UNL     1       7.073   6.567  17.866  0.00  0.00    +0.000 N 
ATOM     10  C   UNL     1       7.635   7.871  17.506  0.00  0.00    +0.000 C 
ENDBRANCH   2   9
ENDBRANCH   1   7
BRANCH   1  11
ATOM     11  N   UNL     1       3.771   5.204  18.594  0.00  0.00    +0.000 N 
ATOM     12  C   UNL     1       2.504   4.656  18.600  0.00  0.00    +0.000 C 
ATOM     13  O   UNL     1       1.726   4.747  17.655  0.00  0.00    +0.000 OA
ATOM     14  H   UNL     1       4.211   5.361  19.484  0.00  0.00    +0.000 HD
BRANCH  12  15
ATOM     15  C   UNL     1       2.145   3.970  19.826  0.00  0.00    +0.000 A 
ATOM     16  C   UNL     1       1.221   2.915  20.074  0.00  0.00    +0.000 A 
ATOM     17  C   UNL     1       1.271   2.667  21.425  0.00  0.00    +0.000 A 
ATOM     18  O   UNL     1       2.168   3.482  22.028  0.00  0.00    +0.000 OA
ATOM     19  C   UNL     1       2.695   4.265  21.057  0.00  0.00    +0.000 A 
ENDBRANCH  12  15
ENDBRANCH   1  11
TORSDOF 4
ENDMDL
MODEL 2
REMARK VINA RESULT:      -6.8      1.214      1.412
REMARK  Name = 
REMARK  6 active torsions:
REMARK  status: ('A' for Active; 'I' for Inactive)
REMARK    1  A    between atoms: C_1  and  N_2
REMARK    2  A    between atoms: N_2  and  C_3
REMARK    3  A    between atoms: N_2  and  C_4
REMARK    4  A    between atoms: C_9  and  C_10
REMARK    5  A    between atoms: C_10  and  N_11
REMARK    6  A    between atoms: C_12  and  C_14
REMARK                            x       y       z     vdW  Elec       q    Type
REMARK                         _______ _______ _______ _____ _____    ______ ____
ROOT
ATOM      1  C   UNL     1       4.274   6.615  17.253  0.00  0.00    +0.000 C 
ENDROOT
BRANCH   1   7
ATOM      2  C   UNL     1       6.675   5.896  16.809  0.00  0.00    +0.000 A 
ATOM      3  N   UNL     1       7.583   5.261  16.022  0.00  0.00    +0.000 NA
ATOM      4  C   UNL     1       7.186   4.586  14.926  0.00  0.00    +0.000 A 
ATOM      5  C   UNL     1       5.876   4.486  14.530  0.00  0.00    +0.000 A 
ATOM      6  C   UNL     1       4.927   5.134  15.307  0.00  0.00    +0.000 A 
ATOM      7  C   UNL     1       5.304   5.856  16.458  0.00  0.00    +0.000 A 
BRANCH   2   9
ATOM      8  C   UNL     1       7.876   5.957  19.004  0.00  0.00    +0.000 C 
ATOM      9  N   UNL     1       7.196   6.611  17.893  0.00  0.00    +0.000 N 
ATOM     10  C   UNL     1       7.714   7.939  17.555  0.00  0.00    +0.000 C 
ENDBRANCH   2   9
ENDBRANCH   1   7
BRANCH   1  11
ATOM     11  N   UNL     1       3.225   5.842  17.875  0.00  0.00    +0.000 N 
ATOM     12  C   UNL     1       3.470   5.263  19.104  0.00  0.00    +0.000 C 
ATOM     13  O   UNL     1       4.481   5.484  19.763  0.00  0.00    +0.000 OA
ATOM     14  H   UNL     1       2.561   5.386  17.274  0.00  0.00    +0.000 HD
BRANCH  12  15
ATOM     15  C   UNL     1       2.441   4.349  19.560  0.00  0.00    +0.000 A 
ATOM     16  C   UNL     1       2.116   3.878  20.865  0.00  0.00    +0.000 A 
ATOM     17  C   UNL     1       1.060   3.012  20.712  0.00  0.00    +0.000 A 
ATOM     18  O   UNL     1       0.699   2.924  19.410  0.00  0.00    +0.000 OA
ATOM     19  C   UNL     1       1.534   3.736  18.720  0.00  0.00    +0.000 A 
ENDBRANCH  12  15
ENDBRANCH   1  11
TORSDOF 4
ENDMDL
MODEL 3
REMARK VINA RESULT:      -6.7      3.131      6.568
REMARK  Name = 
REMARK  6 active torsions:
REMARK  status: ('A' for Active; 'I' for Inactive)
REMARK    1  A    between atoms: C_1  and  N_2
REMARK    2  A    between atoms: N_2  and  C_3
REMARK    3  A    between atoms: N_2  and  C_4
REMARK    4  A    between atoms: C_9  and  C_10
REMARK    5  A    between atoms: C_10  and  N_11
REMARK    6  A    between atoms: C_12  and  C_14
REMARK                            x       y       z     vdW  Elec       q    Type
REMARK                         _______ _______ _______ _____ _____    ______ ____
ROOT
ATOM      1  C   UNL     1       6.011   4.459  17.679  0.00  0.00    +0.000 C 
ENDROOT
BRANCH   1   7
ATOM      2  C   UNL     1       3.644   4.423  18.613  0.00  0.00    +0.000 A 
ATOM      3  N   UNL     1       2.460   5.053  18.833  0.00  0.00    +0.000 NA
ATOM      4  C   UNL     1       2.303   6.350  18.503  0.00  0.00    +0.000 A 
ATOM      5  C   UNL     1       3.293   7.115  17.941  0.00  0.00    +0.000 A 
ATOM      6  C   UNL     1       4.510   6.497  17.694  0.00  0.00    +0.000 A 
ATOM      7  C   UNL     1       4.711   5.139  18.018  0.00  0.00    +0.000 A 
BRANCH   2   9
ATOM      8  C   UNL     1       3.599   2.591  20.317  0.00  0.00    +0.000 C 
ATOM      9  N   UNL     1       3.686   3.064  18.941  0.00  0.00    +0.000 N 
ATOM     10  C   UNL     1       3.071   2.177  17.950  0.00  0.00    +0.000 C 
ENDBRANCH   2   9
ENDBRANCH   1   7
BRANCH   1  11
ATOM     11  N   UNL     1       6.200   4.048  16.308  0.00  0.00    +0.000 N 
ATOM     12  C   UNL     1       6.865   4.899  15.448  0.00  0.00    +0.000 C 
ATOM     13  O   UNL     1       7.429   5.924  15.817  0.00  0.00    +0.000 OA
ATOM     14  H   UNL     1       5.517   3.427  15.908  0.00  0.00    +0.000 HD
BRANCH  12  15
ATOM     15  C   UNL     1       6.835   4.497  14.054  0.00  0.00    +0.000 A 
ATOM     16  C   UNL     1       6.038   3.531  13.375  0.00  0.00    +0.000 A 
ATOM     17  C   UNL     1       6.443   3.551  12.061  0.00  0.00    +0.000 A 
ATOM     18  O   UNL     1       7.422   4.469  11.877  0.00  0.00    +0.000 OA
ATOM     19  C   UNL     1       7.652   5.039  13.083  0.00  0.00    +0.000 A 
ENDBRANCH  12  15
ENDBRANCH   1  11
TORSDOF 4
ENDMDL
MODEL 4
REMARK VINA RESULT:      -6.6      0.778      1.128
REMARK  Name = 
REMARK  6 active torsions:
REMARK  status: ('A' for Active; 'I' for Inactive)
REMARK    1  A    between atoms: C_1  and  N_2
REMARK    2  A    between atoms: N_2  and  C_3
REMARK    3  A    between atoms: N_2  and  C_4
REMARK    4  A    between atoms: C_9  and  C_10
REMARK    5  A    between atoms: C_10  and  N_11
REMARK    6  A    between atoms: C_12  and  C_14
REMARK                            x       y       z     vdW  Elec       q    Type
REMARK                         _______ _______ _______ _____ _____    ______ ____
ROOT
ATOM      1  C   UNL     1       4.713   6.000  17.942  0.00  0.00    +0.000 C 
ENDROOT
BRANCH   1   7
ATOM      2  C   UNL     1       6.896   5.840  16.642  0.00  0.00    +0.000 A 
ATOM      3  N   UNL     1       7.573   5.454  15.529  0.00  0.00    +0.000 NA
ATOM      4  C   UNL     1       6.950   4.760  14.555  0.00  0.00    +0.000 A 
ATOM      5  C   UNL     1       5.629   4.397  14.609  0.00  0.00    +0.000 A 
ATOM      6  C   UNL     1       4.908   4.787  15.728  0.00  0.00    +0.000 A 
ATOM      7  C   UNL     1       5.523   5.521  16.766  0.00  0.00    +0.000 A 
BRANCH   2   9
ATOM      8  C   UNL     1       7.576   8.056  17.584  0.00  0.00    +0.000 C 
ATOM      9  N   UNL     1       7.620   6.600  17.567  0.00  0.00    +0.000 N 
ATOM     10  C   UNL     1       7.769   5.978  18.885  0.00  0.00    +0.000 C 
ENDBRANCH   2   9
ENDBRANCH   1   7
BRANCH   1  11
ATOM     11  N   UNL     1       3.948   5.009  18.660  0.00  0.00    +0.000 N 
ATOM     12  C   UNL     1       2.855   5.422  19.395  0.00  0.00    +0.000 C 
ATOM     13  O   UNL     1       2.413   6.566  19.361  0.00  0.00    +0.000 OA
ATOM     14  H   UNL     1       4.429   4.182  18.971  0.00  0.00    +0.000 HD
BRANCH  12  15
ATOM     15  C   UNL     1       2.268   4.397  20.237  0.00  0.00    +0.000 A 
ATOM     16  C   UNL     1       1.268   3.420  19.964  0.00  0.00    +0.000 A 
ATOM     17  C   UNL     1       1.083   2.720  21.133  0.00  0.00    +0.000 A 
ATOM     18  O   UNL     1       1.906   3.183  22.102  0.00  0.00    +0.000 OA
ATOM     19  C   UNL     1       2.622   4.192  21.555  0.00  0.00    +0.000 A 
ENDBRANCH  12  15
ENDBRANCH   1  11
TORSDOF 4
ENDMDL
MODEL 5
REMARK VINA RESULT:      -6.5      1.252      1.611
REMARK  Name = 
REMARK  6 active torsions:
REMARK  status: ('A' for Active; 'I' for Inactive)
REMARK    1  A    between atoms: C_1  and  N_2
REMARK    2  A    between atoms: N_2  and  C_3
REMARK    3  A    between atoms: N_2  and  C_4
REMARK    4  A    between atoms: C_9  and  C_10
REMARK    5  A    between atoms: C_10  and  N_11
REMARK    6  A    between atoms: C_12  and  C_14
REMARK                            x       y       z     vdW  Elec       q    Type
REMARK                         _______ _______ _______ _____ _____    ______ ____
ROOT
ATOM      1  C   UNL     1       4.594   6.352  17.509  0.00  0.00    +0.000 C 
ENDROOT
BRANCH   1   7
ATOM      2  C   UNL     1       6.873   5.854  16.491  0.00  0.00    +0.000 A 
ATOM      3  N   UNL     1       7.618   5.318  15.489  0.00  0.00    +0.000 NA
ATOM      4  C   UNL     1       7.029   4.637  14.487  0.00  0.00    +0.000 A 
ATOM      5  C   UNL     1       5.675   4.433  14.401  0.00  0.00    +0.000 A 
ATOM      6  C   UNL     1       4.887   4.978  15.403  0.00  0.00    +0.000 A 
ATOM      7  C   UNL     1       5.466   5.704  16.466  0.00  0.00    +0.000 A 
BRANCH   2   9
ATOM      8  C   UNL     1       7.548   8.043  17.499  0.00  0.00    +0.000 C 
ATOM      9  N   UNL     1       7.576   6.587  17.454  0.00  0.00    +0.000 N 
ATOM     10  C   UNL     1       7.676   5.936  18.762  0.00  0.00    +0.000 C 
ENDBRANCH   2   9
ENDBRANCH   1   7
BRANCH   1  11
ATOM     11  N   UNL     1       3.419   5.625  17.927  0.00  0.00    +0.000 N 
ATOM     12  C   UNL     1       3.564   4.606  18.847  0.00  0.00    +0.000 C 
ATOM     13  O   UNL     1       4.615   4.376  19.437  0.00  0.00    +0.000 OA
ATOM     14  H   UNL     1       2.657   5.554  17.275  0.00  0.00    +0.000 HD
BRANCH  12  15
ATOM     15  C   UNL     1       2.373   3.806  19.059  0.00  0.00    +0.000 A 
ATOM     16  C   UNL     1       1.755   2.814  18.245  0.00  0.00    +0.000 A 
ATOM     17  C   UNL     1       0.638   2.394  18.929  0.00  0.00    +0.000 A 
ATOM     18  O   UNL     1       0.529   3.045  20.111  0.00  0.00    +0.000 OA
ATOM     19  C   UNL     1       1.581   3.894  20.186  0.00  0.00    +0.000 A 
ENDBRANCH  12  15
ENDBRANCH   1  11
TORSDOF 4
ENDMDL
MODEL 6
REMARK VINA RESULT:      -6.5      2.475      3.337
REMARK  Name = 
REMARK  6 active torsions:
REMARK  status: ('A' for Active; 'I' for Inactive)
REMARK    1  A    between atoms: C_1  and  N_2
REMARK    2  A    between atoms: N_2  and  C_3
REMARK    3  A    between atoms: N_2  and  C_4
REMARK    4  A    between atoms: C_9  and  C_10
REMARK    5  A    between atoms: C_10  and  N_11
REMARK    6  A    between atoms: C_12  and  C_14
REMARK                            x       y       z     vdW  Elec       q    Type
REMARK                         _______ _______ _______ _____ _____    ______ ____
ROOT
ATOM      1  C   UNL     1       4.418   5.235  17.948  0.00  0.00    +0.000 C 
ENDROOT
BRANCH   1   7
ATOM      2  C   UNL     1       6.674   5.653  16.845  0.00  0.00    +0.000 A 
ATOM      3  N   UNL     1       7.494   5.532  15.768  0.00  0.00    +0.000 NA
ATOM      4  C   UNL     1       7.099   4.838  14.682  0.00  0.00    +0.000 A 
ATOM      5  C   UNL     1       5.881   4.217  14.581  0.00  0.00    +0.000 A 
ATOM      6  C   UNL     1       5.017   4.332  15.660  0.00  0.00    +0.000 A 
ATOM      7  C   UNL     1       5.391   5.056  16.812  0.00  0.00    +0.000 A 
BRANCH   2   9
ATOM      8  C   UNL     1       7.852   5.862  19.043  0.00  0.00    +0.000 C 
ATOM      9  N   UNL     1       7.157   6.437  17.899  0.00  0.00    +0.000 N 
ATOM     10  C   UNL     1       7.625   7.767  17.504  0.00  0.00    +0.000 C 
ENDBRANCH   2   9
ENDBRANCH   1   7
BRANCH   1  11
ATOM     11  N   UNL     1       3.779   6.524  18.067  0.00  0.00    +0.000 N 
ATOM     12  C   UNL     1       2.803   6.692  19.028  0.00  0.00    +0.000 C 
ATOM     13  O   UNL     1       2.545   5.848  19.881  0.00  0.00    +0.000 OA
ATOM     14  H   UNL     1       3.717   7.094  17.241  0.00  0.00    +0.000 HD
BRANCH  12  15
ATOM     15  C   UNL     1       2.081   7.947  18.947  0.00  0.00    +0.000 A 
ATOM     16  C   UNL     1       1.832   8.815  17.845  0.00  0.00    +0.000 A 
ATOM     17  C   UNL     1       1.111   9.875  18.343  0.00  0.00    +0.000 A 
ATOM     18  O   UNL     1       0.885   9.717  19.669  0.00  0.00    +0.000 OA
ATOM     19  C   UNL     1       1.469   8.550  20.027  0.00  0.00    +0.000 A 
ENDBRANCH  12  15
ENDBRANCH   1  11
TORSDOF 4
ENDMDL
MODEL 7
REMARK VINA RESULT:      -6.5      4.128      5.739
REMARK  Name = 
REMARK  6 active torsions:
REMARK  status: ('A' for Active; 'I' for Inactive)
REMARK    1  A    between atoms: C_1  and  N_2
REMARK    2  A    between atoms: N_2  and  C_3
REMARK    3  A    between atoms: N_2  and  C_4
REMARK    4  A    between atoms: C_9  and  C_10
REMARK    5  A    between atoms: C_10  and  N_11
REMARK    6  A    between atoms: C_12  and  C_14
REMARK                            x       y       z     vdW  Elec       q    Type
REMARK                         _______ _______ _______ _____ _____    ______ ____
ROOT
ATOM      1  C   UNL     1       2.528   6.614  19.839  0.00  0.00    +0.000 C 
ENDROOT
BRANCH   1   7
ATOM      2  C   UNL     1       3.265   4.259  19.216  0.00  0.00    +0.000 A 
ATOM      3  N   UNL     1       3.040   2.918  19.223  0.00  0.00    +0.000 NA
ATOM      4  C   UNL     1       1.979   2.406  19.879  0.00  0.00    +0.000 A 
ATOM      5  C   UNL     1       1.074   3.170  20.570  0.00  0.00    +0.000 A 
ATOM      6  C   UNL     1       1.270   4.543  20.571  0.00  0.00    +0.000 A 
ATOM      7  C   UNL     1       2.365   5.118  19.891  0.00  0.00    +0.000 A 
BRANCH   2   9
ATOM      8  C   UNL     1       5.678   4.900  19.053  0.00  0.00    +0.000 C 
ATOM      9  N   UNL     1       4.362   4.692  18.463  0.00  0.00    +0.000 N 
ATOM     10  C   UNL     1       4.380   4.213  17.080  0.00  0.00    +0.000 C 
ENDBRANCH   2   9
ENDBRANCH   1   7
BRANCH   1  11
ATOM     11  N   UNL     1       1.704   7.396  20.731  0.00  0.00    +0.000 N 
ATOM     12  C   UNL     1       1.220   8.611  20.290  0.00  0.00    +0.000 C 
ATOM     13  O   UNL     1       1.334   9.001  19.132  0.00  0.00    +0.000 OA
ATOM     14  H   UNL     1       1.853   7.288  21.719  0.00  0.00    +0.000 HD
BRANCH  12  15
ATOM     15  C   UNL     1       0.572   9.412  21.310  0.00  0.00    +0.000 A 
ATOM     16  C   UNL     1      -0.232   9.038  22.425  0.00  0.00    +0.000 A 
ATOM     17  C   UNL     1      -0.598  10.207  23.048  0.00  0.00    +0.000 A 
ATOM     18  O   UNL     1      -0.068  11.275  22.407  0.00  0.00    +0.000 OA
ATOM     19  C   UNL     1       0.641  10.789  21.361  0.00  0.00    +0.000 A 
ENDBRANCH  12  15
ENDBRANCH   1  11
TORSDOF 4
ENDMDL
MODEL 8
REMARK VINA RESULT:      -6.4      2.314      3.034
REMARK  Name = 
REMARK  6 active torsions:
REMARK  status: ('A' for Active; 'I' for Inactive)
REMARK    1  A    between atoms: C_1  and  N_2
REMARK    2  A    between atoms: N_2  and  C_3
REMARK    3  A    between atoms: N_2  and  C_4
REMARK    4  A    between atoms: C_9  and  C_10
REMARK    5  A    between atoms: C_10  and  N_11
REMARK    6  A    between atoms: C_12  and  C_14
REMARK                            x       y       z     vdW  Elec       q    Type
REMARK                         _______ _______ _______ _____ _____    ______ ____
ROOT
ATOM      1  C   UNL     1       4.588   4.875  18.144  0.00  0.00    +0.000 C 
ENDROOT
BRANCH   1   7
ATOM      2  C   UNL     1       6.699   5.574  16.906  0.00  0.00    +0.000 A 
ATOM      3  N   UNL     1       7.444   5.581  15.770  0.00  0.00    +0.000 NA
ATOM      4  C   UNL     1       7.045   4.889  14.685  0.00  0.00    +0.000 A 
ATOM      5  C   UNL     1       5.894   4.144  14.641  0.00  0.00    +0.000 A 
ATOM      6  C   UNL     1       5.106   4.126  15.782  0.00  0.00    +0.000 A 
ATOM      7  C   UNL     1       5.487   4.843  16.936  0.00  0.00    +0.000 A 
BRANCH   2   9
ATOM      8  C   UNL     1       7.879   5.802  19.101  0.00  0.00    +0.000 C 
ATOM      9  N   UNL     1       7.174   6.366  17.957  0.00  0.00    +0.000 N 
ATOM     10  C   UNL     1       7.624   7.702  17.559  0.00  0.00    +0.000 C 
ENDBRANCH   2   9
ENDBRANCH   1   7
BRANCH   1  11
ATOM     11  N   UNL     1       3.934   6.127  18.444  0.00  0.00    +0.000 N 
ATOM     12  C   UNL     1       2.984   6.154  19.445  0.00  0.00    +0.000 C 
ATOM     13  O   UNL     1       2.764   5.206  20.191  0.00  0.00    +0.000 OA
ATOM     14  H   UNL     1       3.839   6.795  17.698  0.00  0.00    +0.000 HD
BRANCH  12  15
ATOM     15  C   UNL     1       2.243   7.397  19.543  0.00  0.00    +0.000 A 
ATOM     16  C   UNL     1       1.543   7.987  20.635  0.00  0.00    +0.000 A 
ATOM     17  C   UNL     1       1.007   9.161  20.162  0.00  0.00    +0.000 A 
ATOM     18  O   UNL     1       1.337   9.347  18.862  0.00  0.00    +0.000 OA
ATOM     19  C   UNL     1       2.085   8.281  18.495  0.00  0.00    +0.000 A 
ENDBRANCH  12  15
ENDBRANCH   1  11
TORSDOF 4
ENDMDL
MODEL 9
REMARK VINA RESULT:      -6.4      2.672      6.112
REMARK  Name = 
REMARK  6 active torsions:
REMARK  status: ('A' for Active; 'I' for Inactive)
REMARK    1  A    between atoms: C_1  and  N_2
REMARK    2  A    between atoms: N_2  and  C_3
REMARK    3  A    between atoms: N_2  and  C_4
REMARK    4  A    between atoms: C_9  and  C_10
REMARK    5  A    between atoms: C_10  and  N_11
REMARK    6  A    between atoms: C_12  and  C_14
REMARK                            x       y       z     vdW  Elec       q    Type
REMARK                         _______ _______ _______ _____ _____    ______ ____
ROOT
ATOM      1  C   UNL     1       5.109   6.473  16.564  0.00  0.00    +0.000 C 
ENDROOT
BRANCH   1   7
ATOM      2  C   UNL     1       5.742   5.389  18.778  0.00  0.00    +0.000 A 
ATOM      3  N   UNL     1       6.621   5.245  19.805  0.00  0.00    +0.000 NA
ATOM      4  C   UNL     1       7.813   5.872  19.779  0.00  0.00    +0.000 A 
ATOM      5  C   UNL     1       8.224   6.677  18.747  0.00  0.00    +0.000 A 
ATOM      6  C   UNL     1       7.345   6.853  17.689  0.00  0.00    +0.000 A 
ATOM      7  C   UNL     1       6.084   6.218  17.683  0.00  0.00    +0.000 A 
BRANCH   2   9
ATOM      8  C   UNL     1       4.412   3.300  19.139  0.00  0.00    +0.000 C 
ATOM      9  N   UNL     1       4.512   4.738  18.927  0.00  0.00    +0.000 N 
ATOM     10  C   UNL     1       3.482   5.530  19.602  0.00  0.00    +0.000 C 
ENDBRANCH   2   9
ENDBRANCH   1   7
BRANCH   1  11
ATOM     11  N   UNL     1       5.498   6.041  15.243  0.00  0.00    +0.000 N 
ATOM     12  C   UNL     1       5.521   4.688  14.969  0.00  0.00    +0.000 C 
ATOM     13  O   UNL     1       5.095   3.837  15.743  0.00  0.00    +0.000 OA
ATOM     14  H   UNL     1       6.130   6.629  14.726  0.00  0.00    +0.000 HD
BRANCH  12  15
ATOM     15  C   UNL     1       6.110   4.338  13.690  0.00  0.00    +0.000 A 
ATOM     16  C   UNL     1       5.735   3.363  12.722  0.00  0.00    +0.000 A 
ATOM     17  C   UNL     1       6.658   3.451  11.707  0.00  0.00    +0.000 A 
ATOM     18  O   UNL     1       7.567   4.419  11.971  0.00  0.00    +0.000 OA
ATOM     19  C   UNL     1       7.229   4.953  13.168  0.00  0.00    +0.000 A 
ENDBRANCH  12  15
ENDBRANCH   1  11
TORSDOF 4
ENDMDL
