MODEL 1
REMARK VINA RESULT:      -6.9      0.000      0.000
REMARK  Name = 
REMARK  11 active torsions:
REMARK  status: ('A' for Active; 'I' for Inactive)
REMARK    1  A    between atoms: C_1  and  C_2
REMARK    2  A    between atoms: C_2  and  C_3
REMARK    3  A    between atoms: C_3  and  N_4
REMARK    4  A    between atoms: C_5  and  C_7
REMARK    5  A    between atoms: C_11  and  C_13
REMARK    6  A    between atoms: C_17  and  C_18
REMARK    7  A    between atoms: C_18  and  C_19
REMARK    8  A    between atoms: N_23  and  C_24
REMARK    9  A    between atoms: C_24  and  C_25
REMARK   10  A    between atoms: C_28  and  O_29
REMARK   11  A    between atoms: O_29  and  C_30
REMARK                            x       y       z     vdW  Elec       q    Type
REMARK                         _______ _______ _______ _____ _____    ______ ____
ROOT
ATOM      1  C   UNL     1      -1.124  12.106  18.733  0.00  0.00    +0.000 A 
ATOM      2  C   UNL     1      -0.632  13.282  18.185  0.00  0.00    +0.000 A 
ATOM      3  C   UNL     1       0.506  13.639  18.935  0.00  0.00    +0.000 A 
ATOM      4  S   UNL     1       1.596  14.961  19.035  0.00  0.00    +0.000 S 
ATOM      5  C   UNL     1       2.507  14.131  20.243  0.00  0.00    +0.000 A 
ATOM      6  C   UNL     1       1.990  12.875  20.539  0.00  0.00    +0.000 A 
ATOM      7  C   UNL     1       0.792  12.632  19.799  0.00  0.00    +0.000 A 
ATOM      8  N   UNL     1      -0.183  11.651  19.655  0.00  0.00    +0.000 N 
ENDROOT
BRANCH   1  13
ATOM      9  C   UNL     1      -6.066  13.079  19.741  0.00  0.00    +0.000 C 
ATOM     10  C   UNL     1      -5.948  12.191  18.487  0.00  0.00    +0.000 C 
ATOM     11  C   UNL     1      -4.797  11.178  18.564  0.00  0.00    +0.000 C 
ATOM     12  N   UNL     1      -3.550  11.818  18.973  0.00  0.00    +0.000 N 
ATOM     13  C   UNL     1      -2.354  11.417  18.354  0.00  0.00    +0.000 C 
ATOM     14  O   UNL     1      -2.350  10.535  17.492  0.00  0.00    +0.000 OA
ATOM     15  C   UNL     1      -3.653  12.548  20.239  0.00  0.00    +0.000 C 
ATOM     16  C   UNL     1      -4.695  13.660  20.117  0.00  0.00    +0.000 C 
BRANCH   9  18
ATOM     17  N   UNL     1      -6.919  13.039  22.033  0.00  0.00    +0.000 N 
ATOM     18  C   UNL     1      -6.668  12.295  20.903  0.00  0.00    +0.000 C 
ATOM     19  O   UNL     1      -6.906  11.088  20.844  0.00  0.00    +0.000 OA
ATOM     20  H   UNL     1      -6.781  14.041  22.028  0.00  0.00    +0.000 HD
BRANCH  17  21
ATOM     21  C   UNL     1      -7.421  12.408  23.237  0.00  0.00    +0.000 C 
BRANCH  21  23
ATOM     22  C   UNL     1      -7.504  14.848  23.919  0.00  0.00    +0.000 C 
ATOM     23  C   UNL     1      -7.667  13.404  24.370  0.00  0.00    +0.000 C 
ENDBRANCH  21  23
ENDBRANCH  17  21
ENDBRANCH   9  18
ENDBRANCH   1  13
BRANCH   5  24
ATOM     24  C   UNL     1       3.674  14.841  20.770  0.00  0.00    +0.000 C 
ATOM     25  C   UNL     1       3.886  14.890  22.260  0.00  0.00    +0.000 C 
ATOM     26  O   UNL     1       4.502  15.417  20.057  0.00  0.00    +0.000 OA
ENDBRANCH   5  24
BRANCH   8  27
ATOM     27  C   UNL     1      -0.106  10.342  20.293  0.00  0.00    +0.000 C 
BRANCH  27  28
ATOM     28  C   UNL     1       0.886   9.395  19.657  0.00  0.00    +0.000 A 
ATOM     29  C   UNL     1       1.396   8.305  20.374  0.00  0.00    +0.000 A 
ATOM     30  C   UNL     1       2.230   7.369  19.750  0.00  0.00    +0.000 A 
ATOM     31  C   UNL     1       2.561   7.496  18.400  0.00  0.00    +0.000 A 
ATOM     32  C   UNL     1       2.099   8.600  17.691  0.00  0.00    +0.000 A 
ATOM     33  C   UNL     1       1.266   9.541  18.313  0.00  0.00    +0.000 A 
BRANCH  31  34
ATOM     34  O   UNL     1       3.373   6.516  17.895  0.00  0.00    +0.000 OA
ATOM     35  C   UNL     1       2.909   5.180  18.058  0.00  0.00    +0.000 C 
ENDBRANCH  31  34
ENDBRANCH  27  28
ENDBRANCH   8  27
TORSDOF 8
ENDMDL
MODEL 2
REMARK VINA RESULT:      -6.7      0.643      1.118
REMARK  Name = 
REMARK  11 active torsions:
REMARK  status: ('A' for Active; 'I' for Inactive)
REMARK    1  A    between atoms: C_1  and  C_2
REMARK    2  A    between atoms: C_2  and  C_3
REMARK    3  A    between atoms: C_3  and  N_4
REMARK    4  A    between atoms: C_5  and  C_7
REMARK    5  A    between atoms: C_11  and  C_13
REMARK    6  A    between atoms: C_17  and  C_18
REMARK    7  A    between atoms: C_18  and  C_19
REMARK    8  A    between atoms: N_23  and  C_24
REMARK    9  A    between atoms: C_24  and  C_25
REMARK   10  A    between atoms: C_28  and  O_29
REMARK   11  A    between atoms: O_29  and  C_30
REMARK                            x       y       z     vdW  Elec       q    Type
REMARK                         _______ _______ _______ _____ _____    ______ ____
ROOT
ATOM      1  C   UNL     1      -1.090  11.924  18.677  0.00  0.00    +0.000 A 
ATOM      2  C   UNL     1      -0.651  13.110  18.108  0.00  0.00    +0.000 A 
ATOM      3  C   UNL     1       0.407  13.582  18.909  0.00  0.00    +0.000 A 
ATOM      4  S   UNL     1       1.389  14.987  19.016  0.00  0.00    +0.000 S 
ATOM      5  C   UNL     1       2.278  14.277  20.314  0.00  0.00    +0.000 A 
ATOM      6  C   UNL     1       1.836  12.999  20.635  0.00  0.00    +0.000 A 
ATOM      7  C   UNL     1       0.710  12.636  19.833  0.00  0.00    +0.000 A 
ATOM      8  N   UNL     1      -0.181  11.579  19.674  0.00  0.00    +0.000 N 
ENDROOT
BRANCH   1  13
ATOM      9  C   UNL     1      -6.150  12.630  19.215  0.00  0.00    +0.000 C 
ATOM     10  C   UNL     1      -5.873  11.667  18.045  0.00  0.00    +0.000 C 
ATOM     11  C   UNL     1      -4.673  10.742  18.288  0.00  0.00    +0.000 C 
ATOM     12  N   UNL     1      -3.506  11.491  18.746  0.00  0.00    +0.000 N 
ATOM     13  C   UNL     1      -2.240  11.128  18.255  0.00  0.00    +0.000 C 
ATOM     14  O   UNL     1      -2.109  10.191  17.465  0.00  0.00    +0.000 OA
ATOM     15  C   UNL     1      -3.759  12.299  19.941  0.00  0.00    +0.000 C 
ATOM     16  C   UNL     1      -4.853  13.327  19.654  0.00  0.00    +0.000 C 
BRANCH   9  18
ATOM     17  N   UNL     1      -7.336  12.703  21.353  0.00  0.00    +0.000 N 
ATOM     18  C   UNL     1      -6.798  11.890  20.382  0.00  0.00    +0.000 C 
ATOM     19  O   UNL     1      -6.833  10.662  20.458  0.00  0.00    +0.000 OA
ATOM     20  H   UNL     1      -7.356  13.707  21.229  0.00  0.00    +0.000 HD
BRANCH  17  21
ATOM     21  C   UNL     1      -7.917  12.135  22.553  0.00  0.00    +0.000 C 
BRANCH  21  23
ATOM     22  C   UNL     1      -6.835  13.878  24.042  0.00  0.00    +0.000 C 
ATOM     23  C   UNL     1      -7.073  12.396  23.801  0.00  0.00    +0.000 C 
ENDBRANCH  21  23
ENDBRANCH  17  21
ENDBRANCH   9  18
ENDBRANCH   1  13
BRANCH   5  24
ATOM     24  C   UNL     1       3.353  15.094  20.879  0.00  0.00    +0.000 C 
ATOM     25  C   UNL     1       3.743  16.371  20.182  0.00  0.00    +0.000 C 
ATOM     26  O   UNL     1       3.975  14.792  21.903  0.00  0.00    +0.000 OA
ENDBRANCH   5  24
BRANCH   8  27
ATOM     27  C   UNL     1      -0.049  10.306  20.375  0.00  0.00    +0.000 C 
BRANCH  27  28
ATOM     28  C   UNL     1       0.851   9.306  19.688  0.00  0.00    +0.000 A 
ATOM     29  C   UNL     1       1.230   9.484  18.351  0.00  0.00    +0.000 A 
ATOM     30  C   UNL     1       2.149   8.615  17.749  0.00  0.00    +0.000 A 
ATOM     31  C   UNL     1       2.714   7.563  18.470  0.00  0.00    +0.000 A 
ATOM     32  C   UNL     1       2.309   7.348  19.784  0.00  0.00    +0.000 A 
ATOM     33  C   UNL     1       1.388   8.214  20.389  0.00  0.00    +0.000 A 
BRANCH  31  34
ATOM     34  O   UNL     1       3.609   6.787  17.783  0.00  0.00    +0.000 OA
ATOM     35  C   UNL     1       3.569   5.392  18.068  0.00  0.00    +0.000 C 
ENDBRANCH  31  34
ENDBRANCH  27  28
ENDBRANCH   8  27
TORSDOF 8
ENDMDL
MODEL 3
REMARK VINA RESULT:      -6.4      3.379      7.613
REMARK  Name = 
REMARK  11 active torsions:
REMARK  status: ('A' for Active; 'I' for Inactive)
REMARK    1  A    between atoms: C_1  and  C_2
REMARK    2  A    between atoms: C_2  and  C_3
REMARK    3  A    between atoms: C_3  and  N_4
REMARK    4  A    between atoms: C_5  and  C_7
REMARK    5  A    between atoms: C_11  and  C_13
REMARK    6  A    between atoms: C_17  and  C_18
REMARK    7  A    between atoms: C_18  and  C_19
REMARK    8  A    between atoms: N_23  and  C_24
REMARK    9  A    between atoms: C_24  and  C_25
REMARK   10  A    between atoms: C_28  and  O_29
REMARK   11  A    between atoms: O_29  and  C_30
REMARK                            x       y       z     vdW  Elec       q    Type
REMARK                         _______ _______ _______ _____ _____    ______ ____
ROOT
ATOM      1  C   UNL     1       0.595   9.688  20.903  0.00  0.00    +0.000 A 
ATOM      2  C   UNL     1       1.350   8.658  21.444  0.00  0.00    +0.000 A 
ATOM      3  C   UNL     1       1.810   7.876  20.366  0.00  0.00    +0.000 A 
ATOM      4  S   UNL     1       2.651   6.397  20.138  0.00  0.00    +0.000 S 
ATOM      5  C   UNL     1       2.621   6.632  18.429  0.00  0.00    +0.000 A 
ATOM      6  C   UNL     1       1.996   7.817  18.059  0.00  0.00    +0.000 A 
ATOM      7  C   UNL     1       1.487   8.501  19.206  0.00  0.00    +0.000 A 
ATOM      8  N   UNL     1       0.772   9.652  19.521  0.00  0.00    +0.000 N 
ENDROOT
BRANCH   1  13
ATOM      9  C   UNL     1       0.649  14.824  20.817  0.00  0.00    +0.000 C 
ATOM     10  C   UNL     1      -0.693  14.320  21.382  0.00  0.00    +0.000 C 
ATOM     11  C   UNL     1      -0.557  13.048  22.231  0.00  0.00    +0.000 C 
ATOM     12  N   UNL     1       0.232  12.030  21.544  0.00  0.00    +0.000 N 
ATOM     13  C   UNL     1      -0.171  10.687  21.642  0.00  0.00    +0.000 C 
ATOM     14  O   UNL     1      -1.162  10.369  22.303  0.00  0.00    +0.000 OA
ATOM     15  C   UNL     1       1.559  12.495  21.132  0.00  0.00    +0.000 C 
ATOM     16  C   UNL     1       1.423  13.669  20.164  0.00  0.00    +0.000 C 
BRANCH   9  18
ATOM     17  N   UNL     1       2.779  15.770  21.559  0.00  0.00    +0.000 N 
ATOM     18  C   UNL     1       1.478  15.493  21.910  0.00  0.00    +0.000 C 
ATOM     19  O   UNL     1       1.026  15.759  23.024  0.00  0.00    +0.000 OA
ATOM     20  H   UNL     1       3.102  15.606  20.614  0.00  0.00    +0.000 HD
BRANCH  17  21
ATOM     21  C   UNL     1       3.700  16.336  22.524  0.00  0.00    +0.000 C 
BRANCH  21  23
ATOM     22  C   UNL     1       4.904  14.130  22.192  0.00  0.00    +0.000 C 
ATOM     23  C   UNL     1       4.634  15.292  23.136  0.00  0.00    +0.000 C 
ENDBRANCH  21  23
ENDBRANCH  17  21
ENDBRANCH   9  18
ENDBRANCH   1  13
BRANCH   5  24
ATOM     24  C   UNL     1       3.248   5.582  17.624  0.00  0.00    +0.000 C 
ATOM     25  C   UNL     1       4.529   5.888  16.895  0.00  0.00    +0.000 C 
ATOM     26  O   UNL     1       2.779   4.446  17.500  0.00  0.00    +0.000 OA
ENDBRANCH   5  24
BRANCH   8  27
ATOM     27  C   UNL     1       0.411  10.668  18.539  0.00  0.00    +0.000 C 
BRANCH  27  28
ATOM     28  C   UNL     1      -1.057  10.698  18.182  0.00  0.00    +0.000 A 
ATOM     29  C   UNL     1      -1.913  11.649  18.752  0.00  0.00    +0.000 A 
ATOM     30  C   UNL     1      -3.248  11.743  18.340  0.00  0.00    +0.000 A 
ATOM     31  C   UNL     1      -3.750  10.901  17.347  0.00  0.00    +0.000 A 
ATOM     32  C   UNL     1      -2.922   9.921  16.808  0.00  0.00    +0.000 A 
ATOM     33  C   UNL     1      -1.586   9.822  17.220  0.00  0.00    +0.000 A 
BRANCH  31  34
ATOM     34  O   UNL     1      -5.065  11.092  17.017  0.00  0.00    +0.000 OA
ATOM     35  C   UNL     1      -5.975  11.167  18.110  0.00  0.00    +0.000 C 
ENDBRANCH  31  34
ENDBRANCH  27  28
ENDBRANCH   8  27
TORSDOF 8
ENDMDL
MODEL 4
REMARK VINA RESULT:      -6.3      3.678      9.282
REMARK  Name = 
REMARK  11 active torsions:
REMARK  status: ('A' for Active; 'I' for Inactive)
REMARK    1  A    between atoms: C_1  and  C_2
REMARK    2  A    between atoms: C_2  and  C_3
REMARK    3  A    between atoms: C_3  and  N_4
REMARK    4  A    between atoms: C_5  and  C_7
REMARK    5  A    between atoms: C_11  and  C_13
REMARK    6  A    between atoms: C_17  and  C_18
REMARK    7  A    between atoms: C_18  and  C_19
REMARK    8  A    between atoms: N_23  and  C_24
REMARK    9  A    between atoms: C_24  and  C_25
REMARK   10  A    between atoms: C_28  and  O_29
REMARK   11  A    between atoms: O_29  and  C_30
REMARK                            x       y       z     vdW  Elec       q    Type
REMARK                         _______ _______ _______ _____ _____    ______ ____
ROOT
ATOM      1  C   UNL     1       0.996   9.379  19.494  0.00  0.00    +0.000 A 
ATOM      2  C   UNL     1       0.950   9.053  20.842  0.00  0.00    +0.000 A 
ATOM      3  C   UNL     1       0.047   9.948  21.450  0.00  0.00    +0.000 A 
ATOM      4  S   UNL     1      -0.481  10.337  23.036  0.00  0.00    +0.000 S 
ATOM      5  C   UNL     1      -1.591  11.491  22.394  0.00  0.00    +0.000 A 
ATOM      6  C   UNL     1      -1.558  11.556  21.007  0.00  0.00    +0.000 A 
ATOM      7  C   UNL     1      -0.558  10.681  20.481  0.00  0.00    +0.000 A 
ATOM      8  N   UNL     1      -0.013  10.308  19.256  0.00  0.00    +0.000 N 
ENDROOT
BRANCH   1  13
ATOM      9  C   UNL     1       2.821   4.617  18.867  0.00  0.00    +0.000 C 
ATOM     10  C   UNL     1       2.870   5.382  17.531  0.00  0.00    +0.000 C 
ATOM     11  C   UNL     1       3.199   6.872  17.692  0.00  0.00    +0.000 C 
ATOM     12  N   UNL     1       2.365   7.495  18.716  0.00  0.00    +0.000 N 
ATOM     13  C   UNL     1       1.876   8.793  18.487  0.00  0.00    +0.000 C 
ATOM     14  O   UNL     1       2.152   9.402  17.452  0.00  0.00    +0.000 OA
ATOM     15  C   UNL     1       2.437   6.827  20.018  0.00  0.00    +0.000 C 
ATOM     16  C   UNL     1       1.963   5.380  19.889  0.00  0.00    +0.000 C 
BRANCH   9  18
ATOM     17  N   UNL     1       5.178   5.263  18.953  0.00  0.00    +0.000 N 
ATOM     18  C   UNL     1       4.229   4.376  19.404  0.00  0.00    +0.000 C 
ATOM     19  O   UNL     1       4.502   3.455  20.174  0.00  0.00    +0.000 OA
ATOM     20  H   UNL     1       4.911   6.053  18.379  0.00  0.00    +0.000 HD
BRANCH  17  21
ATOM     21  C   UNL     1       6.571   5.108  19.323  0.00  0.00    +0.000 C 
BRANCH  21  23
ATOM     22  C   UNL     1       6.955   6.550  17.275  0.00  0.00    +0.000 C 
ATOM     23  C   UNL     1       7.484   6.122  18.636  0.00  0.00    +0.000 C 
ENDBRANCH  21  23
ENDBRANCH  17  21
ENDBRANCH   9  18
ENDBRANCH   1  13
BRANCH   5  24
ATOM     24  C   UNL     1      -2.398  12.220  23.374  0.00  0.00    +0.000 C 
ATOM     25  C   UNL     1      -1.955  13.592  23.809  0.00  0.00    +0.000 C 
ATOM     26  O   UNL     1      -3.432  11.769  23.878  0.00  0.00    +0.000 OA
ENDBRANCH   5  24
BRANCH   8  27
ATOM     27  C   UNL     1      -0.542  10.757  17.973  0.00  0.00    +0.000 C 
BRANCH  27  28
ATOM     28  C   UNL     1      -2.051  10.798  17.900  0.00  0.00    +0.000 A 
ATOM     29  C   UNL     1      -2.792   9.620  17.744  0.00  0.00    +0.000 A 
ATOM     30  C   UNL     1      -4.192   9.648  17.784  0.00  0.00    +0.000 A 
ATOM     31  C   UNL     1      -4.876  10.846  17.991  0.00  0.00    +0.000 A 
ATOM     32  C   UNL     1      -4.152  12.029  18.099  0.00  0.00    +0.000 A 
ATOM     33  C   UNL     1      -2.751  12.006  18.057  0.00  0.00    +0.000 A 
BRANCH  31  34
ATOM     34  O   UNL     1      -6.241  10.751  18.024  0.00  0.00    +0.000 OA
ATOM     35  C   UNL     1      -6.782   9.921  19.048  0.00  0.00    +0.000 C 
ENDBRANCH  31  34
ENDBRANCH  27  28
ENDBRANCH   8  27
TORSDOF 8
ENDMDL
MODEL 5
REMARK VINA RESULT:      -6.3      3.957      7.934
REMARK  Name = 
REMARK  11 active torsions:
REMARK  status: ('A' for Active; 'I' for Inactive)
REMARK    1  A    between atoms: C_1  and  C_2
REMARK    2  A    between atoms: C_2  and  C_3
REMARK    3  A    between atoms: C_3  and  N_4
REMARK    4  A    between atoms: C_5  and  C_7
REMARK    5  A    between atoms: C_11  and  C_13
REMARK    6  A    between atoms: C_17  and  C_18
REMARK    7  A    between atoms: C_18  and  C_19
REMARK    8  A    between atoms: N_23  and  C_24
REMARK    9  A    between atoms: C_24  and  C_25
REMARK   10  A    between atoms: C_28  and  O_29
REMARK   11  A    between atoms: O_29  and  C_30
REMARK                            x       y       z     vdW  Elec       q    Type
REMARK                         _______ _______ _______ _____ _____    ______ ____
ROOT
ATOM      1  C   UNL     1       2.637   7.263  18.690  0.00  0.00    +0.000 A 
ATOM      2  C   UNL     1       1.991   6.465  19.623  0.00  0.00    +0.000 A 
ATOM      3  C   UNL     1       2.719   5.261  19.707  0.00  0.00    +0.000 A 
ATOM      4  S   UNL     1       2.559   3.732  20.470  0.00  0.00    +0.000 S 
ATOM      5  C   UNL     1       4.089   3.246  19.838  0.00  0.00    +0.000 A 
ATOM      6  C   UNL     1       4.699   4.239  19.080  0.00  0.00    +0.000 A 
ATOM      7  C   UNL     1       3.856   5.388  18.977  0.00  0.00    +0.000 A 
ATOM      8  N   UNL     1       3.844   6.643  18.376  0.00  0.00    +0.000 N 
ENDROOT
BRANCH   1  13
ATOM      9  C   UNL     1       0.719  11.387  21.079  0.00  0.00    +0.000 C 
ATOM     10  C   UNL     1       1.303  11.793  19.712  0.00  0.00    +0.000 C 
ATOM     11  C   UNL     1       1.101  10.730  18.623  0.00  0.00    +0.000 C 
ATOM     12  N   UNL     1       1.508   9.407  19.087  0.00  0.00    +0.000 N 
ATOM     13  C   UNL     1       2.186   8.560  18.193  0.00  0.00    +0.000 C 
ATOM     14  O   UNL     1       2.424   8.917  17.038  0.00  0.00    +0.000 OA
ATOM     15  C   UNL     1       0.839   8.986  20.321  0.00  0.00    +0.000 C 
ATOM     16  C   UNL     1       1.164   9.964  21.450  0.00  0.00    +0.000 C 
BRANCH   9  18
ATOM     17  N   UNL     1      -1.335  12.045  19.926  0.00  0.00    +0.000 N 
ATOM     18  C   UNL     1      -0.803  11.504  21.072  0.00  0.00    +0.000 C 
ATOM     19  O   UNL     1      -1.504  11.149  22.021  0.00  0.00    +0.000 OA
ATOM     20  H   UNL     1      -0.741  12.260  19.135  0.00  0.00    +0.000 HD
BRANCH  17  21
ATOM     21  C   UNL     1      -2.760  12.282  19.813  0.00  0.00    +0.000 C 
BRANCH  21  23
ATOM     22  C   UNL     1      -2.559  10.492  18.031  0.00  0.00    +0.000 C 
ATOM     23  C   UNL     1      -3.365  11.674  18.548  0.00  0.00    +0.000 C 
ENDBRANCH  21  23
ENDBRANCH  17  21
ENDBRANCH   9  18
ENDBRANCH   1  13
BRANCH   5  24
ATOM     24  C   UNL     1       4.527   1.892  20.183  0.00  0.00    +0.000 C 
ATOM     25  C   UNL     1       4.261   0.770  19.215  0.00  0.00    +0.000 C 
ATOM     26  O   UNL     1       5.103   1.609  21.239  0.00  0.00    +0.000 OA
ENDBRANCH   5  24
BRANCH   8  27
ATOM     27  C   UNL     1       4.985   7.200  17.659  0.00  0.00    +0.000 C 
BRANCH  27  28
ATOM     28  C   UNL     1       5.558   6.292  16.595  0.00  0.00    +0.000 A 
ATOM     29  C   UNL     1       4.814   5.970  15.453  0.00  0.00    +0.000 A 
ATOM     30  C   UNL     1       5.385   5.217  14.420  0.00  0.00    +0.000 A 
ATOM     31  C   UNL     1       6.709   4.782  14.500  0.00  0.00    +0.000 A 
ATOM     32  C   UNL     1       7.442   5.056  15.650  0.00  0.00    +0.000 A 
ATOM     33  C   UNL     1       6.873   5.808  16.688  0.00  0.00    +0.000 A 
BRANCH  31  34
ATOM     34  O   UNL     1       7.163   4.065  13.426  0.00  0.00    +0.000 OA
ATOM     35  C   UNL     1       6.163   3.443  12.626  0.00  0.00    +0.000 C 
ENDBRANCH  31  34
ENDBRANCH  27  28
ENDBRANCH   8  27
TORSDOF 8
ENDMDL
MODEL 6
REMARK VINA RESULT:      -6.2      2.562      5.839
REMARK  Name = 
REMARK  11 active torsions:
REMARK  status: ('A' for Active; 'I' for Inactive)
REMARK    1  A    between atoms: C_1  and  C_2
REMARK    2  A    between atoms: C_2  and  C_3
REMARK    3  A    between atoms: C_3  and  N_4
REMARK    4  A    between atoms: C_5  and  C_7
REMARK    5  A    between atoms: C_11  and  C_13
REMARK    6  A    between atoms: C_17  and  C_18
REMARK    7  A    between atoms: C_18  and  C_19
REMARK    8  A    between atoms: N_23  and  C_24
REMARK    9  A    between atoms: C_24  and  C_25
REMARK   10  A    between atoms: C_28  and  O_29
REMARK   11  A    between atoms: O_29  and  C_30
REMARK                            x       y       z     vdW  Elec       q    Type
REMARK                         _______ _______ _______ _____ _____    ______ ____
ROOT
ATOM      1  C   UNL     1      -0.840  13.025  21.115  0.00  0.00    +0.000 A 
ATOM      2  C   UNL     1      -0.414  12.050  22.005  0.00  0.00    +0.000 A 
ATOM      3  C   UNL     1       0.168  11.021  21.239  0.00  0.00    +0.000 A 
ATOM      4  S   UNL     1       0.796   9.444  21.499  0.00  0.00    +0.000 S 
ATOM      5  C   UNL     1       1.225   9.330  19.831  0.00  0.00    +0.000 A 
ATOM      6  C   UNL     1       0.905  10.476  19.113  0.00  0.00    +0.000 A 
ATOM      7  C   UNL     1       0.243  11.429  19.947  0.00  0.00    +0.000 A 
ATOM      8  N   UNL     1      -0.336  12.691  19.860  0.00  0.00    +0.000 N 
ENDROOT
BRANCH   1  13
ATOM      9  C   UNL     1      -5.809  13.787  22.172  0.00  0.00    +0.000 C 
ATOM     10  C   UNL     1      -4.965  14.946  22.736  0.00  0.00    +0.000 C 
ATOM     11  C   UNL     1      -3.769  15.319  21.849  0.00  0.00    +0.000 C 
ATOM     12  N   UNL     1      -2.999  14.137  21.469  0.00  0.00    +0.000 N 
ATOM     13  C   UNL     1      -1.597  14.230  21.441  0.00  0.00    +0.000 C 
ATOM     14  O   UNL     1      -1.025  15.286  21.718  0.00  0.00    +0.000 OA
ATOM     15  C   UNL     1      -3.800  13.101  20.813  0.00  0.00    +0.000 C 
ATOM     16  C   UNL     1      -4.902  12.619  21.756  0.00  0.00    +0.000 C 
BRANCH   9  18
ATOM     17  N   UNL     1      -7.085  13.265  20.152  0.00  0.00    +0.000 N 
ATOM     18  C   UNL     1      -6.666  14.262  21.002  0.00  0.00    +0.000 C 
ATOM     19  O   UNL     1      -6.956  15.445  20.823  0.00  0.00    +0.000 OA
ATOM     20  H   UNL     1      -6.891  12.295  20.363  0.00  0.00    +0.000 HD
BRANCH  17  21
ATOM     21  C   UNL     1      -7.843  13.582  18.958  0.00  0.00    +0.000 C 
BRANCH  21  23
ATOM     22  C   UNL     1      -6.662  11.522  18.073  0.00  0.00    +0.000 C 
ATOM     23  C   UNL     1      -7.342  12.836  17.722  0.00  0.00    +0.000 C 
ENDBRANCH  21  23
ENDBRANCH  17  21
ENDBRANCH   9  18
ENDBRANCH   1  13
BRANCH   5  24
ATOM     24  C   UNL     1       1.857   8.077  19.414  0.00  0.00    +0.000 C 
ATOM     25  C   UNL     1       2.325   7.934  17.990  0.00  0.00    +0.000 C 
ATOM     26  O   UNL     1       2.024   7.113  20.168  0.00  0.00    +0.000 OA
ENDBRANCH   5  24
BRANCH   8  27
ATOM     27  C   UNL     1      -0.280  13.520  18.661  0.00  0.00    +0.000 C 
BRANCH  27  28
ATOM     28  C   UNL     1       0.874  14.496  18.631  0.00  0.00    +0.000 A 
ATOM     29  C   UNL     1       2.177  14.055  18.369  0.00  0.00    +0.000 A 
ATOM     30  C   UNL     1       3.226  14.973  18.235  0.00  0.00    +0.000 A 
ATOM     31  C   UNL     1       2.994  16.344  18.349  0.00  0.00    +0.000 A 
ATOM     32  C   UNL     1       1.713  16.790  18.657  0.00  0.00    +0.000 A 
ATOM     33  C   UNL     1       0.660  15.874  18.793  0.00  0.00    +0.000 A 
BRANCH  31  34
ATOM     34  O   UNL     1       4.092  17.147  18.188  0.00  0.00    +0.000 OA
ATOM     35  C   UNL     1       5.259  16.753  18.903  0.00  0.00    +0.000 C 
ENDBRANCH  31  34
ENDBRANCH  27  28
ENDBRANCH   8  27
TORSDOF 8
ENDMDL
MODEL 7
REMARK VINA RESULT:      -6.2      3.338      7.268
REMARK  Name = 
REMARK  11 active torsions:
REMARK  status: ('A' for Active; 'I' for Inactive)
REMARK    1  A    between atoms: C_1  and  C_2
REMARK    2  A    between atoms: C_2  and  C_3
REMARK    3  A    between atoms: C_3  and  N_4
REMARK    4  A    between atoms: C_5  and  C_7
REMARK    5  A    between atoms: C_11  and  C_13
REMARK    6  A    between atoms: C_17  and  C_18
REMARK    7  A    between atoms: C_18  and  C_19
REMARK    8  A    between atoms: N_23  and  C_24
REMARK    9  A    between atoms: C_24  and  C_25
REMARK   10  A    between atoms: C_28  and  O_29
REMARK   11  A    between atoms: O_29  and  C_30
REMARK                            x       y       z     vdW  Elec       q    Type
REMARK                         _______ _______ _______ _____ _____    ______ ____
ROOT
ATOM      1  C   UNL     1       0.571   9.711  20.896  0.00  0.00    +0.000 A 
ATOM      2  C   UNL     1       1.323   8.684  21.449  0.00  0.00    +0.000 A 
ATOM      3  C   UNL     1       1.767   7.881  20.380  0.00  0.00    +0.000 A 
ATOM      4  S   UNL     1       2.596   6.392  20.170  0.00  0.00    +0.000 S 
ATOM      5  C   UNL     1       2.552   6.598  18.458  0.00  0.00    +0.000 A 
ATOM      6  C   UNL     1       1.933   7.781  18.073  0.00  0.00    +0.000 A 
ATOM      7  C   UNL     1       1.439   8.489  19.212  0.00  0.00    +0.000 A 
ATOM      8  N   UNL     1       0.735   9.650  19.514  0.00  0.00    +0.000 N 
ENDROOT
BRANCH   1  13
ATOM      9  C   UNL     1       0.758  14.844  20.822  0.00  0.00    +0.000 C 
ATOM     10  C   UNL     1      -0.605  14.374  21.364  0.00  0.00    +0.000 C 
ATOM     11  C   UNL     1      -0.516  13.098  22.213  0.00  0.00    +0.000 C 
ATOM     12  N   UNL     1       0.258  12.061  21.537  0.00  0.00    +0.000 N 
ATOM     13  C   UNL     1      -0.181  10.728  21.625  0.00  0.00    +0.000 C 
ATOM     14  O   UNL     1      -1.190  10.434  22.269  0.00  0.00    +0.000 OA
ATOM     15  C   UNL     1       1.603  12.492  21.147  0.00  0.00    +0.000 C 
ATOM     16  C   UNL     1       1.513  13.671  20.179  0.00  0.00    +0.000 C 
BRANCH   9  18
ATOM     17  N   UNL     1       1.175  16.748  22.301  0.00  0.00    +0.000 N 
ATOM     18  C   UNL     1       1.587  15.489  21.930  0.00  0.00    +0.000 C 
ATOM     19  O   UNL     1       2.555  14.934  22.450  0.00  0.00    +0.000 OA
ATOM     20  H   UNL     1       0.334  17.149  21.907  0.00  0.00    +0.000 HD
BRANCH  17  21
ATOM     21  C   UNL     1       1.915  17.507  23.289  0.00  0.00    +0.000 C 
BRANCH  21  23
ATOM     22  C   UNL     1      -0.200  17.391  24.681  0.00  0.00    +0.000 C 
ATOM     23  C   UNL     1       1.321  17.391  24.692  0.00  0.00    +0.000 C 
ENDBRANCH  21  23
ENDBRANCH  17  21
ENDBRANCH   9  18
ENDBRANCH   1  13
BRANCH   5  24
ATOM     24  C   UNL     1       3.164   5.529  17.666  0.00  0.00    +0.000 C 
ATOM     25  C   UNL     1       2.507   4.174  17.638  0.00  0.00    +0.000 C 
ATOM     26  O   UNL     1       4.205   5.671  17.016  0.00  0.00    +0.000 OA
ENDBRANCH   5  24
BRANCH   8  27
ATOM     27  C   UNL     1       0.373  10.652  18.518  0.00  0.00    +0.000 C 
BRANCH  27  28
ATOM     28  C   UNL     1      -1.101  10.699  18.187  0.00  0.00    +0.000 A 
ATOM     29  C   UNL     1      -1.931  11.675  18.754  0.00  0.00    +0.000 A 
ATOM     30  C   UNL     1      -3.271  11.784  18.365  0.00  0.00    +0.000 A 
ATOM     31  C   UNL     1      -3.806  10.931  17.398  0.00  0.00    +0.000 A 
ATOM     32  C   UNL     1      -3.004   9.928  16.863  0.00  0.00    +0.000 A 
ATOM     33  C   UNL     1      -1.661   9.814  17.252  0.00  0.00    +0.000 A 
BRANCH  31  34
ATOM     34  O   UNL     1      -5.123  11.138  17.088  0.00  0.00    +0.000 OA
ATOM     35  C   UNL     1      -6.035  11.079  18.181  0.00  0.00    +0.000 C 
ENDBRANCH  31  34
ENDBRANCH  27  28
ENDBRANCH   8  27
TORSDOF 8
ENDMDL
MODEL 8
REMARK VINA RESULT:      -6.2      3.228      8.178
REMARK  Name = 
REMARK  11 active torsions:
REMARK  status: ('A' for Active; 'I' for Inactive)
REMARK    1  A    between atoms: C_1  and  C_2
REMARK    2  A    between atoms: C_2  and  C_3
REMARK    3  A    between atoms: C_3  and  N_4
REMARK    4  A    between atoms: C_5  and  C_7
REMARK    5  A    between atoms: C_11  and  C_13
REMARK    6  A    between atoms: C_17  and  C_18
REMARK    7  A    between atoms: C_18  and  C_19
REMARK    8  A    between atoms: N_23  and  C_24
REMARK    9  A    between atoms: C_24  and  C_25
REMARK   10  A    between atoms: C_28  and  O_29
REMARK   11  A    between atoms: O_29  and  C_30
REMARK                            x       y       z     vdW  Elec       q    Type
REMARK                         _______ _______ _______ _____ _____    ______ ____
ROOT
ATOM      1  C   UNL     1       0.438  12.395  20.053  0.00  0.00    +0.000 A 
ATOM      2  C   UNL     1      -0.825  12.660  20.563  0.00  0.00    +0.000 A 
ATOM      3  C   UNL     1      -1.756  12.232  19.596  0.00  0.00    +0.000 A 
ATOM      4  S   UNL     1      -3.453  12.304  19.348  0.00  0.00    +0.000 S 
ATOM      5  C   UNL     1      -3.289  11.389  17.894  0.00  0.00    +0.000 A 
ATOM      6  C   UNL     1      -1.973  11.034  17.627  0.00  0.00    +0.000 A 
ATOM      7  C   UNL     1      -1.090  11.580  18.609  0.00  0.00    +0.000 A 
ATOM      8  N   UNL     1       0.269  11.632  18.899  0.00  0.00    +0.000 N 
ENDROOT
BRANCH   1  13
ATOM      9  C   UNL     1       3.049  16.818  20.144  0.00  0.00    +0.000 C 
ATOM     10  C   UNL     1       3.497  15.917  21.310  0.00  0.00    +0.000 C 
ATOM     11  C   UNL     1       3.513  14.423  20.956  0.00  0.00    +0.000 C 
ATOM     12  N   UNL     1       2.265  14.014  20.318  0.00  0.00    +0.000 N 
ATOM     13  C   UNL     1       1.715  12.765  20.656  0.00  0.00    +0.000 C 
ATOM     14  O   UNL     1       2.276  12.022  21.463  0.00  0.00    +0.000 OA
ATOM     15  C   UNL     1       1.926  14.802  19.130  0.00  0.00    +0.000 C 
ATOM     16  C   UNL     1       1.761  16.273  19.511  0.00  0.00    +0.000 C 
BRANCH   9  18
ATOM     17  N   UNL     1       5.435  16.830  19.606  0.00  0.00    +0.000 N 
ATOM     18  C   UNL     1       4.160  16.949  19.105  0.00  0.00    +0.000 C 
ATOM     19  O   UNL     1       3.938  17.153  17.911  0.00  0.00    +0.000 OA
ATOM     20  H   UNL     1       5.585  16.590  20.577  0.00  0.00    +0.000 HD
BRANCH  17  21
ATOM     21  C   UNL     1       6.587  17.006  18.744  0.00  0.00    +0.000 C 
BRANCH  21  23
ATOM     22  C   UNL     1       8.699  15.674  18.309  0.00  0.00    +0.000 C 
ATOM     23  C   UNL     1       7.179  15.681  18.266  0.00  0.00    +0.000 C 
ENDBRANCH  21  23
ENDBRANCH  17  21
ENDBRANCH   9  18
ENDBRANCH   1  13
BRANCH   5  24
ATOM     24  C   UNL     1      -4.529  11.114  17.165  0.00  0.00    +0.000 C 
ATOM     25  C   UNL     1      -5.835  11.134  17.913  0.00  0.00    +0.000 C 
ATOM     26  O   UNL     1      -4.567  10.854  15.958  0.00  0.00    +0.000 OA
ENDBRANCH   5  24
BRANCH   8  27
ATOM     27  C   UNL     1       1.279  10.888  18.155  0.00  0.00    +0.000 C 
BRANCH  27  28
ATOM     28  C   UNL     1       1.536   9.493  18.676  0.00  0.00    +0.000 A 
ATOM     29  C   UNL     1       2.177   8.537  17.878  0.00  0.00    +0.000 A 
ATOM     30  C   UNL     1       2.511   7.281  18.400  0.00  0.00    +0.000 A 
ATOM     31  C   UNL     1       2.222   6.959  19.726  0.00  0.00    +0.000 A 
ATOM     32  C   UNL     1       1.543   7.883  20.514  0.00  0.00    +0.000 A 
ATOM     33  C   UNL     1       1.206   9.141  19.995  0.00  0.00    +0.000 A 
BRANCH  31  34
ATOM     34  O   UNL     1       2.605   5.708  20.129  0.00  0.00    +0.000 OA
ATOM     35  C   UNL     1       1.549   4.783  20.371  0.00  0.00    +0.000 C 
ENDBRANCH  31  34
ENDBRANCH  27  28
ENDBRANCH   8  27
TORSDOF 8
ENDMDL
MODEL 9
REMARK VINA RESULT:      -6.2      3.517      9.211
REMARK  Name = 
REMARK  11 active torsions:
REMARK  status: ('A' for Active; 'I' for Inactive)
REMARK    1  A    between atoms: C_1  and  C_2
REMARK    2  A    between atoms: C_2  and  C_3
REMARK    3  A    between atoms: C_3  and  N_4
REMARK    4  A    between atoms: C_5  and  C_7
REMARK    5  A    between atoms: C_11  and  C_13
REMARK    6  A    between atoms: C_17  and  C_18
REMARK    7  A    between atoms: C_18  and  C_19
REMARK    8  A    between atoms: N_23  and  C_24
REMARK    9  A    between atoms: C_24  and  C_25
REMARK   10  A    between atoms: C_28  and  O_29
REMARK   11  A    between atoms: O_29  and  C_30
REMARK                            x       y       z     vdW  Elec       q    Type
REMARK                         _______ _______ _______ _____ _____    ______ ____
ROOT
ATOM      1  C   UNL     1       0.809   9.861  19.627  0.00  0.00    +0.000 A 
ATOM      2  C   UNL     1       0.427   9.267  20.821  0.00  0.00    +0.000 A 
ATOM      3  C   UNL     1      -0.377  10.201  21.504  0.00  0.00    +0.000 A 
ATOM      4  S   UNL     1      -1.122  10.347  23.044  0.00  0.00    +0.000 S 
ATOM      5  C   UNL     1      -1.820  11.853  22.573  0.00  0.00    +0.000 A 
ATOM      6  C   UNL     1      -1.496  12.214  21.271  0.00  0.00    +0.000 A 
ATOM      7  C   UNL     1      -0.611  11.256  20.685  0.00  0.00    +0.000 A 
ATOM      8  N   UNL     1       0.080  11.041  19.497  0.00  0.00    +0.000 N 
ENDROOT
BRANCH   1  13
ATOM      9  C   UNL     1       2.711   5.139  18.938  0.00  0.00    +0.000 C 
ATOM     10  C   UNL     1       2.804   5.942  17.626  0.00  0.00    +0.000 C 
ATOM     11  C   UNL     1       3.110   7.431  17.843  0.00  0.00    +0.000 C 
ATOM     12  N   UNL     1       2.229   8.015  18.850  0.00  0.00    +0.000 N 
ATOM     13  C   UNL     1       1.735   9.314  18.639  0.00  0.00    +0.000 C 
ATOM     14  O   UNL     1       2.045   9.955  17.633  0.00  0.00    +0.000 OA
ATOM     15  C   UNL     1       2.257   7.311  20.134  0.00  0.00    +0.000 C 
ATOM     16  C   UNL     1       1.805   5.863  19.945  0.00  0.00    +0.000 C 
BRANCH   9  18
ATOM     17  N   UNL     1       5.128   5.503  18.839  0.00  0.00    +0.000 N 
ATOM     18  C   UNL     1       4.100   4.897  19.523  0.00  0.00    +0.000 C 
ATOM     19  O   UNL     1       4.292   4.206  20.524  0.00  0.00    +0.000 OA
ATOM     20  H   UNL     1       4.933   6.123  18.063  0.00  0.00    +0.000 HD
BRANCH  17  21
ATOM     21  C   UNL     1       6.505   5.297  19.240  0.00  0.00    +0.000 C 
BRANCH  21  23
ATOM     22  C   UNL     1       7.255   7.020  17.540  0.00  0.00    +0.000 C 
ATOM     23  C   UNL     1       7.502   5.642  18.135  0.00  0.00    +0.000 C 
ENDBRANCH  21  23
ENDBRANCH  17  21
ENDBRANCH   9  18
ENDBRANCH   1  13
BRANCH   5  24
ATOM     24  C   UNL     1      -2.641  12.524  23.582  0.00  0.00    +0.000 C 
ATOM     25  C   UNL     1      -2.298  13.934  23.983  0.00  0.00    +0.000 C 
ATOM     26  O   UNL     1      -3.608  11.994  24.138  0.00  0.00    +0.000 OA
ENDBRANCH   5  24
BRANCH   8  27
ATOM     27  C   UNL     1      -0.076  11.879  18.313  0.00  0.00    +0.000 C 
BRANCH  27  28
ATOM     28  C   UNL     1       0.675  13.189  18.373  0.00  0.00    +0.000 A 
ATOM     29  C   UNL     1       0.012  14.381  18.691  0.00  0.00    +0.000 A 
ATOM     30  C   UNL     1       0.729  15.574  18.852  0.00  0.00    +0.000 A 
ATOM     31  C   UNL     1       2.116  15.598  18.708  0.00  0.00    +0.000 A 
ATOM     32  C   UNL     1       2.780  14.430  18.345  0.00  0.00    +0.000 A 
ATOM     33  C   UNL     1       2.066  13.235  18.182  0.00  0.00    +0.000 A 
BRANCH  31  34
ATOM     34  O   UNL     1       2.710  16.817  18.899  0.00  0.00    +0.000 OA
ATOM     35  C   UNL     1       4.130  16.805  19.012  0.00  0.00    +0.000 C 
ENDBRANCH  31  34
ENDBRANCH  27  28
ENDBRANCH   8  27
TORSDOF 8
ENDMDL
