MODEL 1
REMARK VINA RESULT:      -8.5      0.000      0.000
REMARK  Name = 
REMARK  3 active torsions:
REMARK  status: ('A' for Active; 'I' for Inactive)
REMARK    1  A    between atoms: C_2  and  C_5
REMARK    2  A    between atoms: C_8  and  N_9
REMARK    3  A    between atoms: N_9  and  C_10
REMARK                            x       y       z     vdW  Elec       q    Type
REMARK                         _______ _______ _______ _____ _____    ______ ____
ROOT
ATOM      1  N   UNL     1       5.597   5.052  17.970  0.00  0.00    +0.000 N 
ATOM      2  H   UNL     1       6.239   5.743  18.352  0.00  0.00    +0.000 HD
ENDROOT
BRANCH   1   3
ATOM      3  C   UNL     1       4.908   4.248  18.815  0.00  0.00    +0.000 A 
ATOM      4  N   UNL     1       5.422   3.044  19.229  0.00  0.00    +0.000 N 
ATOM      5  N   UNL     1       4.621   2.361  20.068  0.00  0.00    +0.000 NA
ATOM      6  C   UNL     1       3.543   3.140  20.149  0.00  0.00    +0.000 A 
ATOM      7  C   UNL     1       3.651   4.320  19.373  0.00  0.00    +0.000 A 
ATOM      8  C   UNL     1       2.579   5.346  19.307  0.00  0.00    +0.000 C 
ATOM      9  C   UNL     1       1.586   5.178  20.478  0.00  0.00    +0.000 C 
ATOM     10  C   UNL     1       1.176   3.708  20.683  0.00  0.00    +0.000 C 
ATOM     11  C   UNL     1       2.382   2.816  21.022  0.00  0.00    +0.000 C 
ATOM     12  H   UNL     1       6.314   2.645  18.968  0.00  0.00    +0.000 HD
ENDBRANCH   1   3
BRANCH   1  16
ATOM     13  C   UNL     1       6.181   4.128  13.865  0.00  0.00    +0.000 A 
ATOM     14  C   UNL     1       4.962   3.871  14.505  0.00  0.00    +0.000 A 
ATOM     15  C   UNL     1       4.773   4.213  15.849  0.00  0.00    +0.000 A 
ATOM     16  C   UNL     1       5.794   4.819  16.591  0.00  0.00    +0.000 A 
ATOM     17  C   UNL     1       7.010   5.086  15.939  0.00  0.00    +0.000 A 
ATOM     18  C   UNL     1       7.203   4.749  14.596  0.00  0.00    +0.000 A 
BRANCH  13  20
ATOM     19  F   UNL     1       7.293   4.562  11.779  0.00  0.00    +0.000 F 
ATOM     20  C   UNL     1       6.412   3.747  12.424  0.00  0.00    +0.000 C 
ATOM     21  F   UNL     1       5.267   3.782  11.687  0.00  0.00    +0.000 F 
ATOM     22  F   UNL     1       6.904   2.485  12.289  0.00  0.00    +0.000 F 
ENDBRANCH  13  20
ENDBRANCH   1  16
TORSDOF 3
ENDMDL
MODEL 2
REMARK VINA RESULT:      -8.3      0.201      1.092
REMARK  Name = 
REMARK  3 active torsions:
REMARK  status: ('A' for Active; 'I' for Inactive)
REMARK    1  A    between atoms: C_2  and  C_5
REMARK    2  A    between atoms: C_8  and  N_9
REMARK    3  A    between atoms: N_9  and  C_10
REMARK                            x       y       z     vdW  Elec       q    Type
REMARK                         _______ _______ _______ _____ _____    ______ ____
ROOT
ATOM      1  N   UNL     1       5.461   4.950  17.904  0.00  0.00    +0.000 N 
ATOM      2  H   UNL     1       6.007   5.743  18.234  0.00  0.00    +0.000 HD
ENDROOT
BRANCH   1   3
ATOM      3  C   UNL     1       4.826   4.162  18.805  0.00  0.00    +0.000 A 
ATOM      4  N   UNL     1       5.397   3.000  19.261  0.00  0.00    +0.000 N 
ATOM      5  N   UNL     1       4.645   2.328  20.152  0.00  0.00    +0.000 NA
ATOM      6  C   UNL     1       3.539   3.069  20.226  0.00  0.00    +0.000 A 
ATOM      7  C   UNL     1       3.582   4.214  19.392  0.00  0.00    +0.000 A 
ATOM      8  C   UNL     1       2.469   5.194  19.308  0.00  0.00    +0.000 C 
ATOM      9  C   UNL     1       1.513   5.045  20.512  0.00  0.00    +0.000 C 
ATOM     10  C   UNL     1       1.167   3.572  20.797  0.00  0.00    +0.000 C 
ATOM     11  C   UNL     1       2.415   2.743  21.145  0.00  0.00    +0.000 C 
ATOM     12  H   UNL     1       6.297   2.623  18.994  0.00  0.00    +0.000 HD
ENDBRANCH   1   3
BRANCH   1  16
ATOM     13  C   UNL     1       6.326   4.135  13.826  0.00  0.00    +0.000 A 
ATOM     14  C   UNL     1       7.280   4.713  14.674  0.00  0.00    +0.000 A 
ATOM     15  C   UNL     1       6.992   4.943  16.024  0.00  0.00    +0.000 A 
ATOM     16  C   UNL     1       5.745   4.605  16.565  0.00  0.00    +0.000 A 
ATOM     17  C   UNL     1       4.798   4.014  15.712  0.00  0.00    +0.000 A 
ATOM     18  C   UNL     1       5.082   3.779  14.363  0.00  0.00    +0.000 A 
BRANCH  13  20
ATOM     19  F   UNL     1       7.413   4.844  11.803  0.00  0.00    +0.000 F 
ATOM     20  C   UNL     1       6.609   3.899  12.363  0.00  0.00    +0.000 C 
ATOM     21  F   UNL     1       5.475   3.883  11.610  0.00  0.00    +0.000 F 
ATOM     22  F   UNL     1       7.224   2.705  12.136  0.00  0.00    +0.000 F 
ENDBRANCH  13  20
ENDBRANCH   1  16
TORSDOF 3
ENDMDL
MODEL 3
REMARK VINA RESULT:      -8.1      4.319      7.461
REMARK  Name = 
REMARK  3 active torsions:
REMARK  status: ('A' for Active; 'I' for Inactive)
REMARK    1  A    between atoms: C_2  and  C_5
REMARK    2  A    between atoms: C_8  and  N_9
REMARK    3  A    between atoms: N_9  and  C_10
REMARK                            x       y       z     vdW  Elec       q    Type
REMARK                         _______ _______ _______ _____ _____    ______ ____
ROOT
ATOM      1  N   UNL     1       5.173   3.141  16.342  0.00  0.00    +0.000 N 
ATOM      2  H   UNL     1       5.322   2.134  16.362  0.00  0.00    +0.000 HD
ENDROOT
BRANCH   1   3
ATOM      3  C   UNL     1       6.033   3.923  15.646  0.00  0.00    +0.000 A 
ATOM      4  N   UNL     1       6.781   4.890  16.272  0.00  0.00    +0.000 N 
ATOM      5  N   UNL     1       7.588   5.584  15.448  0.00  0.00    +0.000 NA
ATOM      6  C   UNL     1       7.305   5.068  14.252  0.00  0.00    +0.000 A 
ATOM      7  C   UNL     1       6.327   4.044  14.306  0.00  0.00    +0.000 A 
ATOM      8  C   UNL     1       5.852   3.315  13.103  0.00  0.00    +0.000 C 
ATOM      9  C   UNL     1       6.833   3.502  11.925  0.00  0.00    +0.000 C 
ATOM     10  C   UNL     1       7.271   4.969  11.763  0.00  0.00    +0.000 C 
ATOM     11  C   UNL     1       8.004   5.493  13.009  0.00  0.00    +0.000 C 
ATOM     12  H   UNL     1       6.776   5.115  17.258  0.00  0.00    +0.000 HD
ENDBRANCH   1   3
BRANCH   1  16
ATOM     13  C   UNL     1       2.519   4.285  19.454  0.00  0.00    +0.000 A 
ATOM     14  C   UNL     1       3.899   4.186  19.671  0.00  0.00    +0.000 A 
ATOM     15  C   UNL     1       4.765   3.842  18.626  0.00  0.00    +0.000 A 
ATOM     16  C   UNL     1       4.278   3.586  17.338  0.00  0.00    +0.000 A 
ATOM     17  C   UNL     1       2.894   3.700  17.125  0.00  0.00    +0.000 A 
ATOM     18  C   UNL     1       2.025   4.047  18.164  0.00  0.00    +0.000 A 
BRANCH  13  20
ATOM     19  F   UNL     1       1.459   5.972  20.799  0.00  0.00    +0.000 F 
ATOM     20  C   UNL     1       1.566   4.634  20.571  0.00  0.00    +0.000 C 
ATOM     21  F   UNL     1       1.936   4.083  21.760  0.00  0.00    +0.000 F 
ATOM     22  F   UNL     1       0.299   4.194  20.334  0.00  0.00    +0.000 F 
ENDBRANCH  13  20
ENDBRANCH   1  16
TORSDOF 3
ENDMDL
MODEL 4
REMARK VINA RESULT:      -8.0      3.488      4.203
REMARK  Name = 
REMARK  3 active torsions:
REMARK  status: ('A' for Active; 'I' for Inactive)
REMARK    1  A    between atoms: C_2  and  C_5
REMARK    2  A    between atoms: C_8  and  N_9
REMARK    3  A    between atoms: N_9  and  C_10
REMARK                            x       y       z     vdW  Elec       q    Type
REMARK                         _______ _______ _______ _____ _____    ______ ____
ROOT
ATOM      1  N   UNL     1       4.946   3.421  17.010  0.00  0.00    +0.000 N 
ATOM      2  H   UNL     1       4.930   3.049  16.062  0.00  0.00    +0.000 HD
ENDROOT
BRANCH   1   3
ATOM      3  C   UNL     1       4.025   2.991  17.906  0.00  0.00    +0.000 A 
ATOM      4  N   UNL     1       3.800   1.651  18.106  0.00  0.00    +0.000 N 
ATOM      5  N   UNL     1       2.857   1.381  19.027  0.00  0.00    +0.000 NA
ATOM      6  C   UNL     1       2.439   2.594  19.388  0.00  0.00    +0.000 A 
ATOM      7  C   UNL     1       3.113   3.638  18.708  0.00  0.00    +0.000 A 
ATOM      8  C   UNL     1       2.825   5.076  18.945  0.00  0.00    +0.000 C 
ATOM      9  C   UNL     1       2.061   5.271  20.273  0.00  0.00    +0.000 C 
ATOM     10  C   UNL     1       0.909   4.261  20.432  0.00  0.00    +0.000 C 
ATOM     11  C   UNL     1       1.415   2.809  20.446  0.00  0.00    +0.000 C 
ATOM     12  H   UNL     1       4.264   0.883  17.638  0.00  0.00    +0.000 HD
ENDBRANCH   1   3
BRANCH   1  16
ATOM     13  C   UNL     1       7.223   6.960  17.587  0.00  0.00    +0.000 A 
ATOM     14  C   UNL     1       7.550   5.766  18.242  0.00  0.00    +0.000 A 
ATOM     15  C   UNL     1       6.812   4.599  18.014  0.00  0.00    +0.000 A 
ATOM     16  C   UNL     1       5.726   4.592  17.129  0.00  0.00    +0.000 A 
ATOM     17  C   UNL     1       5.411   5.789  16.467  0.00  0.00    +0.000 A 
ATOM     18  C   UNL     1       6.148   6.957  16.688  0.00  0.00    +0.000 A 
BRANCH  13  20
ATOM     19  F   UNL     1       8.812   8.585  16.804  0.00  0.00    +0.000 F 
ATOM     20  C   UNL     1       7.992   8.233  17.834  0.00  0.00    +0.000 C 
ATOM     21  F   UNL     1       8.793   8.152  18.934  0.00  0.00    +0.000 F 
ATOM     22  F   UNL     1       7.178   9.305  18.044  0.00  0.00    +0.000 F 
ENDBRANCH  13  20
ENDBRANCH   1  16
TORSDOF 3
ENDMDL
MODEL 5
REMARK VINA RESULT:      -7.8      4.270      7.372
REMARK  Name = 
REMARK  3 active torsions:
REMARK  status: ('A' for Active; 'I' for Inactive)
REMARK    1  A    between atoms: C_2  and  C_5
REMARK    2  A    between atoms: C_8  and  N_9
REMARK    3  A    between atoms: N_9  and  C_10
REMARK                            x       y       z     vdW  Elec       q    Type
REMARK                         _______ _______ _______ _____ _____    ______ ____
ROOT
ATOM      1  N   UNL     1       5.164   3.103  16.250  0.00  0.00    +0.000 N 
ATOM      2  H   UNL     1       5.251   2.092  16.165  0.00  0.00    +0.000 HD
ENDROOT
BRANCH   1   3
ATOM      3  C   UNL     1       6.030   3.902  15.582  0.00  0.00    +0.000 A 
ATOM      4  N   UNL     1       6.768   4.856  16.237  0.00  0.00    +0.000 N 
ATOM      5  N   UNL     1       7.583   5.569  15.438  0.00  0.00    +0.000 NA
ATOM      6  C   UNL     1       7.317   5.078  14.228  0.00  0.00    +0.000 A 
ATOM      7  C   UNL     1       6.340   4.052  14.249  0.00  0.00    +0.000 A 
ATOM      8  C   UNL     1       5.881   3.347  13.024  0.00  0.00    +0.000 C 
ATOM      9  C   UNL     1       6.877   3.560  11.863  0.00  0.00    +0.000 C 
ATOM     10  C   UNL     1       7.313   5.032  11.737  0.00  0.00    +0.000 C 
ATOM     11  C   UNL     1       8.030   5.531  13.003  0.00  0.00    +0.000 C 
ATOM     12  H   UNL     1       6.750   5.060  17.228  0.00  0.00    +0.000 HD
ENDBRANCH   1   3
BRANCH   1  16
ATOM     13  C   UNL     1       2.677   4.477  19.408  0.00  0.00    +0.000 A 
ATOM     14  C   UNL     1       2.143   4.101  18.168  0.00  0.00    +0.000 A 
ATOM     15  C   UNL     1       2.972   3.617  17.149  0.00  0.00    +0.000 A 
ATOM     16  C   UNL     1       4.354   3.496  17.338  0.00  0.00    +0.000 A 
ATOM     17  C   UNL     1       4.881   3.863  18.588  0.00  0.00    +0.000 A 
ATOM     18  C   UNL     1       4.057   4.344  19.610  0.00  0.00    +0.000 A 
BRANCH  13  20
ATOM     19  F   UNL     1       0.528   4.545  20.483  0.00  0.00    +0.000 F 
ATOM     20  C   UNL     1       1.804   5.021  20.511  0.00  0.00    +0.000 C 
ATOM     21  F   UNL     1       1.695   6.378  20.467  0.00  0.00    +0.000 F 
ATOM     22  F   UNL     1       2.284   4.727  21.751  0.00  0.00    +0.000 F 
ENDBRANCH  13  20
ENDBRANCH   1  16
TORSDOF 3
ENDMDL
MODEL 6
REMARK VINA RESULT:      -7.8      3.613      4.259
REMARK  Name = 
REMARK  3 active torsions:
REMARK  status: ('A' for Active; 'I' for Inactive)
REMARK    1  A    between atoms: C_2  and  C_5
REMARK    2  A    between atoms: C_8  and  N_9
REMARK    3  A    between atoms: N_9  and  C_10
REMARK                            x       y       z     vdW  Elec       q    Type
REMARK                         _______ _______ _______ _____ _____    ______ ____
ROOT
ATOM      1  N   UNL     1       5.144   3.653  17.186  0.00  0.00    +0.000 N 
ATOM      2  H   UNL     1       5.255   3.325  16.228  0.00  0.00    +0.000 HD
ENDROOT
BRANCH   1   3
ATOM      3  C   UNL     1       4.153   3.136  17.952  0.00  0.00    +0.000 A 
ATOM      4  N   UNL     1       3.892   1.788  17.962  0.00  0.00    +0.000 N 
ATOM      5  N   UNL     1       2.880   1.428  18.772  0.00  0.00    +0.000 NA
ATOM      6  C   UNL     1       2.457   2.595  19.256  0.00  0.00    +0.000 A 
ATOM      7  C   UNL     1       3.196   3.700  18.765  0.00  0.00    +0.000 A 
ATOM      8  C   UNL     1       2.915   5.103  19.164  0.00  0.00    +0.000 C 
ATOM      9  C   UNL     1       2.059   5.147  20.449  0.00  0.00    +0.000 C 
ATOM     10  C   UNL     1       0.882   4.155  20.395  0.00  0.00    +0.000 C 
ATOM     11  C   UNL     1       1.361   2.700  20.258  0.00  0.00    +0.000 C 
ATOM     12  H   UNL     1       4.376   1.074  17.433  0.00  0.00    +0.000 HD
ENDBRANCH   1   3
BRANCH   1  16
ATOM     13  C   UNL     1       7.314   7.262  17.739  0.00  0.00    +0.000 A 
ATOM     14  C   UNL     1       6.181   7.210  16.916  0.00  0.00    +0.000 A 
ATOM     15  C   UNL     1       5.456   6.021  16.772  0.00  0.00    +0.000 A 
ATOM     16  C   UNL     1       5.842   4.853  17.442  0.00  0.00    +0.000 A 
ATOM     17  C   UNL     1       6.971   4.917  18.275  0.00  0.00    +0.000 A 
ATOM     18  C   UNL     1       7.697   6.102  18.426  0.00  0.00    +0.000 A 
BRANCH  13  20
ATOM     19  F   UNL     1       8.910   8.540  19.002  0.00  0.00    +0.000 F 
ATOM     20  C   UNL     1       8.122   8.527  17.892  0.00  0.00    +0.000 C 
ATOM     21  F   UNL     1       7.338   9.637  17.980  0.00  0.00    +0.000 F 
ATOM     22  F   UNL     1       8.958   8.744  16.839  0.00  0.00    +0.000 F 
ENDBRANCH  13  20
ENDBRANCH   1  16
TORSDOF 3
ENDMDL
MODEL 7
REMARK VINA RESULT:      -7.8      3.626      4.515
REMARK  Name = 
REMARK  3 active torsions:
REMARK  status: ('A' for Active; 'I' for Inactive)
REMARK    1  A    between atoms: C_2  and  C_5
REMARK    2  A    between atoms: C_8  and  N_9
REMARK    3  A    between atoms: N_9  and  C_10
REMARK                            x       y       z     vdW  Elec       q    Type
REMARK                         _______ _______ _______ _____ _____    ______ ____
ROOT
ATOM      1  N   UNL     1       5.057   3.468  17.483  0.00  0.00    +0.000 N 
ATOM      2  H   UNL     1       5.474   2.736  16.912  0.00  0.00    +0.000 HD
ENDROOT
BRANCH   1   3
ATOM      3  C   UNL     1       3.764   3.349  17.871  0.00  0.00    +0.000 A 
ATOM      4  N   UNL     1       2.740   3.412  16.959  0.00  0.00    +0.000 N 
ATOM      5  N   UNL     1       1.513   3.277  17.496  0.00  0.00    +0.000 NA
ATOM      6  C   UNL     1       1.770   3.171  18.799  0.00  0.00    +0.000 A 
ATOM      7  C   UNL     1       3.154   3.231  19.099  0.00  0.00    +0.000 A 
ATOM      8  C   UNL     1       3.687   3.130  20.481  0.00  0.00    +0.000 C 
ATOM      9  C   UNL     1       2.628   2.535  21.436  0.00  0.00    +0.000 C 
ATOM     10  C   UNL     1       1.243   3.176  21.235  0.00  0.00    +0.000 C 
ATOM     11  C   UNL     1       0.703   2.947  19.813  0.00  0.00    +0.000 C 
ATOM     12  H   UNL     1       2.826   3.546  15.960  0.00  0.00    +0.000 HD
ENDBRANCH   1   3
BRANCH   1  16
ATOM     13  C   UNL     1       7.276   7.082  17.717  0.00  0.00    +0.000 A 
ATOM     14  C   UNL     1       7.702   5.919  18.373  0.00  0.00    +0.000 A 
ATOM     15  C   UNL     1       6.978   4.726  18.257  0.00  0.00    +0.000 A 
ATOM     16  C   UNL     1       5.811   4.661  17.487  0.00  0.00    +0.000 A 
ATOM     17  C   UNL     1       5.397   5.827  16.822  0.00  0.00    +0.000 A 
ATOM     18  C   UNL     1       6.118   7.020  16.931  0.00  0.00    +0.000 A 
BRANCH  13  20
ATOM     19  F   UNL     1       8.884   8.623  16.813  0.00  0.00    +0.000 F 
ATOM     20  C   UNL     1       8.029   8.382  17.846  0.00  0.00    +0.000 C 
ATOM     21  F   UNL     1       8.789   8.434  18.975  0.00  0.00    +0.000 F 
ATOM     22  F   UNL     1       7.202   9.462  17.904  0.00  0.00    +0.000 F 
ENDBRANCH  13  20
ENDBRANCH   1  16
TORSDOF 3
ENDMDL
MODEL 8
REMARK VINA RESULT:      -7.7      1.076      1.664
REMARK  Name = 
REMARK  3 active torsions:
REMARK  status: ('A' for Active; 'I' for Inactive)
REMARK    1  A    between atoms: C_2  and  C_5
REMARK    2  A    between atoms: C_8  and  N_9
REMARK    3  A    between atoms: N_9  and  C_10
REMARK                            x       y       z     vdW  Elec       q    Type
REMARK                         _______ _______ _______ _____ _____    ______ ____
ROOT
ATOM      1  N   UNL     1       5.841   4.311  18.011  0.00  0.00    +0.000 N 
ATOM      2  H   UNL     1       6.599   3.841  18.503  0.00  0.00    +0.000 HD
ENDROOT
BRANCH   1   3
ATOM      3  C   UNL     1       4.689   4.579  18.670  0.00  0.00    +0.000 A 
ATOM      4  N   UNL     1       4.384   5.854  19.078  0.00  0.00    +0.000 N 
ATOM      5  N   UNL     1       3.206   5.962  19.720  0.00  0.00    +0.000 NA
ATOM      6  C   UNL     1       2.773   4.702  19.758  0.00  0.00    +0.000 A 
ATOM      7  C   UNL     1       3.664   3.790  19.141  0.00  0.00    +0.000 A 
ATOM      8  C   UNL     1       3.397   2.331  19.054  0.00  0.00    +0.000 C 
ATOM      9  C   UNL     1       1.903   2.031  19.311  0.00  0.00    +0.000 C 
ATOM     10  C   UNL     1       1.359   2.800  20.529  0.00  0.00    +0.000 C 
ATOM     11  C   UNL     1       1.455   4.323  20.338  0.00  0.00    +0.000 C 
ATOM     12  H   UNL     1       4.947   6.684  18.943  0.00  0.00    +0.000 HD
ENDBRANCH   1   3
BRANCH   1  16
ATOM     13  C   UNL     1       6.339   4.036  13.801  0.00  0.00    +0.000 A 
ATOM     14  C   UNL     1       5.176   3.573  14.431  0.00  0.00    +0.000 A 
ATOM     15  C   UNL     1       5.012   3.703  15.815  0.00  0.00    +0.000 A 
ATOM     16  C   UNL     1       6.003   4.295  16.608  0.00  0.00    +0.000 A 
ATOM     17  C   UNL     1       7.160   4.769  15.968  0.00  0.00    +0.000 A 
ATOM     18  C   UNL     1       7.328   4.645  14.586  0.00  0.00    +0.000 A 
BRANCH  13  20
ATOM     19  F   UNL     1       7.416   4.793  11.790  0.00  0.00    +0.000 F 
ATOM     20  C   UNL     1       6.545   3.887  12.315  0.00  0.00    +0.000 C 
ATOM     21  F   UNL     1       5.387   4.035  11.612  0.00  0.00    +0.000 F 
ATOM     22  F   UNL     1       7.033   2.662  11.974  0.00  0.00    +0.000 F 
ENDBRANCH  13  20
ENDBRANCH   1  16
TORSDOF 3
ENDMDL
MODEL 9
REMARK VINA RESULT:      -7.7      3.732      4.551
REMARK  Name = 
REMARK  3 active torsions:
REMARK  status: ('A' for Active; 'I' for Inactive)
REMARK    1  A    between atoms: C_2  and  C_5
REMARK    2  A    between atoms: C_8  and  N_9
REMARK    3  A    between atoms: N_9  and  C_10
REMARK                            x       y       z     vdW  Elec       q    Type
REMARK                         _______ _______ _______ _____ _____    ______ ____
ROOT
ATOM      1  N   UNL     1       5.305   3.675  17.650  0.00  0.00    +0.000 N 
ATOM      2  H   UNL     1       5.819   3.010  17.075  0.00  0.00    +0.000 HD
ENDROOT
BRANCH   1   3
ATOM      3  C   UNL     1       3.992   3.454  17.905  0.00  0.00    +0.000 A 
ATOM      4  N   UNL     1       3.069   3.410  16.889  0.00  0.00    +0.000 N 
ATOM      5  N   UNL     1       1.808   3.183  17.300  0.00  0.00    +0.000 NA
ATOM      6  C   UNL     1       1.932   3.127  18.625  0.00  0.00    +0.000 A 
ATOM      7  C   UNL     1       3.266   3.312  19.065  0.00  0.00    +0.000 A 
ATOM      8  C   UNL     1       3.656   3.287  20.499  0.00  0.00    +0.000 C 
ATOM      9  C   UNL     1       2.554   2.625  21.356  0.00  0.00    +0.000 C 
ATOM     10  C   UNL     1       1.150   3.140  20.991  0.00  0.00    +0.000 C 
ATOM     11  C   UNL     1       0.786   2.835  19.528  0.00  0.00    +0.000 C 
ATOM     12  H   UNL     1       3.250   3.530  15.901  0.00  0.00    +0.000 HD
ENDBRANCH   1   3
BRANCH   1  16
ATOM     13  C   UNL     1       7.396   7.364  17.892  0.00  0.00    +0.000 A 
ATOM     14  C   UNL     1       6.250   7.225  17.099  0.00  0.00    +0.000 A 
ATOM     15  C   UNL     1       5.551   6.012  17.058  0.00  0.00    +0.000 A 
ATOM     16  C   UNL     1       5.977   4.906  17.803  0.00  0.00    +0.000 A 
ATOM     17  C   UNL     1       7.120   5.057  18.606  0.00  0.00    +0.000 A 
ATOM     18  C   UNL     1       7.820   6.267  18.654  0.00  0.00    +0.000 A 
BRANCH  13  20
ATOM     19  F   UNL     1       8.989   8.765  19.022  0.00  0.00    +0.000 F 
ATOM     20  C   UNL     1       8.175   8.654  17.935  0.00  0.00    +0.000 C 
ATOM     21  F   UNL     1       7.366   9.750  17.965  0.00  0.00    +0.000 F 
ATOM     22  F   UNL     1       8.981   8.815  16.849  0.00  0.00    +0.000 F 
ENDBRANCH  13  20
ENDBRANCH   1  16
TORSDOF 3
ENDMDL
