MODEL 1
REMARK VINA RESULT:      -8.8      0.000      0.000
REMARK  Name = 
REMARK  2 active torsions:
REMARK  status: ('A' for Active; 'I' for Inactive)
REMARK    1  A    between atoms: C_4  and  C_5
REMARK    2  A    between atoms: C_12  and  C_13
REMARK                            x       y       z     vdW  Elec       q    Type
REMARK                         _______ _______ _______ _____ _____    ______ ____
ROOT
ATOM      1  N   UNL     1       0.797   1.628  18.640  0.00  0.00    +0.000 N 
ATOM      2  C   UNL     1       1.668   2.645  18.622  0.00  0.00    +0.000 A 
ATOM      3  N   UNL     1       1.330   3.889  18.830  0.00  0.00    +0.000 NA
ATOM      4  C   UNL     1       2.425   4.734  18.637  0.00  0.00    +0.000 A 
ATOM      5  C   UNL     1       3.614   4.093  18.274  0.00  0.00    +0.000 A 
ATOM      6  S   UNL     1       3.331   2.382  18.366  0.00  0.00    +0.000 S 
ATOM      7  H   UNL     1      -0.101   1.795  19.077  0.00  0.00    +0.000 HD
ATOM      8  H   UNL     1       1.142   0.679  18.690  0.00  0.00    +0.000 HD
ENDROOT
BRANCH   5   9
ATOM      9  C   UNL     1       4.990   4.586  17.996  0.00  0.00    +0.000 A 
ATOM     10  C   UNL     1       5.767   5.002  19.084  0.00  0.00    +0.000 A 
ATOM     11  C   UNL     1       7.033   5.500  18.860  0.00  0.00    +0.000 A 
ATOM     12  N   UNL     1       7.616   5.533  17.651  0.00  0.00    +0.000 NA
ATOM     13  C   UNL     1       6.915   5.092  16.597  0.00  0.00    +0.000 A 
ATOM     14  C   UNL     1       7.571   5.070  15.373  0.00  0.00    +0.000 A 
ATOM     15  C   UNL     1       6.949   4.632  14.205  0.00  0.00    +0.000 A 
ATOM     16  C   UNL     1       5.617   4.261  14.247  0.00  0.00    +0.000 A 
ATOM     17  C   UNL     1       4.931   4.298  15.461  0.00  0.00    +0.000 A 
ATOM     18  C   UNL     1       5.573   4.647  16.685  0.00  0.00    +0.000 A 
ENDBRANCH   5   9
BRANCH   4  19
ATOM     19  C   UNL     1       2.245   6.160  18.908  0.00  0.00    +0.000 A 
ATOM     20  C   UNL     1       2.364   7.069  17.842  0.00  0.00    +0.000 A 
ATOM     21  C   UNL     1       2.124   8.435  18.029  0.00  0.00    +0.000 A 
ATOM     22  C   UNL     1       1.754   8.906  19.287  0.00  0.00    +0.000 A 
ATOM     23  C   UNL     1       1.664   8.025  20.358  0.00  0.00    +0.000 A 
ATOM     24  C   UNL     1       1.937   6.671  20.172  0.00  0.00    +0.000 A 
ATOM     25  F   UNL     1       1.875   5.866  21.244  0.00  0.00    +0.000 F 
ENDBRANCH   4  19
TORSDOF 2
ENDMDL
MODEL 2
REMARK VINA RESULT:      -8.3      0.996      1.406
REMARK  Name = 
REMARK  2 active torsions:
REMARK  status: ('A' for Active; 'I' for Inactive)
REMARK    1  A    between atoms: C_4  and  C_5
REMARK    2  A    between atoms: C_12  and  C_13
REMARK                            x       y       z     vdW  Elec       q    Type
REMARK                         _______ _______ _______ _____ _____    ______ ____
ROOT
ATOM      1  N   UNL     1       0.984   1.350  18.937  0.00  0.00    +0.000 N 
ATOM      2  C   UNL     1       1.790   2.419  18.922  0.00  0.00    +0.000 A 
ATOM      3  N   UNL     1       1.380   3.636  19.156  0.00  0.00    +0.000 NA
ATOM      4  C   UNL     1       2.416   4.550  18.960  0.00  0.00    +0.000 A 
ATOM      5  C   UNL     1       3.637   3.991  18.567  0.00  0.00    +0.000 A 
ATOM      6  S   UNL     1       3.462   2.264  18.636  0.00  0.00    +0.000 S 
ATOM      7  H   UNL     1       0.085   1.453  19.391  0.00  0.00    +0.000 HD
ATOM      8  H   UNL     1       1.389   0.424  18.967  0.00  0.00    +0.000 HD
ENDROOT
BRANCH   5   9
ATOM      9  C   UNL     1       4.975   4.572  18.276  0.00  0.00    +0.000 A 
ATOM     10  C   UNL     1       5.734   5.039  19.355  0.00  0.00    +0.000 A 
ATOM     11  C   UNL     1       6.962   5.618  19.119  0.00  0.00    +0.000 A 
ATOM     12  N   UNL     1       7.529   5.689  17.904  0.00  0.00    +0.000 NA
ATOM     13  C   UNL     1       6.848   5.203  16.858  0.00  0.00    +0.000 A 
ATOM     14  C   UNL     1       7.492   5.223  15.627  0.00  0.00    +0.000 A 
ATOM     15  C   UNL     1       6.888   4.745  14.465  0.00  0.00    +0.000 A 
ATOM     16  C   UNL     1       5.584   4.287  14.520  0.00  0.00    +0.000 A 
ATOM     17  C   UNL     1       4.909   4.280  15.741  0.00  0.00    +0.000 A 
ATOM     18  C   UNL     1       5.539   4.671  16.959  0.00  0.00    +0.000 A 
ENDBRANCH   5   9
BRANCH   4  19
ATOM     19  C   UNL     1       2.153   5.959  19.257  0.00  0.00    +0.000 A 
ATOM     20  C   UNL     1       1.631   6.294  20.519  0.00  0.00    +0.000 A 
ATOM     21  C   UNL     1       1.435   7.630  20.885  0.00  0.00    +0.000 A 
ATOM     22  C   UNL     1       1.766   8.648  19.993  0.00  0.00    +0.000 A 
ATOM     23  C   UNL     1       2.253   8.332  18.730  0.00  0.00    +0.000 A 
ATOM     24  C   UNL     1       2.414   6.998  18.360  0.00  0.00    +0.000 A 
ATOM     25  F   UNL     1       2.850   6.741  17.117  0.00  0.00    +0.000 F 
ENDBRANCH   4  19
TORSDOF 2
ENDMDL
MODEL 3
REMARK VINA RESULT:      -8.1      2.546      5.707
REMARK  Name = 
REMARK  2 active torsions:
REMARK  status: ('A' for Active; 'I' for Inactive)
REMARK    1  A    between atoms: C_4  and  C_5
REMARK    2  A    between atoms: C_12  and  C_13
REMARK                            x       y       z     vdW  Elec       q    Type
REMARK                         _______ _______ _______ _____ _____    ______ ____
ROOT
ATOM      1  N   UNL     1       7.149   4.230  12.421  0.00  0.00    +0.000 N 
ATOM      2  C   UNL     1       6.702   4.498  13.654  0.00  0.00    +0.000 A 
ATOM      3  N   UNL     1       7.384   5.172  14.540  0.00  0.00    +0.000 NA
ATOM      4  C   UNL     1       6.714   5.194  15.764  0.00  0.00    +0.000 A 
ATOM      5  C   UNL     1       5.492   4.513  15.786  0.00  0.00    +0.000 A 
ATOM      6  S   UNL     1       5.151   4.008  14.160  0.00  0.00    +0.000 S 
ATOM      7  H   UNL     1       7.928   4.781  12.081  0.00  0.00    +0.000 HD
ATOM      8  H   UNL     1       6.501   3.902  11.718  0.00  0.00    +0.000 HD
ENDROOT
BRANCH   5   9
ATOM      9  C   UNL     1       4.464   4.303  16.841  0.00  0.00    +0.000 A 
ATOM     10  C   UNL     1       4.196   2.989  17.239  0.00  0.00    +0.000 A 
ATOM     11  C   UNL     1       3.223   2.754  18.187  0.00  0.00    +0.000 A 
ATOM     12  N   UNL     1       2.560   3.729  18.829  0.00  0.00    +0.000 NA
ATOM     13  C   UNL     1       2.833   5.000  18.505  0.00  0.00    +0.000 A 
ATOM     14  C   UNL     1       2.186   5.987  19.238  0.00  0.00    +0.000 A 
ATOM     15  C   UNL     1       2.387   7.345  18.997  0.00  0.00    +0.000 A 
ATOM     16  C   UNL     1       3.213   7.731  17.956  0.00  0.00    +0.000 A 
ATOM     17  C   UNL     1       3.855   6.757  17.191  0.00  0.00    +0.000 A 
ATOM     18  C   UNL     1       3.742   5.366  17.482  0.00  0.00    +0.000 A 
ENDBRANCH   5   9
BRANCH   4  19
ATOM     19  C   UNL     1       7.300   5.979  16.852  0.00  0.00    +0.000 A 
ATOM     20  C   UNL     1       7.468   7.363  16.670  0.00  0.00    +0.000 A 
ATOM     21  C   UNL     1       7.950   8.172  17.704  0.00  0.00    +0.000 A 
ATOM     22  C   UNL     1       8.262   7.605  18.938  0.00  0.00    +0.000 A 
ATOM     23  C   UNL     1       8.132   6.234  19.123  0.00  0.00    +0.000 A 
ATOM     24  C   UNL     1       7.683   5.429  18.078  0.00  0.00    +0.000 A 
ATOM     25  F   UNL     1       7.611   4.106  18.292  0.00  0.00    +0.000 F 
ENDBRANCH   4  19
TORSDOF 2
ENDMDL
MODEL 4
REMARK VINA RESULT:      -8.1      0.845      2.284
REMARK  Name = 
REMARK  2 active torsions:
REMARK  status: ('A' for Active; 'I' for Inactive)
REMARK    1  A    between atoms: C_4  and  C_5
REMARK    2  A    between atoms: C_12  and  C_13
REMARK                            x       y       z     vdW  Elec       q    Type
REMARK                         _______ _______ _______ _____ _____    ______ ____
ROOT
ATOM      1  N   UNL     1       0.930   1.361  18.909  0.00  0.00    +0.000 N 
ATOM      2  C   UNL     1       1.711   2.412  18.629  0.00  0.00    +0.000 A 
ATOM      3  N   UNL     1       1.417   3.639  18.963  0.00  0.00    +0.000 NA
ATOM      4  C   UNL     1       2.357   4.529  18.441  0.00  0.00    +0.000 A 
ATOM      5  C   UNL     1       3.383   3.941  17.694  0.00  0.00    +0.000 A 
ATOM      6  S   UNL     1       3.206   2.219  17.836  0.00  0.00    +0.000 S 
ATOM      7  H   UNL     1       0.220   1.486  19.619  0.00  0.00    +0.000 HD
ATOM      8  H   UNL     1       1.307   0.426  18.822  0.00  0.00    +0.000 HD
ENDROOT
BRANCH   5   9
ATOM      9  C   UNL     1       4.573   4.491  16.992  0.00  0.00    +0.000 A 
ATOM     10  C   UNL     1       4.565   4.490  15.592  0.00  0.00    +0.000 A 
ATOM     11  C   UNL     1       5.667   4.957  14.909  0.00  0.00    +0.000 A 
ATOM     12  N   UNL     1       6.736   5.505  15.507  0.00  0.00    +0.000 NA
ATOM     13  C   UNL     1       6.750   5.567  16.845  0.00  0.00    +0.000 A 
ATOM     14  C   UNL     1       7.835   6.206  17.433  0.00  0.00    +0.000 A 
ATOM     15  C   UNL     1       7.962   6.336  18.814  0.00  0.00    +0.000 A 
ATOM     16  C   UNL     1       7.011   5.762  19.637  0.00  0.00    +0.000 A 
ATOM     17  C   UNL     1       5.924   5.094  19.071  0.00  0.00    +0.000 A 
ATOM     18  C   UNL     1       5.721   5.035  17.661  0.00  0.00    +0.000 A 
ENDBRANCH   5   9
BRANCH   4  19
ATOM     19  C   UNL     1       2.226   5.945  18.788  0.00  0.00    +0.000 A 
ATOM     20  C   UNL     1       2.303   6.900  17.759  0.00  0.00    +0.000 A 
ATOM     21  C   UNL     1       2.106   8.260  18.023  0.00  0.00    +0.000 A 
ATOM     22  C   UNL     1       1.822   8.679  19.321  0.00  0.00    +0.000 A 
ATOM     23  C   UNL     1       1.774   7.751  20.354  0.00  0.00    +0.000 A 
ATOM     24  C   UNL     1       2.005   6.401  20.090  0.00  0.00    +0.000 A 
ATOM     25  F   UNL     1       1.987   5.548  21.125  0.00  0.00    +0.000 F 
ENDBRANCH   4  19
TORSDOF 2
ENDMDL
MODEL 5
REMARK VINA RESULT:      -8.0      2.329      5.989
REMARK  Name = 
REMARK  2 active torsions:
REMARK  status: ('A' for Active; 'I' for Inactive)
REMARK    1  A    between atoms: C_4  and  C_5
REMARK    2  A    between atoms: C_12  and  C_13
REMARK                            x       y       z     vdW  Elec       q    Type
REMARK                         _______ _______ _______ _____ _____    ______ ____
ROOT
ATOM      1  N   UNL     1       2.154   2.457  21.909  0.00  0.00    +0.000 N 
ATOM      2  C   UNL     1       2.501   3.414  21.039  0.00  0.00    +0.000 A 
ATOM      3  N   UNL     1       3.594   3.380  20.326  0.00  0.00    +0.000 NA
ATOM      4  C   UNL     1       3.742   4.561  19.598  0.00  0.00    +0.000 A 
ATOM      5  C   UNL     1       2.724   5.504  19.778  0.00  0.00    +0.000 A 
ATOM      6  S   UNL     1       1.496   4.760  20.755  0.00  0.00    +0.000 S 
ATOM      7  H   UNL     1       2.621   1.563  21.826  0.00  0.00    +0.000 HD
ATOM      8  H   UNL     1       1.207   2.429  22.265  0.00  0.00    +0.000 HD
ENDROOT
BRANCH   5   9
ATOM      9  C   UNL     1       2.474   6.852  19.202  0.00  0.00    +0.000 A 
ATOM     10  C   UNL     1       2.956   7.112  17.914  0.00  0.00    +0.000 A 
ATOM     11  C   UNL     1       2.775   8.364  17.364  0.00  0.00    +0.000 A 
ATOM     12  N   UNL     1       2.077   9.344  17.960  0.00  0.00    +0.000 NA
ATOM     13  C   UNL     1       1.559   9.106  19.172  0.00  0.00    +0.000 A 
ATOM     14  C   UNL     1       0.780  10.112  19.729  0.00  0.00    +0.000 A 
ATOM     15  C   UNL     1       0.186   9.983  20.983  0.00  0.00    +0.000 A 
ATOM     16  C   UNL     1       0.422   8.843  21.729  0.00  0.00    +0.000 A 
ATOM     17  C   UNL     1       1.221   7.829  21.200  0.00  0.00    +0.000 A 
ATOM     18  C   UNL     1       1.757   7.895  19.880  0.00  0.00    +0.000 A 
ENDBRANCH   5   9
BRANCH   4  19
ATOM     19  C   UNL     1       4.876   4.660  18.678  0.00  0.00    +0.000 A 
ATOM     20  C   UNL     1       6.075   5.228  19.144  0.00  0.00    +0.000 A 
ATOM     21  C   UNL     1       7.213   5.276  18.332  0.00  0.00    +0.000 A 
ATOM     22  C   UNL     1       7.167   4.748  17.044  0.00  0.00    +0.000 A 
ATOM     23  C   UNL     1       5.980   4.213  16.557  0.00  0.00    +0.000 A 
ATOM     24  C   UNL     1       4.840   4.199  17.359  0.00  0.00    +0.000 A 
ATOM     25  F   UNL     1       3.708   3.707  16.832  0.00  0.00    +0.000 F 
ENDBRANCH   4  19
TORSDOF 2
ENDMDL
MODEL 6
REMARK VINA RESULT:      -7.9      2.374      3.648
REMARK  Name = 
REMARK  2 active torsions:
REMARK  status: ('A' for Active; 'I' for Inactive)
REMARK    1  A    between atoms: C_4  and  C_5
REMARK    2  A    between atoms: C_12  and  C_13
REMARK                            x       y       z     vdW  Elec       q    Type
REMARK                         _______ _______ _______ _____ _____    ______ ____
ROOT
ATOM      1  N   UNL     1       1.345   9.556  17.832  0.00  0.00    +0.000 N 
ATOM      2  C   UNL     1       2.023   8.415  18.006  0.00  0.00    +0.000 A 
ATOM      3  N   UNL     1       1.537   7.372  18.624  0.00  0.00    +0.000 NA
ATOM      4  C   UNL     1       2.510   6.379  18.750  0.00  0.00    +0.000 A 
ATOM      5  C   UNL     1       3.759   6.696  18.207  0.00  0.00    +0.000 A 
ATOM      6  S   UNL     1       3.595   8.215  17.380  0.00  0.00    +0.000 S 
ATOM      7  H   UNL     1       0.341   9.522  17.957  0.00  0.00    +0.000 HD
ATOM      8  H   UNL     1       1.683  10.239  17.167  0.00  0.00    +0.000 HD
ENDROOT
BRANCH   5   9
ATOM      9  C   UNL     1       5.041   5.949  18.101  0.00  0.00    +0.000 A 
ATOM     10  C   UNL     1       5.761   5.716  19.279  0.00  0.00    +0.000 A 
ATOM     11  C   UNL     1       6.972   5.060  19.213  0.00  0.00    +0.000 A 
ATOM     12  N   UNL     1       7.477   4.543  18.082  0.00  0.00    +0.000 NA
ATOM     13  C   UNL     1       6.784   4.705  16.947  0.00  0.00    +0.000 A 
ATOM     14  C   UNL     1       7.295   4.096  15.808  0.00  0.00    +0.000 A 
ATOM     15  C   UNL     1       6.666   4.191  14.568  0.00  0.00    +0.000 A 
ATOM     16  C   UNL     1       5.525   4.964  14.447  0.00  0.00    +0.000 A 
ATOM     17  C   UNL     1       5.007   5.605  15.573  0.00  0.00    +0.000 A 
ATOM     18  C   UNL     1       5.577   5.442  16.869  0.00  0.00    +0.000 A 
ENDBRANCH   5   9
BRANCH   4  19
ATOM     19  C   UNL     1       2.112   5.104  19.348  0.00  0.00    +0.000 A 
ATOM     20  C   UNL     1       2.345   4.901  20.719  0.00  0.00    +0.000 A 
ATOM     21  C   UNL     1       1.914   3.733  21.358  0.00  0.00    +0.000 A 
ATOM     22  C   UNL     1       1.237   2.757  20.632  0.00  0.00    +0.000 A 
ATOM     23  C   UNL     1       1.027   2.928  19.268  0.00  0.00    +0.000 A 
ATOM     24  C   UNL     1       1.489   4.078  18.632  0.00  0.00    +0.000 A 
ATOM     25  F   UNL     1       1.297   4.181  17.307  0.00  0.00    +0.000 F 
ENDBRANCH   4  19
TORSDOF 2
ENDMDL
MODEL 7
REMARK VINA RESULT:      -7.8      2.243      5.859
REMARK  Name = 
REMARK  2 active torsions:
REMARK  status: ('A' for Active; 'I' for Inactive)
REMARK    1  A    between atoms: C_4  and  C_5
REMARK    2  A    between atoms: C_12  and  C_13
REMARK                            x       y       z     vdW  Elec       q    Type
REMARK                         _______ _______ _______ _____ _____    ______ ____
ROOT
ATOM      1  N   UNL     1       2.259   2.393  21.915  0.00  0.00    +0.000 N 
ATOM      2  C   UNL     1       2.577   3.324  21.006  0.00  0.00    +0.000 A 
ATOM      3  N   UNL     1       3.604   3.230  20.206  0.00  0.00    +0.000 NA
ATOM      4  C   UNL     1       3.747   4.396  19.452  0.00  0.00    +0.000 A 
ATOM      5  C   UNL     1       2.792   5.387  19.702  0.00  0.00    +0.000 A 
ATOM      6  S   UNL     1       1.616   4.713  20.787  0.00  0.00    +0.000 S 
ATOM      7  H   UNL     1       2.676   1.477  21.807  0.00  0.00    +0.000 HD
ATOM      8  H   UNL     1       1.345   2.413  22.347  0.00  0.00    +0.000 HD
ENDROOT
BRANCH   5   9
ATOM      9  C   UNL     1       2.557   6.740  19.129  0.00  0.00    +0.000 A 
ATOM     10  C   UNL     1       3.048   7.000  17.845  0.00  0.00    +0.000 A 
ATOM     11  C   UNL     1       2.882   8.255  17.298  0.00  0.00    +0.000 A 
ATOM     12  N   UNL     1       2.190   9.240  17.893  0.00  0.00    +0.000 NA
ATOM     13  C   UNL     1       1.664   9.003  19.102  0.00  0.00    +0.000 A 
ATOM     14  C   UNL     1       0.892  10.014  19.659  0.00  0.00    +0.000 A 
ATOM     15  C   UNL     1       0.291   9.887  20.910  0.00  0.00    +0.000 A 
ATOM     16  C   UNL     1       0.512   8.742  21.653  0.00  0.00    +0.000 A 
ATOM     17  C   UNL     1       1.304   7.722  21.124  0.00  0.00    +0.000 A 
ATOM     18  C   UNL     1       1.847   7.788  19.807  0.00  0.00    +0.000 A 
ENDBRANCH   5   9
BRANCH   4  19
ATOM     19  C   UNL     1       4.804   4.432  18.440  0.00  0.00    +0.000 A 
ATOM     20  C   UNL     1       4.552   3.858  17.182  0.00  0.00    +0.000 A 
ATOM     21  C   UNL     1       5.497   3.934  16.153  0.00  0.00    +0.000 A 
ATOM     22  C   UNL     1       6.705   4.594  16.370  0.00  0.00    +0.000 A 
ATOM     23  C   UNL     1       6.982   5.139  17.619  0.00  0.00    +0.000 A 
ATOM     24  C   UNL     1       6.050   5.030  18.649  0.00  0.00    +0.000 A 
ATOM     25  F   UNL     1       6.378   5.536  19.848  0.00  0.00    +0.000 F 
ENDBRANCH   4  19
TORSDOF 2
ENDMDL
MODEL 8
REMARK VINA RESULT:      -7.7      2.172      3.477
REMARK  Name = 
REMARK  2 active torsions:
REMARK  status: ('A' for Active; 'I' for Inactive)
REMARK    1  A    between atoms: C_4  and  C_5
REMARK    2  A    between atoms: C_12  and  C_13
REMARK                            x       y       z     vdW  Elec       q    Type
REMARK                         _______ _______ _______ _____ _____    ______ ____
ROOT
ATOM      1  N   UNL     1       1.341   9.646  17.771  0.00  0.00    +0.000 N 
ATOM      2  C   UNL     1       1.987   8.480  17.905  0.00  0.00    +0.000 A 
ATOM      3  N   UNL     1       1.435   7.400  18.386  0.00  0.00    +0.000 NA
ATOM      4  C   UNL     1       2.378   6.379  18.511  0.00  0.00    +0.000 A 
ATOM      5  C   UNL     1       3.675   6.715  18.107  0.00  0.00    +0.000 A 
ATOM      6  S   UNL     1       3.604   8.300  17.402  0.00  0.00    +0.000 S 
ATOM      7  H   UNL     1       0.330   9.622  17.806  0.00  0.00    +0.000 HD
ATOM      8  H   UNL     1       1.746  10.375  17.199  0.00  0.00    +0.000 HD
ENDROOT
BRANCH   5   9
ATOM      9  C   UNL     1       4.951   5.952  18.049  0.00  0.00    +0.000 A 
ATOM     10  C   UNL     1       5.614   5.694  19.254  0.00  0.00    +0.000 A 
ATOM     11  C   UNL     1       6.818   5.023  19.234  0.00  0.00    +0.000 A 
ATOM     12  N   UNL     1       7.368   4.515  18.120  0.00  0.00    +0.000 NA
ATOM     13  C   UNL     1       6.730   4.702  16.957  0.00  0.00    +0.000 A 
ATOM     14  C   UNL     1       7.284   4.101  15.834  0.00  0.00    +0.000 A 
ATOM     15  C   UNL     1       6.713   4.222  14.568  0.00  0.00    +0.000 A 
ATOM     16  C   UNL     1       5.588   5.011  14.407  0.00  0.00    +0.000 A 
ATOM     17  C   UNL     1       5.028   5.644  15.517  0.00  0.00    +0.000 A 
ATOM     18  C   UNL     1       5.536   5.455  16.835  0.00  0.00    +0.000 A 
ENDBRANCH   5   9
BRANCH   4  19
ATOM     19  C   UNL     1       1.913   5.066  18.960  0.00  0.00    +0.000 A 
ATOM     20  C   UNL     1       1.726   4.053  18.003  0.00  0.00    +0.000 A 
ATOM     21  C   UNL     1       1.359   2.759  18.387  0.00  0.00    +0.000 A 
ATOM     22  C   UNL     1       1.181   2.461  19.736  0.00  0.00    +0.000 A 
ATOM     23  C   UNL     1       1.330   3.460  20.692  0.00  0.00    +0.000 A 
ATOM     24  C   UNL     1       1.663   4.755  20.299  0.00  0.00    +0.000 A 
ATOM     25  F   UNL     1       1.758   5.694  21.254  0.00  0.00    +0.000 F 
ENDBRANCH   4  19
TORSDOF 2
ENDMDL
MODEL 9
REMARK VINA RESULT:      -7.6      2.679      5.653
REMARK  Name = 
REMARK  2 active torsions:
REMARK  status: ('A' for Active; 'I' for Inactive)
REMARK    1  A    between atoms: C_4  and  C_5
REMARK    2  A    between atoms: C_12  and  C_13
REMARK                            x       y       z     vdW  Elec       q    Type
REMARK                         _______ _______ _______ _____ _____    ______ ____
ROOT
ATOM      1  N   UNL     1       6.588   3.631  13.727  0.00  0.00    +0.000 N 
ATOM      2  C   UNL     1       6.258   4.350  14.807  0.00  0.00    +0.000 A 
ATOM      3  N   UNL     1       7.088   5.144  15.427  0.00  0.00    +0.000 NA
ATOM      4  C   UNL     1       6.498   5.669  16.578  0.00  0.00    +0.000 A 
ATOM      5  C   UNL     1       5.185   5.249  16.819  0.00  0.00    +0.000 A 
ATOM      6  S   UNL     1       4.678   4.319  15.443  0.00  0.00    +0.000 S 
ATOM      7  H   UNL     1       7.425   3.903  13.227  0.00  0.00    +0.000 HD
ATOM      8  H   UNL     1       5.858   3.211  13.167  0.00  0.00    +0.000 HD
ENDROOT
BRANCH   5   9
ATOM      9  C   UNL     1       4.196   5.565  17.884  0.00  0.00    +0.000 A 
ATOM     10  C   UNL     1       3.571   6.817  17.846  0.00  0.00    +0.000 A 
ATOM     11  C   UNL     1       2.678   7.157  18.839  0.00  0.00    +0.000 A 
ATOM     12  N   UNL     1       2.293   6.318  19.813  0.00  0.00    +0.000 NA
ATOM     13  C   UNL     1       2.836   5.094  19.845  0.00  0.00    +0.000 A 
ATOM     14  C   UNL     1       2.364   4.224  20.820  0.00  0.00    +0.000 A 
ATOM     15  C   UNL     1       2.849   2.924  20.954  0.00  0.00    +0.000 A 
ATOM     16  C   UNL     1       3.875   2.498  20.130  0.00  0.00    +0.000 A 
ATOM     17  C   UNL     1       4.382   3.362  19.159  0.00  0.00    +0.000 A 
ATOM     18  C   UNL     1       3.834   4.660  18.939  0.00  0.00    +0.000 A 
ENDBRANCH   5   9
BRANCH   4  19
ATOM     19  C   UNL     1       7.262   6.647  17.354  0.00  0.00    +0.000 A 
ATOM     20  C   UNL     1       7.290   7.982  16.915  0.00  0.00    +0.000 A 
ATOM     21  C   UNL     1       7.939   8.972  17.661  0.00  0.00    +0.000 A 
ATOM     22  C   UNL     1       8.561   8.638  18.862  0.00  0.00    +0.000 A 
ATOM     23  C   UNL     1       8.570   7.316  19.293  0.00  0.00    +0.000 A 
ATOM     24  C   UNL     1       7.950   6.329  18.528  0.00  0.00    +0.000 A 
ATOM     25  F   UNL     1       8.018   5.063  18.966  0.00  0.00    +0.000 F 
ENDBRANCH   4  19
TORSDOF 2
ENDMDL
