MODEL 1
REMARK VINA RESULT:      -6.4      0.000      0.000
REMARK  Name = 
REMARK  6 active torsions:
REMARK  status: ('A' for Active; 'I' for Inactive)
REMARK    1  A    between atoms: C_1  and  O_2
REMARK    2  A    between atoms: O_2  and  C_3
REMARK    3  A    between atoms: C_3  and  C_13
REMARK    4  A    between atoms: C_4  and  C_5
REMARK    5  A    between atoms: C_8  and  O_9
REMARK    6  A    between atoms: C_13  and  O_15
REMARK                            x       y       z     vdW  Elec       q    Type
REMARK                         _______ _______ _______ _____ _____    ______ ____
ROOT
ATOM      1  C   UNL     1       3.883   3.597  18.085  0.00  0.00    +0.000 A 
ATOM      2  C   UNL     1       2.688   3.810  17.389  0.00  0.00    +0.000 A 
ATOM      3  C   UNL     1       1.456   3.656  18.031  0.00  0.00    +0.000 A 
ATOM      4  C   UNL     1       1.421   3.295  19.379  0.00  0.00    +0.000 A 
ATOM      5  C   UNL     1       2.611   3.064  20.076  0.00  0.00    +0.000 A 
ATOM      6 CL   UNL     1       2.601   2.622  21.744  0.00  0.00    +0.000 Cl
ATOM      7  C   UNL     1       3.841   3.214  19.431  0.00  0.00    +0.000 A 
ENDROOT
BRANCH   1   9
ATOM      8  C   UNL     1       5.852   5.034  17.307  0.00  0.00    +0.000 C 
ATOM      9  C   UNL     1       5.170   3.878  17.445  0.00  0.00    +0.000 C 
BRANCH   8  11
ATOM     10  C   UNL     1       4.566   7.065  17.134  0.00  0.00    +0.000 C 
ATOM     11  O   UNL     1       5.570   6.297  17.780  0.00  0.00    +0.000 OA
ENDBRANCH   8  11
BRANCH   8  12
ATOM     12  C   UNL     1       7.120   4.931  16.502  0.00  0.00    +0.000 C 
ATOM     13  O   UNL     1       7.327   5.458  15.422  0.00  0.00    +0.000 OA
BRANCH  12  14
ATOM     14  O   UNL     1       8.023   4.145  17.134  0.00  0.00    +0.000 OA
ATOM     15  H   UNL     1       8.375   4.611  17.921  0.00  0.00    +0.000 HD
ENDBRANCH  12  14
ENDBRANCH   8  12
ENDBRANCH   1   9
BRANCH   4  16
ATOM     16  O   UNL     1       0.217   3.186  20.018  0.00  0.00    +0.000 OA
ATOM     17  H   UNL     1       0.254   3.662  20.863  0.00  0.00    +0.000 HD
ENDBRANCH   4  16
TORSDOF 5
ENDMDL
MODEL 2
REMARK VINA RESULT:      -6.4      1.635      1.794
REMARK  Name = 
REMARK  6 active torsions:
REMARK  status: ('A' for Active; 'I' for Inactive)
REMARK    1  A    between atoms: C_1  and  O_2
REMARK    2  A    between atoms: O_2  and  C_3
REMARK    3  A    between atoms: C_3  and  C_13
REMARK    4  A    between atoms: C_4  and  C_5
REMARK    5  A    between atoms: C_8  and  O_9
REMARK    6  A    between atoms: C_13  and  O_15
REMARK                            x       y       z     vdW  Elec       q    Type
REMARK                         _______ _______ _______ _____ _____    ______ ____
ROOT
ATOM      1  C   UNL     1       3.640   3.742  17.796  0.00  0.00    +0.000 A 
ATOM      2  C   UNL     1       2.927   2.539  17.749  0.00  0.00    +0.000 A 
ATOM      3  C   UNL     1       1.836   2.327  18.597  0.00  0.00    +0.000 A 
ATOM      4  C   UNL     1       1.452   3.327  19.490  0.00  0.00    +0.000 A 
ATOM      5  C   UNL     1       2.170   4.526  19.555  0.00  0.00    +0.000 A 
ATOM      6 CL   UNL     1       1.717   5.784  20.646  0.00  0.00    +0.000 Cl
ATOM      7  C   UNL     1       3.263   4.734  18.710  0.00  0.00    +0.000 A 
ENDROOT
BRANCH   1   9
ATOM      8  C   UNL     1       6.013   4.277  17.003  0.00  0.00    +0.000 C 
ATOM      9  C   UNL     1       4.702   4.010  16.824  0.00  0.00    +0.000 C 
BRANCH   8  11
ATOM     10  C   UNL     1       6.765   5.513  18.930  0.00  0.00    +0.000 C 
ATOM     11  O   UNL     1       6.765   4.322  18.156  0.00  0.00    +0.000 OA
ENDBRANCH   8  11
BRANCH   8  12
ATOM     12  C   UNL     1       6.776   4.583  15.741  0.00  0.00    +0.000 C 
ATOM     13  O   UNL     1       7.526   5.528  15.569  0.00  0.00    +0.000 OA
BRANCH  12  14
ATOM     14  O   UNL     1       6.506   3.661  14.786  0.00  0.00    +0.000 OA
ATOM     15  H   UNL     1       6.508   2.764  15.182  0.00  0.00    +0.000 HD
ENDBRANCH  12  14
ENDBRANCH   8  12
ENDBRANCH   1   9
BRANCH   4  16
ATOM     16  O   UNL     1       0.360   3.137  20.291  0.00  0.00    +0.000 OA
ATOM     17  H   UNL     1      -0.283   2.571  19.833  0.00  0.00    +0.000 HD
ENDBRANCH   4  16
TORSDOF 5
ENDMDL
MODEL 3
REMARK VINA RESULT:      -6.4      1.752      2.219
REMARK  Name = 
REMARK  6 active torsions:
REMARK  status: ('A' for Active; 'I' for Inactive)
REMARK    1  A    between atoms: C_1  and  O_2
REMARK    2  A    between atoms: O_2  and  C_3
REMARK    3  A    between atoms: C_3  and  C_13
REMARK    4  A    between atoms: C_4  and  C_5
REMARK    5  A    between atoms: C_8  and  O_9
REMARK    6  A    between atoms: C_13  and  O_15
REMARK                            x       y       z     vdW  Elec       q    Type
REMARK                         _______ _______ _______ _____ _____    ______ ____
ROOT
ATOM      1  C   UNL     1       4.143   4.427  18.998  0.00  0.00    +0.000 A 
ATOM      2  C   UNL     1       3.611   4.330  17.707  0.00  0.00    +0.000 A 
ATOM      3  C   UNL     1       2.372   3.717  17.496  0.00  0.00    +0.000 A 
ATOM      4  C   UNL     1       1.660   3.207  18.581  0.00  0.00    +0.000 A 
ATOM      5  C   UNL     1       2.193   3.286  19.872  0.00  0.00    +0.000 A 
ATOM      6 CL   UNL     1       1.335   2.669  21.236  0.00  0.00    +0.000 Cl
ATOM      7  C   UNL     1       3.434   3.894  20.081  0.00  0.00    +0.000 A 
ENDROOT
BRANCH   1   9
ATOM      8  C   UNL     1       6.612   5.032  18.700  0.00  0.00    +0.000 C 
ATOM      9  C   UNL     1       5.380   5.177  19.232  0.00  0.00    +0.000 C 
BRANCH   8  11
ATOM     10  C   UNL     1       7.070   4.596  16.375  0.00  0.00    +0.000 C 
ATOM     11  O   UNL     1       7.068   4.168  17.729  0.00  0.00    +0.000 OA
ENDBRANCH   8  11
BRANCH   8  12
ATOM     12  C   UNL     1       7.658   5.956  19.263  0.00  0.00    +0.000 C 
ATOM     13  O   UNL     1       8.123   6.936  18.706  0.00  0.00    +0.000 OA
BRANCH  12  14
ATOM     14  O   UNL     1       8.045   5.545  20.495  0.00  0.00    +0.000 OA
ATOM     15  H   UNL     1       7.986   4.567  20.550  0.00  0.00    +0.000 HD
ENDBRANCH  12  14
ENDBRANCH   8  12
ENDBRANCH   1   9
BRANCH   4  16
ATOM     16  O   UNL     1       0.430   2.645  18.380  0.00  0.00    +0.000 OA
ATOM     17  H   UNL     1      -0.261   3.301  18.566  0.00  0.00    +0.000 HD
ENDBRANCH   4  16
TORSDOF 5
ENDMDL
MODEL 4
REMARK VINA RESULT:      -6.3      1.800      2.290
REMARK  Name = 
REMARK  6 active torsions:
REMARK  status: ('A' for Active; 'I' for Inactive)
REMARK    1  A    between atoms: C_1  and  O_2
REMARK    2  A    between atoms: O_2  and  C_3
REMARK    3  A    between atoms: C_3  and  C_13
REMARK    4  A    between atoms: C_4  and  C_5
REMARK    5  A    between atoms: C_8  and  O_9
REMARK    6  A    between atoms: C_13  and  O_15
REMARK                            x       y       z     vdW  Elec       q    Type
REMARK                         _______ _______ _______ _____ _____    ______ ____
ROOT
ATOM      1  C   UNL     1       3.788   4.764  17.365  0.00  0.00    +0.000 A 
ATOM      2  C   UNL     1       3.834   5.811  18.292  0.00  0.00    +0.000 A 
ATOM      3  C   UNL     1       2.950   5.839  19.375  0.00  0.00    +0.000 A 
ATOM      4  C   UNL     1       2.023   4.809  19.535  0.00  0.00    +0.000 A 
ATOM      5  C   UNL     1       1.960   3.768  18.603  0.00  0.00    +0.000 A 
ATOM      6 CL   UNL     1       0.827   2.478  18.775  0.00  0.00    +0.000 Cl
ATOM      7  C   UNL     1       2.841   3.745  17.519  0.00  0.00    +0.000 A 
ENDROOT
BRANCH   1   9
ATOM      8  C   UNL     1       6.133   4.525  16.370  0.00  0.00    +0.000 C 
ATOM      9  C   UNL     1       4.794   4.674  16.304  0.00  0.00    +0.000 C 
BRANCH   8  11
ATOM     10  C   UNL     1       7.459   5.500  18.130  0.00  0.00    +0.000 C 
ATOM     11  O   UNL     1       6.959   4.353  17.459  0.00  0.00    +0.000 OA
ENDBRANCH   8  11
BRANCH   8  12
ATOM     12  C   UNL     1       6.842   4.559  15.042  0.00  0.00    +0.000 C 
ATOM     13  O   UNL     1       7.670   5.383  14.692  0.00  0.00    +0.000 OA
BRANCH  12  14
ATOM     14  O   UNL     1       6.422   3.542  14.251  0.00  0.00    +0.000 OA
ATOM     15  H   UNL     1       7.172   3.207  13.716  0.00  0.00    +0.000 HD
ENDBRANCH  12  14
ENDBRANCH   8  12
ENDBRANCH   1   9
BRANCH   4  16
ATOM     16  O   UNL     1       1.186   4.814  20.616  0.00  0.00    +0.000 OA
ATOM     17  H   UNL     1       1.259   5.664  21.080  0.00  0.00    +0.000 HD
ENDBRANCH   4  16
TORSDOF 5
ENDMDL
MODEL 5
REMARK VINA RESULT:      -6.3      2.495      5.798
REMARK  Name = 
REMARK  6 active torsions:
REMARK  status: ('A' for Active; 'I' for Inactive)
REMARK    1  A    between atoms: C_1  and  O_2
REMARK    2  A    between atoms: O_2  and  C_3
REMARK    3  A    between atoms: C_3  and  C_13
REMARK    4  A    between atoms: C_4  and  C_5
REMARK    5  A    between atoms: C_8  and  O_9
REMARK    6  A    between atoms: C_13  and  O_15
REMARK                            x       y       z     vdW  Elec       q    Type
REMARK                         _______ _______ _______ _____ _____    ______ ____
ROOT
ATOM      1  C   UNL     1       3.990   5.292  19.031  0.00  0.00    +0.000 A 
ATOM      2  C   UNL     1       3.611   5.892  17.826  0.00  0.00    +0.000 A 
ATOM      3  C   UNL     1       4.576   6.423  16.964  0.00  0.00    +0.000 A 
ATOM      4  C   UNL     1       5.926   6.345  17.307  0.00  0.00    +0.000 A 
ATOM      5  C   UNL     1       6.311   5.761  18.518  0.00  0.00    +0.000 A 
ATOM      6 CL   UNL     1       7.972   5.645  18.970  0.00  0.00    +0.000 Cl
ATOM      7  C   UNL     1       5.345   5.235  19.380  0.00  0.00    +0.000 A 
ENDROOT
BRANCH   1   9
ATOM      8  C   UNL     1       2.800   3.321  20.149  0.00  0.00    +0.000 C 
ATOM      9  C   UNL     1       2.990   4.628  19.872  0.00  0.00    +0.000 C 
BRANCH   8  11
ATOM     10  C   UNL     1       3.367   1.705  18.454  0.00  0.00    +0.000 C 
ATOM     11  O   UNL     1       3.527   2.214  19.770  0.00  0.00    +0.000 OA
ENDBRANCH   8  11
BRANCH   8  12
ATOM     12  C   UNL     1       1.596   3.023  21.002  0.00  0.00    +0.000 C 
ATOM     13  O   UNL     1       1.615   2.562  22.131  0.00  0.00    +0.000 OA
BRANCH  12  14
ATOM     14  O   UNL     1       0.454   3.320  20.337  0.00  0.00    +0.000 OA
ATOM     15  H   UNL     1       0.250   4.274  20.441  0.00  0.00    +0.000 HD
ENDBRANCH  12  14
ENDBRANCH   8  12
ENDBRANCH   1   9
BRANCH   4  16
ATOM     16  O   UNL     1       6.872   6.827  16.446  0.00  0.00    +0.000 OA
ATOM     17  H   UNL     1       6.468   7.482  15.853  0.00  0.00    +0.000 HD
ENDBRANCH   4  16
TORSDOF 5
ENDMDL
MODEL 6
REMARK VINA RESULT:      -6.2      2.499      5.655
REMARK  Name = 
REMARK  6 active torsions:
REMARK  status: ('A' for Active; 'I' for Inactive)
REMARK    1  A    between atoms: C_1  and  O_2
REMARK    2  A    between atoms: O_2  and  C_3
REMARK    3  A    between atoms: C_3  and  C_13
REMARK    4  A    between atoms: C_4  and  C_5
REMARK    5  A    between atoms: C_8  and  O_9
REMARK    6  A    between atoms: C_13  and  O_15
REMARK                            x       y       z     vdW  Elec       q    Type
REMARK                         _______ _______ _______ _____ _____    ______ ____
ROOT
ATOM      1  C   UNL     1       4.750   4.235  18.558  0.00  0.00    +0.000 A 
ATOM      2  C   UNL     1       4.648   3.884  17.207  0.00  0.00    +0.000 A 
ATOM      3  C   UNL     1       5.556   4.392  16.273  0.00  0.00    +0.000 A 
ATOM      4  C   UNL     1       6.575   5.245  16.694  0.00  0.00    +0.000 A 
ATOM      5  C   UNL     1       6.673   5.613  18.040  0.00  0.00    +0.000 A 
ATOM      6 CL   UNL     1       7.925   6.663  18.594  0.00  0.00    +0.000 Cl
ATOM      7  C   UNL     1       5.762   5.109  18.972  0.00  0.00    +0.000 A 
ENDROOT
BRANCH   1   9
ATOM      8  C   UNL     1       2.662   3.973  20.014  0.00  0.00    +0.000 C 
ATOM      9  C   UNL     1       3.875   3.607  19.551  0.00  0.00    +0.000 C 
BRANCH   8  11
ATOM     10  C   UNL     1       2.151   6.326  20.128  0.00  0.00    +0.000 C 
ATOM     11  O   UNL     1       1.848   5.024  19.649  0.00  0.00    +0.000 OA
ENDBRANCH   8  11
BRANCH   8  12
ATOM     12  C   UNL     1       2.111   3.101  21.111  0.00  0.00    +0.000 C 
ATOM     13  O   UNL     1       2.760   2.557  21.988  0.00  0.00    +0.000 OA
BRANCH  12  14
ATOM     14  O   UNL     1       0.767   2.976  20.991  0.00  0.00    +0.000 OA
ATOM     15  H   UNL     1       0.363   2.885  21.880  0.00  0.00    +0.000 HD
ENDBRANCH  12  14
ENDBRANCH   8  12
ENDBRANCH   1   9
BRANCH   4  16
ATOM     16  O   UNL     1       7.488   5.708  15.788  0.00  0.00    +0.000 OA
ATOM     17  H   UNL     1       7.977   4.960  15.408  0.00  0.00    +0.000 HD
ENDBRANCH   4  16
TORSDOF 5
ENDMDL
MODEL 7
REMARK VINA RESULT:      -6.2      1.057      1.593
REMARK  Name = 
REMARK  6 active torsions:
REMARK  status: ('A' for Active; 'I' for Inactive)
REMARK    1  A    between atoms: C_1  and  O_2
REMARK    2  A    between atoms: O_2  and  C_3
REMARK    3  A    between atoms: C_3  and  C_13
REMARK    4  A    between atoms: C_4  and  C_5
REMARK    5  A    between atoms: C_8  and  O_9
REMARK    6  A    between atoms: C_13  and  O_15
REMARK                            x       y       z     vdW  Elec       q    Type
REMARK                         _______ _______ _______ _____ _____    ______ ____
ROOT
ATOM      1  C   UNL     1       3.918   3.839  18.405  0.00  0.00    +0.000 A 
ATOM      2  C   UNL     1       2.859   3.975  17.501  0.00  0.00    +0.000 A 
ATOM      3  C   UNL     1       1.553   3.657  17.887  0.00  0.00    +0.000 A 
ATOM      4  C   UNL     1       1.306   3.211  19.185  0.00  0.00    +0.000 A 
ATOM      5  C   UNL     1       2.363   3.057  20.089  0.00  0.00    +0.000 A 
ATOM      6 CL   UNL     1       2.090   2.511  21.703  0.00  0.00    +0.000 Cl
ATOM      7  C   UNL     1       3.668   3.370  19.700  0.00  0.00    +0.000 A 
ENDROOT
BRANCH   1   9
ATOM      8  C   UNL     1       5.786   4.618  16.838  0.00  0.00    +0.000 C 
ATOM      9  C   UNL     1       5.264   4.288  18.038  0.00  0.00    +0.000 C 
BRANCH   8  11
ATOM     10  C   UNL     1       5.791   3.999  14.509  0.00  0.00    +0.000 C 
ATOM     11  O   UNL     1       5.192   4.689  15.597  0.00  0.00    +0.000 OA
ENDBRANCH   8  11
BRANCH   8  12
ATOM     12  C   UNL     1       7.252   4.956  16.856  0.00  0.00    +0.000 C 
ATOM     13  O   UNL     1       8.153   4.221  17.225  0.00  0.00    +0.000 OA
BRANCH  12  14
ATOM     14  O   UNL     1       7.456   6.221  16.415  0.00  0.00    +0.000 OA
ATOM     15  H   UNL     1       7.841   6.199  15.513  0.00  0.00    +0.000 HD
ENDBRANCH  12  14
ENDBRANCH   8  12
ENDBRANCH   1   9
BRANCH   4  16
ATOM     16  O   UNL     1       0.024   2.940  19.576  0.00  0.00    +0.000 OA
ATOM     17  H   UNL     1       0.032   2.529  20.455  0.00  0.00    +0.000 HD
ENDBRANCH   4  16
TORSDOF 5
ENDMDL
MODEL 8
REMARK VINA RESULT:      -6.2      1.742      2.319
REMARK  Name = 
REMARK  6 active torsions:
REMARK  status: ('A' for Active; 'I' for Inactive)
REMARK    1  A    between atoms: C_1  and  O_2
REMARK    2  A    between atoms: O_2  and  C_3
REMARK    3  A    between atoms: C_3  and  C_13
REMARK    4  A    between atoms: C_4  and  C_5
REMARK    5  A    between atoms: C_8  and  O_9
REMARK    6  A    between atoms: C_13  and  O_15
REMARK                            x       y       z     vdW  Elec       q    Type
REMARK                         _______ _______ _______ _____ _____    ______ ____
ROOT
ATOM      1  C   UNL     1       4.339   4.868  17.454  0.00  0.00    +0.000 A 
ATOM      2  C   UNL     1       3.793   6.111  17.792  0.00  0.00    +0.000 A 
ATOM      3  C   UNL     1       3.107   6.279  18.998  0.00  0.00    +0.000 A 
ATOM      4  C   UNL     1       2.975   5.201  19.874  0.00  0.00    +0.000 A 
ATOM      5  C   UNL     1       3.505   3.951  19.535  0.00  0.00    +0.000 A 
ATOM      6 CL   UNL     1       3.362   2.599  20.598  0.00  0.00    +0.000 Cl
ATOM      7  C   UNL     1       4.186   3.783  18.326  0.00  0.00    +0.000 A 
ENDROOT
BRANCH   1   9
ATOM      8  C   UNL     1       6.501   4.733  16.091  0.00  0.00    +0.000 C 
ATOM      9  C   UNL     1       5.161   4.726  16.249  0.00  0.00    +0.000 C 
BRANCH   8  11
ATOM     10  C   UNL     1       7.552   5.945  17.890  0.00  0.00    +0.000 C 
ATOM     11  O   UNL     1       7.509   4.818  17.027  0.00  0.00    +0.000 OA
ENDBRANCH   8  11
BRANCH   8  12
ATOM     12  C   UNL     1       6.973   4.641  14.665  0.00  0.00    +0.000 C 
ATOM     13  O   UNL     1       7.719   5.426  14.105  0.00  0.00    +0.000 OA
BRANCH  12  14
ATOM     14  O   UNL     1       6.436   3.557  14.055  0.00  0.00    +0.000 OA
ATOM     15  H   UNL     1       6.641   2.750  14.573  0.00  0.00    +0.000 HD
ENDBRANCH  12  14
ENDBRANCH   8  12
ENDBRANCH   1   9
BRANCH   4  16
ATOM     16  O   UNL     1       2.341   5.376  21.072  0.00  0.00    +0.000 OA
ATOM     17  H   UNL     1       2.966   5.738  21.721  0.00  0.00    +0.000 HD
ENDBRANCH   4  16
TORSDOF 5
ENDMDL
MODEL 9
REMARK VINA RESULT:      -6.2      1.959      2.434
REMARK  Name = 
REMARK  6 active torsions:
REMARK  status: ('A' for Active; 'I' for Inactive)
REMARK    1  A    between atoms: C_1  and  O_2
REMARK    2  A    between atoms: O_2  and  C_3
REMARK    3  A    between atoms: C_3  and  C_13
REMARK    4  A    between atoms: C_4  and  C_5
REMARK    5  A    between atoms: C_8  and  O_9
REMARK    6  A    between atoms: C_13  and  O_15
REMARK                            x       y       z     vdW  Elec       q    Type
REMARK                         _______ _______ _______ _____ _____    ______ ____
ROOT
ATOM      1  C   UNL     1       4.329   5.126  17.927  0.00  0.00    +0.000 A 
ATOM      2  C   UNL     1       3.031   5.634  17.805  0.00  0.00    +0.000 A 
ATOM      3  C   UNL     1       1.926   4.780  17.877  0.00  0.00    +0.000 A 
ATOM      4  C   UNL     1       2.121   3.414  18.081  0.00  0.00    +0.000 A 
ATOM      5  C   UNL     1       3.417   2.897  18.187  0.00  0.00    +0.000 A 
ATOM      6 CL   UNL     1       3.692   1.213  18.444  0.00  0.00    +0.000 Cl
ATOM      7  C   UNL     1       4.520   3.751  18.110  0.00  0.00    +0.000 A 
ENDROOT
BRANCH   1   9
ATOM      8  C   UNL     1       6.731   5.896  17.500  0.00  0.00    +0.000 C 
ATOM      9  C   UNL     1       5.476   6.036  17.974  0.00  0.00    +0.000 C 
BRANCH   8  11
ATOM     10  C   UNL     1       7.007   4.770  15.387  0.00  0.00    +0.000 C 
ATOM     11  O   UNL     1       7.301   4.874  16.772  0.00  0.00    +0.000 OA
ENDBRANCH   8  11
BRANCH   8  12
ATOM     12  C   UNL     1       7.662   7.035  17.822  0.00  0.00    +0.000 C 
ATOM     13  O   UNL     1       7.837   8.032  17.141  0.00  0.00    +0.000 OA
BRANCH  12  14
ATOM     14  O   UNL     1       8.314   6.803  18.986  0.00  0.00    +0.000 OA
ATOM     15  H   UNL     1       7.704   6.945  19.741  0.00  0.00    +0.000 HD
ENDBRANCH  12  14
ENDBRANCH   8  12
ENDBRANCH   1   9
BRANCH   4  16
ATOM     16  O   UNL     1       1.040   2.585  18.194  0.00  0.00    +0.000 OA
ATOM     17  H   UNL     1       1.265   1.833  18.766  0.00  0.00    +0.000 HD
ENDBRANCH   4  16
TORSDOF 5
ENDMDL
