MODEL 1
REMARK VINA RESULT:      -9.6      0.000      0.000
REMARK  Name = 
REMARK  7 active torsions:
REMARK  status: ('A' for Active; 'I' for Inactive)
REMARK    1  A    between atoms: C_1  and  N_2
REMARK    2  A    between atoms: C_4  and  C_5
REMARK    3  A    between atoms: C_8  and  N_9
REMARK    4  A    between atoms: C_10  and  C_11
REMARK    5  A    between atoms: C_14  and  C_15
REMARK    6  A    between atoms: N_17  and  C_18
REMARK    7  A    between atoms: C_18  and  C_19
REMARK                            x       y       z     vdW  Elec       q    Type
REMARK                         _______ _______ _______ _____ _____    ______ ____
ROOT
ATOM      1  C   UNL     1       2.523   7.462  18.915  0.00  0.00    +0.000 A 
ATOM      2  C   UNL     1       2.312   8.380  17.866  0.00  0.00    +0.000 A 
ATOM      3  C   UNL     1       1.539   9.537  18.040  0.00  0.00    +0.000 A 
ATOM      4  C   UNL     1       0.922   9.803  19.267  0.00  0.00    +0.000 A 
ATOM      5  C   UNL     1       1.123   8.905  20.310  0.00  0.00    +0.000 A 
ATOM      6  F   UNL     1       0.542   9.089  21.506  0.00  0.00    +0.000 F 
ATOM      7  C   UNL     1       1.926   7.773  20.148  0.00  0.00    +0.000 A 
ENDROOT
BRANCH   1  12
ATOM      8  C   UNL     1       4.936   4.952  17.364  0.00  0.00    +0.000 A 
ATOM      9  C   UNL     1       4.866   3.959  18.326  0.00  0.00    +0.000 A 
ATOM     10  N   UNL     1       4.098   4.028  19.436  0.00  0.00    +0.000 NA
ATOM     11  C   UNL     1       3.347   5.136  19.613  0.00  0.00    +0.000 A 
ATOM     12  C   UNL     1       3.343   6.232  18.725  0.00  0.00    +0.000 A 
ATOM     13  C   UNL     1       4.170   6.101  17.589  0.00  0.00    +0.000 A 
BRANCH   8  17
ATOM     14  C   UNL     1       6.431   3.675  12.809  0.00  0.00    +0.000 C 
ATOM     15  N   UNL     1       6.376   4.215  14.145  0.00  0.00    +0.000 N 
ATOM     16  C   UNL     1       5.312   4.189  14.998  0.00  0.00    +0.000 A 
ATOM     17  C   UNL     1       5.738   4.786  16.168  0.00  0.00    +0.000 A 
ATOM     18  C   UNL     1       7.080   5.146  15.896  0.00  0.00    +0.000 A 
ATOM     19  N   UNL     1       7.468   4.799  14.667  0.00  0.00    +0.000 NA
ENDBRANCH   8  17
BRANCH  11  20
ATOM     20  N   UNL     1       2.578   5.095  20.776  0.00  0.00    +0.000 N 
ATOM     21  H   UNL     1       1.873   4.376  20.633  0.00  0.00    +0.000 HD
ATOM     22  H   UNL     1       2.164   5.999  20.978  0.00  0.00    +0.000 HD
ENDBRANCH  11  20
ENDBRANCH   1  12
BRANCH   4  23
ATOM     23  C   UNL     1       0.076  11.024  19.397  0.00  0.00    +0.000 C 
ATOM     24  O   UNL     1       0.543  12.119  19.103  0.00  0.00    +0.000 OA
ATOM     25  N   UNL     1      -1.215  10.853  19.837  0.00  0.00    +0.000 N 
ATOM     26  H   UNL     1      -1.540   9.926  20.085  0.00  0.00    +0.000 HD
BRANCH  25  27
ATOM     27  C   UNL     1      -2.143  11.946  19.984  0.00  0.00    +0.000 C 
BRANCH  27  28
ATOM     28  C   UNL     1      -3.228  11.875  18.941  0.00  0.00    +0.000 A 
ATOM     29  C   UNL     1      -4.514  12.351  19.229  0.00  0.00    +0.000 A 
ATOM     30  C   UNL     1      -5.524  12.298  18.266  0.00  0.00    +0.000 A 
ATOM     31  C   UNL     1      -5.262  11.756  17.008  0.00  0.00    +0.000 A 
ATOM     32  C   UNL     1      -3.992  11.261  16.723  0.00  0.00    +0.000 A 
ATOM     33 BR   UNL     1      -3.638  10.521  15.019  0.00  0.00    +0.000 Br
ATOM     34  C   UNL     1      -2.978  11.311  17.680  0.00  0.00    +0.000 A 
ENDBRANCH  27  28
ENDBRANCH  25  27
ENDBRANCH   4  23
TORSDOF 6
ENDMDL
MODEL 2
REMARK VINA RESULT:      -9.4      1.278      1.535
REMARK  Name = 
REMARK  7 active torsions:
REMARK  status: ('A' for Active; 'I' for Inactive)
REMARK    1  A    between atoms: C_1  and  N_2
REMARK    2  A    between atoms: C_4  and  C_5
REMARK    3  A    between atoms: C_8  and  N_9
REMARK    4  A    between atoms: C_10  and  C_11
REMARK    5  A    between atoms: C_14  and  C_15
REMARK    6  A    between atoms: N_17  and  C_18
REMARK    7  A    between atoms: C_18  and  C_19
REMARK                            x       y       z     vdW  Elec       q    Type
REMARK                         _______ _______ _______ _____ _____    ______ ____
ROOT
ATOM      1  C   UNL     1       2.379   7.248  18.978  0.00  0.00    +0.000 A 
ATOM      2  C   UNL     1       2.075   8.228  18.011  0.00  0.00    +0.000 A 
ATOM      3  C   UNL     1       1.372   9.397  18.338  0.00  0.00    +0.000 A 
ATOM      4  C   UNL     1       0.921   9.614  19.644  0.00  0.00    +0.000 A 
ATOM      5  C   UNL     1       1.215   8.654  20.607  0.00  0.00    +0.000 A 
ATOM      6  F   UNL     1       0.793   8.789  21.874  0.00  0.00    +0.000 F 
ATOM      7  C   UNL     1       1.949   7.509  20.289  0.00  0.00    +0.000 A 
ENDROOT
BRANCH   1  12
ATOM      8  C   UNL     1       4.759   4.866  17.192  0.00  0.00    +0.000 A 
ATOM      9  C   UNL     1       4.510   3.718  17.926  0.00  0.00    +0.000 A 
ATOM     10  N   UNL     1       3.632   3.646  18.951  0.00  0.00    +0.000 NA
ATOM     11  C   UNL     1       2.949   4.765  19.273  0.00  0.00    +0.000 A 
ATOM     12  C   UNL     1       3.122   6.005  18.624  0.00  0.00    +0.000 A 
ATOM     13  C   UNL     1       4.058   6.017  17.568  0.00  0.00    +0.000 A 
BRANCH   8  17
ATOM     14  C   UNL     1       6.794   3.979  12.755  0.00  0.00    +0.000 C 
ATOM     15  N   UNL     1       6.553   4.455  14.094  0.00  0.00    +0.000 N 
ATOM     16  C   UNL     1       5.435   4.251  14.849  0.00  0.00    +0.000 A 
ATOM     17  C   UNL     1       5.673   4.856  16.067  0.00  0.00    +0.000 A 
ATOM     18  C   UNL     1       6.970   5.407  15.925  0.00  0.00    +0.000 A 
ATOM     19  N   UNL     1       7.505   5.163  14.726  0.00  0.00    +0.000 NA
ENDBRANCH   8  17
BRANCH  11  20
ATOM     20  N   UNL     1       2.055   4.576  20.327  0.00  0.00    +0.000 N 
ATOM     21  H   UNL     1       2.503   4.952  21.159  0.00  0.00    +0.000 HD
ATOM     22  H   UNL     1       1.811   3.598  20.435  0.00  0.00    +0.000 HD
ENDBRANCH  11  20
ENDBRANCH   1  12
BRANCH   4  23
ATOM     23  C   UNL     1       0.143  10.851  19.941  0.00  0.00    +0.000 C 
ATOM     24  O   UNL     1       0.603  11.685  20.713  0.00  0.00    +0.000 OA
ATOM     25  N   UNL     1      -1.069  11.000  19.310  0.00  0.00    +0.000 N 
ATOM     26  H   UNL     1      -1.408  10.267  18.697  0.00  0.00    +0.000 HD
BRANCH  25  27
ATOM     27  C   UNL     1      -1.908  12.159  19.490  0.00  0.00    +0.000 C 
BRANCH  27  28
ATOM     28  C   UNL     1      -3.260  11.946  18.861  0.00  0.00    +0.000 A 
ATOM     29  C   UNL     1      -3.358  11.424  17.563  0.00  0.00    +0.000 A 
ATOM     30  C   UNL     1      -4.607  11.214  16.974  0.00  0.00    +0.000 A 
ATOM     31  C   UNL     1      -5.771  11.535  17.671  0.00  0.00    +0.000 A 
ATOM     32  C   UNL     1      -5.680  12.074  18.952  0.00  0.00    +0.000 A 
ATOM     33 BR   UNL     1      -7.259  12.514  19.896  0.00  0.00    +0.000 Br
ATOM     34  C   UNL     1      -4.436  12.286  19.548  0.00  0.00    +0.000 A 
ENDBRANCH  27  28
ENDBRANCH  25  27
ENDBRANCH   4  23
TORSDOF 6
ENDMDL
MODEL 3
REMARK VINA RESULT:      -9.3      2.870      3.512
REMARK  Name = 
REMARK  7 active torsions:
REMARK  status: ('A' for Active; 'I' for Inactive)
REMARK    1  A    between atoms: C_1  and  N_2
REMARK    2  A    between atoms: C_4  and  C_5
REMARK    3  A    between atoms: C_8  and  N_9
REMARK    4  A    between atoms: C_10  and  C_11
REMARK    5  A    between atoms: C_14  and  C_15
REMARK    6  A    between atoms: N_17  and  C_18
REMARK    7  A    between atoms: C_18  and  C_19
REMARK                            x       y       z     vdW  Elec       q    Type
REMARK                         _______ _______ _______ _____ _____    ______ ____
ROOT
ATOM      1  C   UNL     1       2.264   7.627  18.989  0.00  0.00    +0.000 A 
ATOM      2  C   UNL     1       1.926   8.437  17.886  0.00  0.00    +0.000 A 
ATOM      3  C   UNL     1       1.110   9.570  18.022  0.00  0.00    +0.000 A 
ATOM      4  C   UNL     1       0.576   9.916  19.267  0.00  0.00    +0.000 A 
ATOM      5  C   UNL     1       0.902   9.125  20.363  0.00  0.00    +0.000 A 
ATOM      6  F   UNL     1       0.405   9.388  21.583  0.00  0.00    +0.000 F 
ATOM      7  C   UNL     1       1.747   8.020  20.235  0.00  0.00    +0.000 A 
ENDROOT
BRANCH   1  12
ATOM      8  C   UNL     1       4.803   5.180  17.542  0.00  0.00    +0.000 A 
ATOM      9  C   UNL     1       4.737   4.197  18.515  0.00  0.00    +0.000 A 
ATOM     10  N   UNL     1       3.935   4.255  19.602  0.00  0.00    +0.000 NA
ATOM     11  C   UNL     1       3.143   5.339  19.742  0.00  0.00    +0.000 A 
ATOM     12  C   UNL     1       3.129   6.423  18.839  0.00  0.00    +0.000 A 
ATOM     13  C   UNL     1       3.992   6.306  17.730  0.00  0.00    +0.000 A 
BRANCH   8  17
ATOM     14  C   UNL     1       6.502   3.830  13.081  0.00  0.00    +0.000 C 
ATOM     15  N   UNL     1       6.374   4.420  14.390  0.00  0.00    +0.000 N 
ATOM     16  C   UNL     1       5.294   4.348  15.221  0.00  0.00    +0.000 A 
ATOM     17  C   UNL     1       5.644   5.026  16.371  0.00  0.00    +0.000 A 
ATOM     18  C   UNL     1       6.961   5.476  16.114  0.00  0.00    +0.000 A 
ATOM     19  N   UNL     1       7.405   5.108  14.910  0.00  0.00    +0.000 NA
ENDBRANCH   8  17
BRANCH  11  20
ATOM     20  N   UNL     1       2.342   5.287  20.882  0.00  0.00    +0.000 N 
ATOM     21  H   UNL     1       1.425   4.970  20.579  0.00  0.00    +0.000 HD
ATOM     22  H   UNL     1       2.299   6.188  21.346  0.00  0.00    +0.000 HD
ENDBRANCH  11  20
ENDBRANCH   1  12
BRANCH   4  23
ATOM     23  C   UNL     1      -0.319  11.105  19.360  0.00  0.00    +0.000 C 
ATOM     24  O   UNL     1      -1.512  10.988  19.100  0.00  0.00    +0.000 OA
ATOM     25  N   UNL     1       0.249  12.293  19.753  0.00  0.00    +0.000 N 
ATOM     26  H   UNL     1       1.245  12.336  19.934  0.00  0.00    +0.000 HD
BRANCH  25  27
ATOM     27  C   UNL     1      -0.508  13.511  19.905  0.00  0.00    +0.000 C 
BRANCH  27  28
ATOM     28  C   UNL     1       0.231  14.681  19.308  0.00  0.00    +0.000 A 
ATOM     29  C   UNL     1      -0.425  15.905  19.119  0.00  0.00    +0.000 A 
ATOM     30  C   UNL     1       0.252  16.999  18.576  0.00  0.00    +0.000 A 
ATOM     31  C   UNL     1       1.590  16.876  18.202  0.00  0.00    +0.000 A 
ATOM     32  C   UNL     1       2.242  15.656  18.367  0.00  0.00    +0.000 A 
ATOM     33 BR   UNL     1       4.055  15.488  17.857  0.00  0.00    +0.000 Br
ATOM     34  C   UNL     1       1.571  14.559  18.911  0.00  0.00    +0.000 A 
ENDBRANCH  27  28
ENDBRANCH  25  27
ENDBRANCH   4  23
TORSDOF 6
ENDMDL
MODEL 4
REMARK VINA RESULT:      -9.3      1.509      1.941
REMARK  Name = 
REMARK  7 active torsions:
REMARK  status: ('A' for Active; 'I' for Inactive)
REMARK    1  A    between atoms: C_1  and  N_2
REMARK    2  A    between atoms: C_4  and  C_5
REMARK    3  A    between atoms: C_8  and  N_9
REMARK    4  A    between atoms: C_10  and  C_11
REMARK    5  A    between atoms: C_14  and  C_15
REMARK    6  A    between atoms: N_17  and  C_18
REMARK    7  A    between atoms: C_18  and  C_19
REMARK                            x       y       z     vdW  Elec       q    Type
REMARK                         _______ _______ _______ _____ _____    ______ ____
ROOT
ATOM      1  C   UNL     1       2.327   6.889  18.855  0.00  0.00    +0.000 A 
ATOM      2  C   UNL     1       2.003   6.962  20.225  0.00  0.00    +0.000 A 
ATOM      3  C   UNL     1       1.440   8.115  20.791  0.00  0.00    +0.000 A 
ATOM      4  C   UNL     1       1.210   9.252  20.009  0.00  0.00    +0.000 A 
ATOM      5  C   UNL     1       1.526   9.192  18.656  0.00  0.00    +0.000 A 
ATOM      6  F   UNL     1       1.350  10.254  17.853  0.00  0.00    +0.000 F 
ATOM      7  C   UNL     1       2.048   8.029  18.084  0.00  0.00    +0.000 A 
ENDROOT
BRANCH   1  12
ATOM      8  C   UNL     1       4.566   4.644  16.740  0.00  0.00    +0.000 A 
ATOM      9  C   UNL     1       4.058   3.412  17.116  0.00  0.00    +0.000 A 
ATOM     10  N   UNL     1       3.045   3.244  17.995  0.00  0.00    +0.000 NA
ATOM     11  C   UNL     1       2.491   4.349  18.534  0.00  0.00    +0.000 A 
ATOM     12  C   UNL     1       2.927   5.662  18.258  0.00  0.00    +0.000 A 
ATOM     13  C   UNL     1       3.992   5.771  17.338  0.00  0.00    +0.000 A 
BRANCH   8  17
ATOM     14  C   UNL     1       7.143   4.271  12.516  0.00  0.00    +0.000 C 
ATOM     15  N   UNL     1       6.737   4.581  13.864  0.00  0.00    +0.000 N 
ATOM     16  C   UNL     1       5.530   4.312  14.441  0.00  0.00    +0.000 A 
ATOM     17  C   UNL     1       5.617   4.753  15.746  0.00  0.00    +0.000 A 
ATOM     18  C   UNL     1       6.925   5.285  15.839  0.00  0.00    +0.000 A 
ATOM     19  N   UNL     1       7.606   5.180  14.696  0.00  0.00    +0.000 NA
ENDBRANCH   8  17
BRANCH  11  20
ATOM     20  N   UNL     1       1.443   4.065  19.409  0.00  0.00    +0.000 N 
ATOM     21  H   UNL     1       1.615   3.132  19.775  0.00  0.00    +0.000 HD
ATOM     22  H   UNL     1       0.544   4.131  18.945  0.00  0.00    +0.000 HD
ENDBRANCH  11  20
ENDBRANCH   1  12
BRANCH   4  23
ATOM     23  C   UNL     1       0.648  10.470  20.659  0.00  0.00    +0.000 C 
ATOM     24  O   UNL     1       0.973  10.749  21.809  0.00  0.00    +0.000 OA
ATOM     25  N   UNL     1      -0.214  11.241  19.916  0.00  0.00    +0.000 N 
ATOM     26  H   UNL     1      -0.463  10.951  18.978  0.00  0.00    +0.000 HD
BRANCH  25  27
ATOM     27  C   UNL     1      -0.809  12.456  20.417  0.00  0.00    +0.000 C 
BRANCH  27  28
ATOM     28  C   UNL     1      -2.306  12.428  20.253  0.00  0.00    +0.000 A 
ATOM     29  C   UNL     1      -3.138  12.810  21.315  0.00  0.00    +0.000 A 
ATOM     30  C   UNL     1      -4.527  12.797  21.171  0.00  0.00    +0.000 A 
ATOM     31  C   UNL     1      -5.100  12.388  19.968  0.00  0.00    +0.000 A 
ATOM     32  C   UNL     1      -4.280  11.986  18.916  0.00  0.00    +0.000 A 
ATOM     33 BR   UNL     1      -5.058  11.427  17.285  0.00  0.00    +0.000 Br
ATOM     34  C   UNL     1      -2.891  11.998  19.052  0.00  0.00    +0.000 A 
ENDBRANCH  27  28
ENDBRANCH  25  27
ENDBRANCH   4  23
TORSDOF 6
ENDMDL
MODEL 5
REMARK VINA RESULT:      -9.2      1.807      2.222
REMARK  Name = 
REMARK  7 active torsions:
REMARK  status: ('A' for Active; 'I' for Inactive)
REMARK    1  A    between atoms: C_1  and  N_2
REMARK    2  A    between atoms: C_4  and  C_5
REMARK    3  A    between atoms: C_8  and  N_9
REMARK    4  A    between atoms: C_10  and  C_11
REMARK    5  A    between atoms: C_14  and  C_15
REMARK    6  A    between atoms: N_17  and  C_18
REMARK    7  A    between atoms: C_18  and  C_19
REMARK                            x       y       z     vdW  Elec       q    Type
REMARK                         _______ _______ _______ _____ _____    ______ ____
ROOT
ATOM      1  C   UNL     1       2.378   6.930  18.838  0.00  0.00    +0.000 A 
ATOM      2  C   UNL     1       1.980   7.034  20.187  0.00  0.00    +0.000 A 
ATOM      3  C   UNL     1       1.377   8.195  20.692  0.00  0.00    +0.000 A 
ATOM      4  C   UNL     1       1.177   9.309  19.870  0.00  0.00    +0.000 A 
ATOM      5  C   UNL     1       1.564   9.218  18.537  0.00  0.00    +0.000 A 
ATOM      6  F   UNL     1       1.421  10.257  17.699  0.00  0.00    +0.000 F 
ATOM      7  C   UNL     1       2.128   8.047  18.024  0.00  0.00    +0.000 A 
ENDROOT
BRANCH   1  12
ATOM      8  C   UNL     1       4.655   4.655  16.798  0.00  0.00    +0.000 A 
ATOM      9  C   UNL     1       4.230   3.429  17.282  0.00  0.00    +0.000 A 
ATOM     10  N   UNL     1       3.262   3.274  18.213  0.00  0.00    +0.000 NA
ATOM     11  C   UNL     1       2.669   4.386  18.695  0.00  0.00    +0.000 A 
ATOM     12  C   UNL     1       3.022   5.695  18.307  0.00  0.00    +0.000 A 
ATOM     13  C   UNL     1       4.042   5.791  17.337  0.00  0.00    +0.000 A 
BRANCH   8  17
ATOM     14  C   UNL     1       7.061   4.152  12.488  0.00  0.00    +0.000 C 
ATOM     15  N   UNL     1       6.704   4.514  13.837  0.00  0.00    +0.000 N 
ATOM     16  C   UNL     1       5.531   4.240  14.477  0.00  0.00    +0.000 A 
ATOM     17  C   UNL     1       5.659   4.745  15.756  0.00  0.00    +0.000 A 
ATOM     18  C   UNL     1       6.955   5.315  15.767  0.00  0.00    +0.000 A 
ATOM     19  N   UNL     1       7.590   5.175  14.601  0.00  0.00    +0.000 NA
ENDBRANCH   8  17
BRANCH  11  20
ATOM     20  N   UNL     1       1.672   4.112  19.631  0.00  0.00    +0.000 N 
ATOM     21  H   UNL     1       0.808   4.496  19.256  0.00  0.00    +0.000 HD
ATOM     22  H   UNL     1       1.899   4.502  20.539  0.00  0.00    +0.000 HD
ENDBRANCH  11  20
ENDBRANCH   1  12
BRANCH   4  23
ATOM     23  C   UNL     1       0.568  10.537  20.457  0.00  0.00    +0.000 C 
ATOM     24  O   UNL     1       1.155  11.136  21.352  0.00  0.00    +0.000 OA
ATOM     25  N   UNL     1      -0.639  10.949  19.945  0.00  0.00    +0.000 N 
ATOM     26  H   UNL     1      -1.088  10.403  19.220  0.00  0.00    +0.000 HD
BRANCH  25  27
ATOM     27  C   UNL     1      -1.323  12.132  20.407  0.00  0.00    +0.000 C 
BRANCH  27  28
ATOM     28  C   UNL     1      -2.721  12.196  19.851  0.00  0.00    +0.000 A 
ATOM     29  C   UNL     1      -3.006  11.636  18.597  0.00  0.00    +0.000 A 
ATOM     30  C   UNL     1      -4.301  11.681  18.076  0.00  0.00    +0.000 A 
ATOM     31  C   UNL     1      -5.322  12.299  18.797  0.00  0.00    +0.000 A 
ATOM     32  C   UNL     1      -5.042  12.876  20.033  0.00  0.00    +0.000 A 
ATOM     33 BR   UNL     1      -6.426  13.717  21.008  0.00  0.00    +0.000 Br
ATOM     34  C   UNL     1      -3.750  12.834  20.561  0.00  0.00    +0.000 A 
ENDBRANCH  27  28
ENDBRANCH  25  27
ENDBRANCH   4  23
TORSDOF 6
ENDMDL
MODEL 6
REMARK VINA RESULT:      -9.2      2.099      2.775
REMARK  Name = 
REMARK  7 active torsions:
REMARK  status: ('A' for Active; 'I' for Inactive)
REMARK    1  A    between atoms: C_1  and  N_2
REMARK    2  A    between atoms: C_4  and  C_5
REMARK    3  A    between atoms: C_8  and  N_9
REMARK    4  A    between atoms: C_10  and  C_11
REMARK    5  A    between atoms: C_14  and  C_15
REMARK    6  A    between atoms: N_17  and  C_18
REMARK    7  A    between atoms: C_18  and  C_19
REMARK                            x       y       z     vdW  Elec       q    Type
REMARK                         _______ _______ _______ _____ _____    ______ ____
ROOT
ATOM      1  C   UNL     1       2.192   7.767  18.970  0.00  0.00    +0.000 A 
ATOM      2  C   UNL     1       1.945   8.649  17.899  0.00  0.00    +0.000 A 
ATOM      3  C   UNL     1       1.227   9.841  18.073  0.00  0.00    +0.000 A 
ATOM      4  C   UNL     1       0.702  10.180  19.325  0.00  0.00    +0.000 A 
ATOM      5  C   UNL     1       0.940   9.317  20.390  0.00  0.00    +0.000 A 
ATOM      6  F   UNL     1       0.446   9.571  21.612  0.00  0.00    +0.000 F 
ATOM      7  C   UNL     1       1.689   8.150  20.225  0.00  0.00    +0.000 A 
ENDROOT
BRANCH   1  12
ATOM      8  C   UNL     1       4.613   5.209  17.513  0.00  0.00    +0.000 A 
ATOM      9  C   UNL     1       4.371   4.159  18.382  0.00  0.00    +0.000 A 
ATOM     10  N   UNL     1       3.485   4.205  19.402  0.00  0.00    +0.000 NA
ATOM     11  C   UNL     1       2.787   5.347  19.577  0.00  0.00    +0.000 A 
ATOM     12  C   UNL     1       2.952   6.499  18.780  0.00  0.00    +0.000 A 
ATOM     13  C   UNL     1       3.896   6.390  17.737  0.00  0.00    +0.000 A 
BRANCH   8  17
ATOM     14  C   UNL     1       6.630   3.929  13.164  0.00  0.00    +0.000 C 
ATOM     15  N   UNL     1       6.408   4.497  14.471  0.00  0.00    +0.000 N 
ATOM     16  C   UNL     1       5.270   4.416  15.219  0.00  0.00    +0.000 A 
ATOM     17  C   UNL     1       5.538   5.071  16.404  0.00  0.00    +0.000 A 
ATOM     18  C   UNL     1       6.872   5.519  16.251  0.00  0.00    +0.000 A 
ATOM     19  N   UNL     1       7.401   5.170  15.077  0.00  0.00    +0.000 NA
ENDBRANCH   8  17
BRANCH  11  20
ATOM     20  N   UNL     1       1.887   5.280  20.640  0.00  0.00    +0.000 N 
ATOM     21  H   UNL     1       2.361   5.674  21.448  0.00  0.00    +0.000 HD
ATOM     22  H   UNL     1       1.579   4.328  20.806  0.00  0.00    +0.000 HD
ENDBRANCH  11  20
ENDBRANCH   1  12
BRANCH   4  23
ATOM     23  C   UNL     1      -0.089  11.436  19.457  0.00  0.00    +0.000 C 
ATOM     24  O   UNL     1       0.486  12.520  19.436  0.00  0.00    +0.000 OA
ATOM     25  N   UNL     1      -1.452  11.313  19.587  0.00  0.00    +0.000 N 
ATOM     26  H   UNL     1      -1.870  10.391  19.619  0.00  0.00    +0.000 HD
BRANCH  25  27
ATOM     27  C   UNL     1      -2.334  12.449  19.699  0.00  0.00    +0.000 C 
BRANCH  27  28
ATOM     28  C   UNL     1      -2.937  12.525  21.077  0.00  0.00    +0.000 A 
ATOM     29  C   UNL     1      -2.151  12.257  22.207  0.00  0.00    +0.000 A 
ATOM     30  C   UNL     1      -2.698  12.334  23.489  0.00  0.00    +0.000 A 
ATOM     31  C   UNL     1      -4.041  12.666  23.656  0.00  0.00    +0.000 A 
ATOM     32  C   UNL     1      -4.834  12.913  22.537  0.00  0.00    +0.000 A 
ATOM     33 BR   UNL     1      -6.658  13.359  22.763  0.00  0.00    +0.000 Br
ATOM     34  C   UNL     1      -4.294  12.838  21.253  0.00  0.00    +0.000 A 
ENDBRANCH  27  28
ENDBRANCH  25  27
ENDBRANCH   4  23
TORSDOF 6
ENDMDL
MODEL 7
REMARK VINA RESULT:      -9.2      1.324      1.634
REMARK  Name = 
REMARK  7 active torsions:
REMARK  status: ('A' for Active; 'I' for Inactive)
REMARK    1  A    between atoms: C_1  and  N_2
REMARK    2  A    between atoms: C_4  and  C_5
REMARK    3  A    between atoms: C_8  and  N_9
REMARK    4  A    between atoms: C_10  and  C_11
REMARK    5  A    between atoms: C_14  and  C_15
REMARK    6  A    between atoms: N_17  and  C_18
REMARK    7  A    between atoms: C_18  and  C_19
REMARK                            x       y       z     vdW  Elec       q    Type
REMARK                         _______ _______ _______ _____ _____    ______ ____
ROOT
ATOM      1  C   UNL     1       2.280   7.231  18.899  0.00  0.00    +0.000 A 
ATOM      2  C   UNL     1       2.051   8.344  18.064  0.00  0.00    +0.000 A 
ATOM      3  C   UNL     1       1.512   9.541  18.559  0.00  0.00    +0.000 A 
ATOM      4  C   UNL     1       1.154   9.657  19.907  0.00  0.00    +0.000 A 
ATOM      5  C   UNL     1       1.376   8.565  20.740  0.00  0.00    +0.000 A 
ATOM      6  F   UNL     1       1.036   8.601  22.038  0.00  0.00    +0.000 F 
ATOM      7  C   UNL     1       1.950   7.387  20.255  0.00  0.00    +0.000 A 
ENDROOT
BRANCH   1  12
ATOM      8  C   UNL     1       4.459   4.823  16.904  0.00  0.00    +0.000 A 
ATOM      9  C   UNL     1       3.922   3.626  17.345  0.00  0.00    +0.000 A 
ATOM     10  N   UNL     1       2.908   3.529  18.233  0.00  0.00    +0.000 NA
ATOM     11  C   UNL     1       2.382   4.675  18.714  0.00  0.00    +0.000 A 
ATOM     12  C   UNL     1       2.849   5.960  18.367  0.00  0.00    +0.000 A 
ATOM     13  C   UNL     1       3.913   5.994  17.442  0.00  0.00    +0.000 A 
BRANCH   8  17
ATOM     14  C   UNL     1       7.026   4.137  12.713  0.00  0.00    +0.000 C 
ATOM     15  N   UNL     1       6.625   4.543  14.038  0.00  0.00    +0.000 N 
ATOM     16  C   UNL     1       5.417   4.325  14.632  0.00  0.00    +0.000 A 
ATOM     17  C   UNL     1       5.509   4.854  15.904  0.00  0.00    +0.000 A 
ATOM     18  C   UNL     1       6.823   5.378  15.959  0.00  0.00    +0.000 A 
ATOM     19  N   UNL     1       7.501   5.189  14.826  0.00  0.00    +0.000 NA
ENDBRANCH   8  17
BRANCH  11  20
ATOM     20  N   UNL     1       1.329   4.463  19.604  0.00  0.00    +0.000 N 
ATOM     21  H   UNL     1       0.725   3.764  19.178  0.00  0.00    +0.000 HD
ATOM     22  H   UNL     1       0.833   5.324  19.804  0.00  0.00    +0.000 HD
ENDBRANCH  11  20
ENDBRANCH   1  12
BRANCH   4  23
ATOM     23  C   UNL     1       0.549  10.933  20.383  0.00  0.00    +0.000 C 
ATOM     24  O   UNL     1       0.859  11.378  21.483  0.00  0.00    +0.000 OA
ATOM     25  N   UNL     1      -0.336  11.563  19.541  0.00  0.00    +0.000 N 
ATOM     26  H   UNL     1      -0.571  11.138  18.652  0.00  0.00    +0.000 HD
BRANCH  25  27
ATOM     27  C   UNL     1      -0.974  12.814  19.869  0.00  0.00    +0.000 C 
BRANCH  27  28
ATOM     28  C   UNL     1      -2.454  12.624  20.077  0.00  0.00    +0.000 A 
ATOM     29  C   UNL     1      -3.035  12.920  21.319  0.00  0.00    +0.000 A 
ATOM     30  C   UNL     1      -4.407  12.757  21.519  0.00  0.00    +0.000 A 
ATOM     31  C   UNL     1      -5.212  12.282  20.485  0.00  0.00    +0.000 A 
ATOM     32  C   UNL     1      -4.638  11.966  19.255  0.00  0.00    +0.000 A 
ATOM     33 BR   UNL     1      -5.730  11.318  17.853  0.00  0.00    +0.000 Br
ATOM     34  C   UNL     1      -3.268  12.127  19.047  0.00  0.00    +0.000 A 
ENDBRANCH  27  28
ENDBRANCH  25  27
ENDBRANCH   4  23
TORSDOF 6
ENDMDL
MODEL 8
REMARK VINA RESULT:      -9.2      1.893      2.699
REMARK  Name = 
REMARK  7 active torsions:
REMARK  status: ('A' for Active; 'I' for Inactive)
REMARK    1  A    between atoms: C_1  and  N_2
REMARK    2  A    between atoms: C_4  and  C_5
REMARK    3  A    between atoms: C_8  and  N_9
REMARK    4  A    between atoms: C_10  and  C_11
REMARK    5  A    between atoms: C_14  and  C_15
REMARK    6  A    between atoms: N_17  and  C_18
REMARK    7  A    between atoms: C_18  and  C_19
REMARK                            x       y       z     vdW  Elec       q    Type
REMARK                         _______ _______ _______ _____ _____    ______ ____
ROOT
ATOM      1  C   UNL     1       4.076   6.602  17.984  0.00  0.00    +0.000 A 
ATOM      2  C   UNL     1       3.677   7.833  17.426  0.00  0.00    +0.000 A 
ATOM      3  C   UNL     1       2.641   8.597  17.984  0.00  0.00    +0.000 A 
ATOM      4  C   UNL     1       1.944   8.138  19.107  0.00  0.00    +0.000 A 
ATOM      5  C   UNL     1       2.329   6.924  19.666  0.00  0.00    +0.000 A 
ATOM      6  F   UNL     1       1.688   6.416  20.731  0.00  0.00    +0.000 F 
ATOM      7  C   UNL     1       3.387   6.184  19.134  0.00  0.00    +0.000 A 
ENDROOT
BRANCH   1  12
ATOM      8  C   UNL     1       6.115   4.630  15.438  0.00  0.00    +0.000 A 
ATOM      9  C   UNL     1       7.185   4.276  16.242  0.00  0.00    +0.000 A 
ATOM     10  N   UNL     1       7.303   4.617  17.545  0.00  0.00    +0.000 NA
ATOM     11  C   UNL     1       6.309   5.344  18.096  0.00  0.00    +0.000 A 
ATOM     12  C   UNL     1       5.175   5.792  17.386  0.00  0.00    +0.000 A 
ATOM     13  C   UNL     1       5.114   5.409  16.029  0.00  0.00    +0.000 A 
BRANCH   8  17
ATOM     14  C   UNL     1       4.372   2.883  11.133  0.00  0.00    +0.000 C 
ATOM     15  N   UNL     1       5.232   3.409  12.165  0.00  0.00    +0.000 N 
ATOM     16  C   UNL     1       4.869   3.775  13.428  0.00  0.00    +0.000 A 
ATOM     17  C   UNL     1       6.026   4.180  14.062  0.00  0.00    +0.000 A 
ATOM     18  C   UNL     1       7.027   4.025  13.073  0.00  0.00    +0.000 A 
ATOM     19  N   UNL     1       6.545   3.557  11.920  0.00  0.00    +0.000 NA
ENDBRANCH   8  17
BRANCH  11  20
ATOM     20  N   UNL     1       6.519   5.622  19.446  0.00  0.00    +0.000 N 
ATOM     21  H   UNL     1       5.958   4.956  19.971  0.00  0.00    +0.000 HD
ATOM     22  H   UNL     1       6.278   6.582  19.670  0.00  0.00    +0.000 HD
ENDBRANCH  11  20
ENDBRANCH   1  12
BRANCH   4  23
ATOM     23  C   UNL     1       0.824   8.962  19.643  0.00  0.00    +0.000 C 
ATOM     24  O   UNL     1       0.612   8.985  20.851  0.00  0.00    +0.000 OA
ATOM     25  N   UNL     1       0.078   9.678  18.738  0.00  0.00    +0.000 N 
ATOM     26  H   UNL     1       0.285   9.605  17.749  0.00  0.00    +0.000 HD
BRANCH  25  27
ATOM     27  C   UNL     1      -1.018  10.532  19.127  0.00  0.00    +0.000 C 
BRANCH  27  28
ATOM     28  C   UNL     1      -2.062  10.593  18.042  0.00  0.00    +0.000 A 
ATOM     29  C   UNL     1      -1.878   9.884  16.847  0.00  0.00    +0.000 A 
ATOM     30  C   UNL     1      -2.844   9.926  15.839  0.00  0.00    +0.000 A 
ATOM     31  C   UNL     1      -3.998  10.689  16.010  0.00  0.00    +0.000 A 
ATOM     32  C   UNL     1      -4.178  11.413  17.187  0.00  0.00    +0.000 A 
ATOM     33 BR   UNL     1      -5.741  12.451  17.417  0.00  0.00    +0.000 Br
ATOM     34  C   UNL     1      -3.217  11.375  18.198  0.00  0.00    +0.000 A 
ENDBRANCH  27  28
ENDBRANCH  25  27
ENDBRANCH   4  23
TORSDOF 6
ENDMDL
MODEL 9
REMARK VINA RESULT:      -9.2      2.849      3.604
REMARK  Name = 
REMARK  7 active torsions:
REMARK  status: ('A' for Active; 'I' for Inactive)
REMARK    1  A    between atoms: C_1  and  N_2
REMARK    2  A    between atoms: C_4  and  C_5
REMARK    3  A    between atoms: C_8  and  N_9
REMARK    4  A    between atoms: C_10  and  C_11
REMARK    5  A    between atoms: C_14  and  C_15
REMARK    6  A    between atoms: N_17  and  C_18
REMARK    7  A    between atoms: C_18  and  C_19
REMARK                            x       y       z     vdW  Elec       q    Type
REMARK                         _______ _______ _______ _____ _____    ______ ____
ROOT
ATOM      1  C   UNL     1       2.247   7.664  19.005  0.00  0.00    +0.000 A 
ATOM      2  C   UNL     1       1.891   8.461  17.898  0.00  0.00    +0.000 A 
ATOM      3  C   UNL     1       1.071   9.592  18.035  0.00  0.00    +0.000 A 
ATOM      4  C   UNL     1       0.552   9.948  19.284  0.00  0.00    +0.000 A 
ATOM      5  C   UNL     1       0.897   9.168  20.383  0.00  0.00    +0.000 A 
ATOM      6  F   UNL     1       0.416   9.441  21.607  0.00  0.00    +0.000 F 
ATOM      7  C   UNL     1       1.746   8.066  20.254  0.00  0.00    +0.000 A 
ENDROOT
BRANCH   1  12
ATOM      8  C   UNL     1       4.803   5.230  17.564  0.00  0.00    +0.000 A 
ATOM      9  C   UNL     1       4.731   4.241  18.530  0.00  0.00    +0.000 A 
ATOM     10  N   UNL     1       3.920   4.291  19.611  0.00  0.00    +0.000 NA
ATOM     11  C   UNL     1       3.125   5.372  19.751  0.00  0.00    +0.000 A 
ATOM     12  C   UNL     1       3.116   6.462  18.855  0.00  0.00    +0.000 A 
ATOM     13  C   UNL     1       3.988   6.353  17.751  0.00  0.00    +0.000 A 
BRANCH   8  17
ATOM     14  C   UNL     1       6.557   3.878  13.124  0.00  0.00    +0.000 C 
ATOM     15  N   UNL     1       6.408   4.478  14.427  0.00  0.00    +0.000 N 
ATOM     16  C   UNL     1       5.326   4.388  15.253  0.00  0.00    +0.000 A 
ATOM     17  C   UNL     1       5.653   5.084  16.399  0.00  0.00    +0.000 A 
ATOM     18  C   UNL     1       6.961   5.563  16.144  0.00  0.00    +0.000 A 
ATOM     19  N   UNL     1       7.420   5.194  14.946  0.00  0.00    +0.000 NA
ENDBRANCH   8  17
BRANCH  11  20
ATOM     20  N   UNL     1       2.315   5.313  20.884  0.00  0.00    +0.000 N 
ATOM     21  H   UNL     1       1.617   4.596  20.705  0.00  0.00    +0.000 HD
ATOM     22  H   UNL     1       1.893   6.212  21.087  0.00  0.00    +0.000 HD
ENDBRANCH  11  20
ENDBRANCH   1  12
BRANCH   4  23
ATOM     23  C   UNL     1      -0.347  11.133  19.378  0.00  0.00    +0.000 C 
ATOM     24  O   UNL     1      -1.559  10.985  19.266  0.00  0.00    +0.000 OA
ATOM     25  N   UNL     1       0.242  12.355  19.602  0.00  0.00    +0.000 N 
ATOM     26  H   UNL     1       1.251  12.420  19.665  0.00  0.00    +0.000 HD
BRANCH  25  27
ATOM     27  C   UNL     1      -0.514  13.576  19.736  0.00  0.00    +0.000 C 
BRANCH  27  28
ATOM     28  C   UNL     1       0.309  14.766  19.318  0.00  0.00    +0.000 A 
ATOM     29  C   UNL     1       1.666  14.839  19.662  0.00  0.00    +0.000 A 
ATOM     30  C   UNL     1       2.441  15.933  19.272  0.00  0.00    +0.000 A 
ATOM     31  C   UNL     1       1.864  16.973  18.544  0.00  0.00    +0.000 A 
ATOM     32  C   UNL     1       0.511  16.917  18.217  0.00  0.00    +0.000 A 
ATOM     33 BR   UNL     1      -0.273  18.329  17.234  0.00  0.00    +0.000 Br
ATOM     34  C   UNL     1      -0.269  15.826  18.603  0.00  0.00    +0.000 A 
ENDBRANCH  27  28
ENDBRANCH  25  27
ENDBRANCH   4  23
TORSDOF 6
ENDMDL
