MODEL 1
REMARK VINA RESULT:      -7.5      0.000      0.000
REMARK  Name = 
REMARK  4 active torsions:
REMARK  status: ('A' for Active; 'I' for Inactive)
REMARK    1  A    between atoms: C_1  and  C_2
REMARK    2  A    between atoms: C_5  and  C_6
REMARK    3  A    between atoms: C_6  and  N_7
REMARK    4  A    between atoms: N_7  and  C_8
REMARK                            x       y       z     vdW  Elec       q    Type
REMARK                         _______ _______ _______ _____ _____    ______ ____
ROOT
ATOM      1  N   UNL     1       6.606   4.091  18.390  0.00  0.00    +0.000 N 
ATOM      2  H   UNL     1       7.272   3.745  19.081  0.00  0.00    +0.000 HD
ENDROOT
BRANCH   1   3
ATOM      3  C   UNL     1       5.342   4.319  18.947  0.00  0.00    +0.000 A 
ATOM      4  C   UNL     1       4.745   5.581  18.991  0.00  0.00    +0.000 A 
ATOM      5  C   UNL     1       3.442   5.774  19.467  0.00  0.00    +0.000 A 
ATOM      6  C   UNL     1       2.716   4.652  19.886  0.00  0.00    +0.000 A 
ATOM      7  S   UNL     1       1.115   4.545  20.504  0.00  0.00    +0.000 S 
ATOM      8  N   UNL     1       1.104   2.901  20.710  0.00  0.00    +0.000 NA
ATOM      9  C   UNL     1       2.282   2.428  20.316  0.00  0.00    +0.000 A 
ATOM     10  C   UNL     1       3.254   3.366  19.832  0.00  0.00    +0.000 A 
ATOM     11  C   UNL     1       4.572   3.210  19.338  0.00  0.00    +0.000 A 
ENDBRANCH   1   3
BRANCH   1  12
ATOM     12  C   UNL     1       7.222   5.138  17.563  0.00  0.00    +0.000 C 
BRANCH  12  17
ATOM     13  C   UNL     1       5.886   3.541  12.705  0.00  0.00    +0.000 C 
ATOM     14  C   UNL     1       6.438   4.218  13.904  0.00  0.00    +0.000 A 
ATOM     15  N   UNL     1       7.281   5.228  13.881  0.00  0.00    +0.000 NA
ATOM     16  N   UNL     1       7.633   5.644  15.149  0.00  0.00    +0.000 NA
ATOM     17  C   UNL     1       7.034   4.940  16.087  0.00  0.00    +0.000 A 
ATOM     18  S   UNL     1       5.996   3.708  15.483  0.00  0.00    +0.000 S 
ENDBRANCH  12  17
ENDBRANCH   1  12
TORSDOF 3
ENDMDL
MODEL 2
REMARK VINA RESULT:      -7.0      1.070      1.192
REMARK  Name = 
REMARK  4 active torsions:
REMARK  status: ('A' for Active; 'I' for Inactive)
REMARK    1  A    between atoms: C_1  and  C_2
REMARK    2  A    between atoms: C_5  and  C_6
REMARK    3  A    between atoms: C_6  and  N_7
REMARK    4  A    between atoms: N_7  and  C_8
REMARK                            x       y       z     vdW  Elec       q    Type
REMARK                         _______ _______ _______ _____ _____    ______ ____
ROOT
ATOM      1  N   UNL     1       5.574   6.133  17.947  0.00  0.00    +0.000 N 
ATOM      2  H   UNL     1       5.409   6.840  17.232  0.00  0.00    +0.000 HD
ENDROOT
BRANCH   1   3
ATOM      3  C   UNL     1       4.384   5.548  18.393  0.00  0.00    +0.000 A 
ATOM      4  C   UNL     1       3.137   5.826  17.827  0.00  0.00    +0.000 A 
ATOM      5  C   UNL     1       1.971   5.161  18.225  0.00  0.00    +0.000 A 
ATOM      6  C   UNL     1       2.076   4.169  19.208  0.00  0.00    +0.000 A 
ATOM      7  S   UNL     1       0.857   3.174  19.902  0.00  0.00    +0.000 S 
ATOM      8  N   UNL     1       1.858   2.335  20.921  0.00  0.00    +0.000 NA
ATOM      9  C   UNL     1       3.097   2.785  20.744  0.00  0.00    +0.000 A 
ATOM     10  C   UNL     1       3.300   3.830  19.783  0.00  0.00    +0.000 A 
ATOM     11  C   UNL     1       4.459   4.519  19.349  0.00  0.00    +0.000 A 
ENDBRANCH   1   3
BRANCH   1  12
ATOM     12  C   UNL     1       6.695   5.264  17.561  0.00  0.00    +0.000 C 
BRANCH  12  17
ATOM     13  C   UNL     1       6.221   3.525  12.592  0.00  0.00    +0.000 C 
ATOM     14  C   UNL     1       6.578   4.219  13.853  0.00  0.00    +0.000 A 
ATOM     15  N   UNL     1       7.490   5.161  13.966  0.00  0.00    +0.000 NA
ATOM     16  N   UNL     1       7.617   5.614  15.263  0.00  0.00    +0.000 NA
ATOM     17  C   UNL     1       6.787   5.006  16.085  0.00  0.00    +0.000 A 
ATOM     18  S   UNL     1       5.791   3.825  15.328  0.00  0.00    +0.000 S 
ENDBRANCH  12  17
ENDBRANCH   1  12
TORSDOF 3
ENDMDL
MODEL 3
REMARK VINA RESULT:      -6.9      2.033      2.950
REMARK  Name = 
REMARK  4 active torsions:
REMARK  status: ('A' for Active; 'I' for Inactive)
REMARK    1  A    between atoms: C_1  and  C_2
REMARK    2  A    between atoms: C_5  and  C_6
REMARK    3  A    between atoms: C_6  and  N_7
REMARK    4  A    between atoms: N_7  and  C_8
REMARK                            x       y       z     vdW  Elec       q    Type
REMARK                         _______ _______ _______ _____ _____    ______ ____
ROOT
ATOM      1  N   UNL     1       5.148   3.004  16.638  0.00  0.00    +0.000 N 
ATOM      2  H   UNL     1       5.984   2.652  17.104  0.00  0.00    +0.000 HD
ENDROOT
BRANCH   1   3
ATOM      3  C   UNL     1       4.104   3.241  17.540  0.00  0.00    +0.000 A 
ATOM      4  C   UNL     1       2.866   3.760  17.154  0.00  0.00    +0.000 A 
ATOM      5  C   UNL     1       1.803   3.902  18.055  0.00  0.00    +0.000 A 
ATOM      6  C   UNL     1       1.994   3.483  19.378  0.00  0.00    +0.000 A 
ATOM      7  S   UNL     1       0.905   3.512  20.708  0.00  0.00    +0.000 S 
ATOM      8  N   UNL     1       1.944   2.843  21.813  0.00  0.00    +0.000 NA
ATOM      9  C   UNL     1       3.095   2.593  21.197  0.00  0.00    +0.000 A 
ATOM     10  C   UNL     1       3.200   2.930  19.807  0.00  0.00    +0.000 A 
ATOM     11  C   UNL     1       4.249   2.794  18.865  0.00  0.00    +0.000 A 
ENDBRANCH   1   3
BRANCH   1  12
ATOM     12  C   UNL     1       5.503   4.047  15.666  0.00  0.00    +0.000 C 
BRANCH  12  17
ATOM     13  C   UNL     1       8.250   7.563  18.499  0.00  0.00    +0.000 C 
ATOM     14  C   UNL     1       7.355   6.848  17.557  0.00  0.00    +0.000 A 
ATOM     15  N   UNL     1       6.538   7.427  16.704  0.00  0.00    +0.000 NA
ATOM     16  N   UNL     1       5.817   6.510  15.965  0.00  0.00    +0.000 NA
ATOM     17  C   UNL     1       6.124   5.268  16.279  0.00  0.00    +0.000 A 
ATOM     18  S   UNL     1       7.317   5.131  17.511  0.00  0.00    +0.000 S 
ENDBRANCH  12  17
ENDBRANCH   1  12
TORSDOF 3
ENDMDL
MODEL 4
REMARK VINA RESULT:      -6.7      0.847      1.542
REMARK  Name = 
REMARK  4 active torsions:
REMARK  status: ('A' for Active; 'I' for Inactive)
REMARK    1  A    between atoms: C_1  and  C_2
REMARK    2  A    between atoms: C_5  and  C_6
REMARK    3  A    between atoms: C_6  and  N_7
REMARK    4  A    between atoms: N_7  and  C_8
REMARK                            x       y       z     vdW  Elec       q    Type
REMARK                         _______ _______ _______ _____ _____    ______ ____
ROOT
ATOM      1  N   UNL     1       6.153   5.734  18.164  0.00  0.00    +0.000 N 
ATOM      2  H   UNL     1       5.788   6.495  17.592  0.00  0.00    +0.000 HD
ENDROOT
BRANCH   1   3
ATOM      3  C   UNL     1       5.130   4.952  18.713  0.00  0.00    +0.000 A 
ATOM      4  C   UNL     1       5.308   3.620  19.094  0.00  0.00    +0.000 A 
ATOM      5  C   UNL     1       4.299   2.883  19.726  0.00  0.00    +0.000 A 
ATOM      6  C   UNL     1       3.084   3.522  20.002  0.00  0.00    +0.000 A 
ATOM      7  S   UNL     1       1.668   2.912  20.764  0.00  0.00    +0.000 S 
ATOM      8  N   UNL     1       0.788   4.313  20.670  0.00  0.00    +0.000 NA
ATOM      9  C   UNL     1       1.543   5.235  20.080  0.00  0.00    +0.000 A 
ATOM     10  C   UNL     1       2.865   4.859  19.671  0.00  0.00    +0.000 A 
ATOM     11  C   UNL     1       3.912   5.574  19.040  0.00  0.00    +0.000 A 
ENDBRANCH   1   3
BRANCH   1  12
ATOM     12  C   UNL     1       7.272   5.069  17.482  0.00  0.00    +0.000 C 
BRANCH  12  17
ATOM     13  C   UNL     1       5.913   3.543  12.608  0.00  0.00    +0.000 C 
ATOM     14  C   UNL     1       6.465   4.207  13.814  0.00  0.00    +0.000 A 
ATOM     15  N   UNL     1       7.289   5.232  13.802  0.00  0.00    +0.000 NA
ATOM     16  N   UNL     1       7.647   5.631  15.074  0.00  0.00    +0.000 NA
ATOM     17  C   UNL     1       7.071   4.897  16.004  0.00  0.00    +0.000 A 
ATOM     18  S   UNL     1       6.050   3.658  15.387  0.00  0.00    +0.000 S 
ENDBRANCH  12  17
ENDBRANCH   1  12
TORSDOF 3
ENDMDL
MODEL 5
REMARK VINA RESULT:      -6.5      1.402      1.439
REMARK  Name = 
REMARK  4 active torsions:
REMARK  status: ('A' for Active; 'I' for Inactive)
REMARK    1  A    between atoms: C_1  and  C_2
REMARK    2  A    between atoms: C_5  and  C_6
REMARK    3  A    between atoms: C_6  and  N_7
REMARK    4  A    between atoms: N_7  and  C_8
REMARK                            x       y       z     vdW  Elec       q    Type
REMARK                         _______ _______ _______ _____ _____    ______ ____
ROOT
ATOM      1  N   UNL     1       6.564   5.259  19.369  0.00  0.00    +0.000 N 
ATOM      2  H   UNL     1       6.891   5.544  20.291  0.00  0.00    +0.000 HD
ENDROOT
BRANCH   1   3
ATOM      3  C   UNL     1       5.212   4.895  19.379  0.00  0.00    +0.000 A 
ATOM      4  C   UNL     1       4.172   5.825  19.443  0.00  0.00    +0.000 A 
ATOM      5  C   UNL     1       2.826   5.446  19.358  0.00  0.00    +0.000 A 
ATOM      6  C   UNL     1       2.529   4.090  19.179  0.00  0.00    +0.000 A 
ATOM      7  S   UNL     1       1.004   3.308  19.030  0.00  0.00    +0.000 S 
ATOM      8  N   UNL     1       1.599   1.772  18.849  0.00  0.00    +0.000 NA
ATOM      9  C   UNL     1       2.926   1.837  18.892  0.00  0.00    +0.000 A 
ATOM     10  C   UNL     1       3.530   3.125  19.077  0.00  0.00    +0.000 A 
ATOM     11  C   UNL     1       4.879   3.547  19.160  0.00  0.00    +0.000 A 
ENDBRANCH   1   3
BRANCH   1  12
ATOM     12  C   UNL     1       7.043   6.194  18.341  0.00  0.00    +0.000 C 
BRANCH  12  17
ATOM     13  C   UNL     1       6.218   4.040  13.586  0.00  0.00    +0.000 C 
ATOM     14  C   UNL     1       6.244   4.880  14.808  0.00  0.00    +0.000 A 
ATOM     15  N   UNL     1       5.615   6.028  14.950  0.00  0.00    +0.000 NA
ATOM     16  N   UNL     1       5.832   6.593  16.190  0.00  0.00    +0.000 NA
ATOM     17  C   UNL     1       6.609   5.846  16.947  0.00  0.00    +0.000 A 
ATOM     18  S   UNL     1       7.138   4.394  16.191  0.00  0.00    +0.000 S 
ENDBRANCH  12  17
ENDBRANCH   1  12
TORSDOF 3
ENDMDL
MODEL 6
REMARK VINA RESULT:      -6.5      2.245      3.174
REMARK  Name = 
REMARK  4 active torsions:
REMARK  status: ('A' for Active; 'I' for Inactive)
REMARK    1  A    between atoms: C_1  and  C_2
REMARK    2  A    between atoms: C_5  and  C_6
REMARK    3  A    between atoms: C_6  and  N_7
REMARK    4  A    between atoms: N_7  and  C_8
REMARK                            x       y       z     vdW  Elec       q    Type
REMARK                         _______ _______ _______ _____ _____    ______ ____
ROOT
ATOM      1  N   UNL     1       4.411   3.967  16.288  0.00  0.00    +0.000 N 
ATOM      2  H   UNL     1       4.029   3.415  15.521  0.00  0.00    +0.000 HD
ENDROOT
BRANCH   1   3
ATOM      3  C   UNL     1       3.624   3.878  17.442  0.00  0.00    +0.000 A 
ATOM      4  C   UNL     1       2.289   4.288  17.491  0.00  0.00    +0.000 A 
ATOM      5  C   UNL     1       1.493   4.104  18.628  0.00  0.00    +0.000 A 
ATOM      6  C   UNL     1       2.058   3.463  19.737  0.00  0.00    +0.000 A 
ATOM      7  S   UNL     1       1.359   3.080  21.261  0.00  0.00    +0.000 S 
ATOM      8  N   UNL     1       2.702   2.355  21.906  0.00  0.00    +0.000 NA
ATOM      9  C   UNL     1       3.667   2.391  20.992  0.00  0.00    +0.000 A 
ATOM     10  C   UNL     1       3.375   3.006  19.730  0.00  0.00    +0.000 A 
ATOM     11  C   UNL     1       4.147   3.203  18.560  0.00  0.00    +0.000 A 
ENDBRANCH   1   3
BRANCH   1  12
ATOM     12  C   UNL     1       5.862   3.763  16.396  0.00  0.00    +0.000 C 
BRANCH  12  17
ATOM     13  C   UNL     1       8.016   8.334  17.947  0.00  0.00    +0.000 C 
ATOM     14  C   UNL     1       7.559   6.932  17.785  0.00  0.00    +0.000 A 
ATOM     15  N   UNL     1       7.877   5.936  18.584  0.00  0.00    +0.000 NA
ATOM     16  N   UNL     1       7.317   4.741  18.179  0.00  0.00    +0.000 NA
ATOM     17  C   UNL     1       6.586   4.879  17.092  0.00  0.00    +0.000 A 
ATOM     18  S   UNL     1       6.535   6.486  16.481  0.00  0.00    +0.000 S 
ENDBRANCH  12  17
ENDBRANCH   1  12
TORSDOF 3
ENDMDL
MODEL 7
REMARK VINA RESULT:      -6.5      2.982      4.042
REMARK  Name = 
REMARK  4 active torsions:
REMARK  status: ('A' for Active; 'I' for Inactive)
REMARK    1  A    between atoms: C_1  and  C_2
REMARK    2  A    between atoms: C_5  and  C_6
REMARK    3  A    between atoms: C_6  and  N_7
REMARK    4  A    between atoms: N_7  and  C_8
REMARK                            x       y       z     vdW  Elec       q    Type
REMARK                         _______ _______ _______ _____ _____    ______ ____
ROOT
ATOM      1  N   UNL     1       3.309   4.423  18.830  0.00  0.00    +0.000 N 
ATOM      2  H   UNL     1       2.765   3.606  19.105  0.00  0.00    +0.000 HD
ENDROOT
BRANCH   1   3
ATOM      3  C   UNL     1       2.662   5.620  19.158  0.00  0.00    +0.000 A 
ATOM      4  C   UNL     1       2.106   5.868  20.415  0.00  0.00    +0.000 A 
ATOM      5  C   UNL     1       1.546   7.107  20.752  0.00  0.00    +0.000 A 
ATOM      6  C   UNL     1       1.574   8.130  19.797  0.00  0.00    +0.000 A 
ATOM      7  S   UNL     1       0.989   9.744  19.895  0.00  0.00    +0.000 S 
ATOM      8  N   UNL     1       1.443  10.201  18.369  0.00  0.00    +0.000 NA
ATOM      9  C   UNL     1       2.032   9.161  17.786  0.00  0.00    +0.000 A 
ATOM     10  C   UNL     1       2.145   7.945  18.538  0.00  0.00    +0.000 A 
ATOM     11  C   UNL     1       2.709   6.681  18.236  0.00  0.00    +0.000 A 
ENDBRANCH   1   3
BRANCH   1  12
ATOM     12  C   UNL     1       4.720   4.250  19.201  0.00  0.00    +0.000 C 
BRANCH  12  17
ATOM     13  C   UNL     1       7.123   4.726  14.517  0.00  0.00    +0.000 C 
ATOM     14  C   UNL     1       6.758   4.623  15.951  0.00  0.00    +0.000 A 
ATOM     15  N   UNL     1       7.612   4.637  16.952  0.00  0.00    +0.000 NA
ATOM     16  N   UNL     1       6.986   4.510  18.176  0.00  0.00    +0.000 NA
ATOM     17  C   UNL     1       5.678   4.415  18.057  0.00  0.00    +0.000 A 
ATOM     18  S   UNL     1       5.116   4.468  16.432  0.00  0.00    +0.000 S 
ENDBRANCH  12  17
ENDBRANCH   1  12
TORSDOF 3
ENDMDL
MODEL 8
REMARK VINA RESULT:      -6.4      2.350      3.378
REMARK  Name = 
REMARK  4 active torsions:
REMARK  status: ('A' for Active; 'I' for Inactive)
REMARK    1  A    between atoms: C_1  and  C_2
REMARK    2  A    between atoms: C_5  and  C_6
REMARK    3  A    between atoms: C_6  and  N_7
REMARK    4  A    between atoms: N_7  and  C_8
REMARK                            x       y       z     vdW  Elec       q    Type
REMARK                         _______ _______ _______ _____ _____    ______ ____
ROOT
ATOM      1  N   UNL     1       6.343   3.983  18.500  0.00  0.00    +0.000 N 
ATOM      2  H   UNL     1       6.681   4.476  19.326  0.00  0.00    +0.000 HD
ENDROOT
BRANCH   1   3
ATOM      3  C   UNL     1       4.965   3.747  18.554  0.00  0.00    +0.000 A 
ATOM      4  C   UNL     1       4.192   3.473  17.423  0.00  0.00    +0.000 A 
ATOM      5  C   UNL     1       2.832   3.149  17.509  0.00  0.00    +0.000 A 
ATOM      6  C   UNL     1       2.246   3.076  18.778  0.00  0.00    +0.000 A 
ATOM      7  S   UNL     1       0.629   2.700  19.224  0.00  0.00    +0.000 S 
ATOM      8  N   UNL     1       0.849   2.839  20.860  0.00  0.00    +0.000 NA
ATOM      9  C   UNL     1       2.121   3.158  21.079  0.00  0.00    +0.000 A 
ATOM     10  C   UNL     1       2.980   3.310  19.941  0.00  0.00    +0.000 A 
ATOM     11  C   UNL     1       4.354   3.627  19.815  0.00  0.00    +0.000 A 
ENDBRANCH   1   3
BRANCH   1  12
ATOM     12  C   UNL     1       6.920   4.568  17.281  0.00  0.00    +0.000 C 
BRANCH  12  17
ATOM     13  C   UNL     1       8.687   9.309  18.810  0.00  0.00    +0.000 C 
ATOM     14  C   UNL     1       8.092   8.144  18.110  0.00  0.00    +0.000 A 
ATOM     15  N   UNL     1       7.478   8.194  16.947  0.00  0.00    +0.000 NA
ATOM     16  N   UNL     1       7.014   6.957  16.548  0.00  0.00    +0.000 NA
ATOM     17  C   UNL     1       7.303   6.013  17.420  0.00  0.00    +0.000 A 
ATOM     18  S   UNL     1       8.162   6.573  18.800  0.00  0.00    +0.000 S 
ENDBRANCH  12  17
ENDBRANCH   1  12
TORSDOF 3
ENDMDL
MODEL 9
REMARK VINA RESULT:      -6.4      1.539      1.802
REMARK  Name = 
REMARK  4 active torsions:
REMARK  status: ('A' for Active; 'I' for Inactive)
REMARK    1  A    between atoms: C_1  and  C_2
REMARK    2  A    between atoms: C_5  and  C_6
REMARK    3  A    between atoms: C_6  and  N_7
REMARK    4  A    between atoms: N_7  and  C_8
REMARK                            x       y       z     vdW  Elec       q    Type
REMARK                         _______ _______ _______ _____ _____    ______ ____
ROOT
ATOM      1  N   UNL     1       4.756   5.634  17.084  0.00  0.00    +0.000 N 
ATOM      2  H   UNL     1       4.403   5.925  16.173  0.00  0.00    +0.000 HD
ENDROOT
BRANCH   1   3
ATOM      3  C   UNL     1       3.812   4.887  17.800  0.00  0.00    +0.000 A 
ATOM      4  C   UNL     1       2.974   3.943  17.202  0.00  0.00    +0.000 A 
ATOM      5  C   UNL     1       2.103   3.140  17.949  0.00  0.00    +0.000 A 
ATOM      6  C   UNL     1       2.100   3.281  19.342  0.00  0.00    +0.000 A 
ATOM      7  S   UNL     1       1.171   2.454  20.530  0.00  0.00    +0.000 S 
ATOM      8  N   UNL     1       1.813   3.234  21.844  0.00  0.00    +0.000 NA
ATOM      9  C   UNL     1       2.719   4.102  21.405  0.00  0.00    +0.000 A 
ATOM     10  C   UNL     1       2.939   4.187  19.991  0.00  0.00    +0.000 A 
ATOM     11  C   UNL     1       3.812   4.976  19.203  0.00  0.00    +0.000 A 
ENDBRANCH   1   3
BRANCH   1  12
ATOM     12  C   UNL     1       6.128   5.123  16.964  0.00  0.00    +0.000 C 
BRANCH  12  17
ATOM     13  C   UNL     1       6.998   3.802  11.921  0.00  0.00    +0.000 C 
ATOM     14  C   UNL     1       7.002   4.388  13.284  0.00  0.00    +0.000 A 
ATOM     15  N   UNL     1       7.839   5.311  13.708  0.00  0.00    +0.000 NA
ATOM     16  N   UNL     1       7.615   5.655  15.025  0.00  0.00    +0.000 NA
ATOM     17  C   UNL     1       6.608   4.986  15.548  0.00  0.00    +0.000 A 
ATOM     18  S   UNL     1       5.863   3.879  14.463  0.00  0.00    +0.000 S 
ENDBRANCH  12  17
ENDBRANCH   1  12
TORSDOF 3
ENDMDL
