MODEL 1
REMARK VINA RESULT:      -6.8      0.000      0.000
REMARK  Name = 
REMARK  10 active torsions:
REMARK  status: ('A' for Active; 'I' for Inactive)
REMARK    1  A    between atoms: C_1  and  C_2
REMARK    2  A    between atoms: C_2  and  N_3
REMARK    3  A    between atoms: N_3  and  C_4
REMARK    4  A    between atoms: C_4  and  C_5
REMARK    5  A    between atoms: C_6  and  C_8
REMARK    6  A    between atoms: C_11  and  C_12
REMARK    7  A    between atoms: C_12  and  S_13
REMARK    8  A    between atoms: S_13  and  C_16
REMARK    9  A    between atoms: C_19  and  O_20
REMARK   10  A    between atoms: O_20  and  C_21
REMARK                            x       y       z     vdW  Elec       q    Type
REMARK                         _______ _______ _______ _____ _____    ______ ____
ROOT
ATOM      1  C   UNL     1       5.818   4.127  18.151  0.00  0.00    +0.000 A 
ATOM      2  C   UNL     1       5.158   3.497  17.111  0.00  0.00    +0.000 A 
ATOM      3  C   UNL     1       4.106   2.736  17.683  0.00  0.00    +0.000 A 
ATOM      4  C   UNL     1       4.206   2.903  19.047  0.00  0.00    +0.000 A 
ATOM      5  O   UNL     1       5.267   3.706  19.333  0.00  0.00    +0.000 OA
ENDROOT
BRANCH   1   7
ATOM      6  N   UNL     1       6.703   6.406  17.684  0.00  0.00    +0.000 N 
ATOM      7  C   UNL     1       6.928   5.074  18.120  0.00  0.00    +0.000 C 
ATOM      8  O   UNL     1       8.073   4.701  18.408  0.00  0.00    +0.000 OA
BRANCH   6  10
ATOM      9  C   UNL     1       7.604   8.731  17.688  0.00  0.00    +0.000 C 
ATOM     10  C   UNL     1       7.884   7.251  17.473  0.00  0.00    +0.000 C 
ENDBRANCH   6  10
BRANCH   6  11
ATOM     11  C   UNL     1       5.371   6.867  17.270  0.00  0.00    +0.000 C 
ATOM     12  C   UNL     1       5.008   6.856  15.797  0.00  0.00    +0.000 C 
ENDBRANCH   6  11
ENDBRANCH   1   7
BRANCH   4  13
ATOM     13  C   UNL     1       3.444   2.393  20.213  0.00  0.00    +0.000 C 
BRANCH  13  14
ATOM     14  S   UNL     1       1.735   2.903  20.054  0.00  0.00    +0.000 S 
ATOM     15  O   UNL     1       1.129   2.239  18.912  0.00  0.00    +0.000 OA
ATOM     16  O   UNL     1       1.103   2.861  21.361  0.00  0.00    +0.000 OA
BRANCH  14  17
ATOM     17  C   UNL     1       1.875   4.632  19.620  0.00  0.00    +0.000 A 
ATOM     18  C   UNL     1       1.870   5.012  18.277  0.00  0.00    +0.000 A 
ATOM     19  C   UNL     1       1.966   6.368  17.949  0.00  0.00    +0.000 A 
ATOM     20  C   UNL     1       2.037   7.341  18.949  0.00  0.00    +0.000 A 
ATOM     21  C   UNL     1       2.023   6.953  20.291  0.00  0.00    +0.000 A 
ATOM     22  C   UNL     1       1.935   5.597  20.630  0.00  0.00    +0.000 A 
BRANCH  20  23
ATOM     23  O   UNL     1       2.153   8.626  18.495  0.00  0.00    +0.000 OA
ATOM     24  C   UNL     1       1.297   9.588  19.094  0.00  0.00    +0.000 C 
ENDBRANCH  20  23
ENDBRANCH  14  17
ENDBRANCH  13  14
ENDBRANCH   4  13
TORSDOF 7
ENDMDL
MODEL 2
REMARK VINA RESULT:      -6.6      2.854      6.386
REMARK  Name = 
REMARK  10 active torsions:
REMARK  status: ('A' for Active; 'I' for Inactive)
REMARK    1  A    between atoms: C_1  and  C_2
REMARK    2  A    between atoms: C_2  and  N_3
REMARK    3  A    between atoms: N_3  and  C_4
REMARK    4  A    between atoms: C_4  and  C_5
REMARK    5  A    between atoms: C_6  and  C_8
REMARK    6  A    between atoms: C_11  and  C_12
REMARK    7  A    between atoms: C_12  and  S_13
REMARK    8  A    between atoms: S_13  and  C_16
REMARK    9  A    between atoms: C_19  and  O_20
REMARK   10  A    between atoms: O_20  and  C_21
REMARK                            x       y       z     vdW  Elec       q    Type
REMARK                         _______ _______ _______ _____ _____    ______ ____
ROOT
ATOM      1  C   UNL     1       1.939   7.957  19.534  0.00  0.00    +0.000 A 
ATOM      2  C   UNL     1       2.488   8.288  18.308  0.00  0.00    +0.000 A 
ATOM      3  C   UNL     1       3.013   7.094  17.749  0.00  0.00    +0.000 A 
ATOM      4  C   UNL     1       2.799   6.104  18.682  0.00  0.00    +0.000 A 
ATOM      5  O   UNL     1       2.192   6.633  19.779  0.00  0.00    +0.000 OA
ENDROOT
BRANCH   1   7
ATOM      6  N   UNL     1       0.417   9.865  20.025  0.00  0.00    +0.000 N 
ATOM      7  C   UNL     1       1.214   8.788  20.492  0.00  0.00    +0.000 C 
ATOM      8  O   UNL     1       1.348   8.596  21.707  0.00  0.00    +0.000 OA
BRANCH   6  10
ATOM      9  C   UNL     1       0.240  12.242  20.756  0.00  0.00    +0.000 C 
ATOM     10  C   UNL     1      -0.117  10.789  21.032  0.00  0.00    +0.000 C 
ENDBRANCH   6  10
BRANCH   6  11
ATOM     11  C   UNL     1       0.288  10.164  18.593  0.00  0.00    +0.000 C 
ATOM     12  C   UNL     1      -1.071  10.042  17.930  0.00  0.00    +0.000 C 
ENDBRANCH   6  11
ENDBRANCH   1   7
BRANCH   4  13
ATOM     13  C   UNL     1       3.100   4.653  18.742  0.00  0.00    +0.000 C 
BRANCH  13  14
ATOM     14  S   UNL     1       4.852   4.438  19.041  0.00  0.00    +0.000 S 
ATOM     15  O   UNL     1       5.383   5.610  19.715  0.00  0.00    +0.000 OA
ATOM     16  O   UNL     1       5.084   3.106  19.570  0.00  0.00    +0.000 OA
BRANCH  14  17
ATOM     17  C   UNL     1       5.539   4.447  17.390  0.00  0.00    +0.000 A 
ATOM     18  C   UNL     1       4.721   4.160  16.297  0.00  0.00    +0.000 A 
ATOM     19  C   UNL     1       5.265   4.183  15.009  0.00  0.00    +0.000 A 
ATOM     20  C   UNL     1       6.605   4.521  14.806  0.00  0.00    +0.000 A 
ATOM     21  C   UNL     1       7.413   4.826  15.905  0.00  0.00    +0.000 A 
ATOM     22  C   UNL     1       6.880   4.797  17.199  0.00  0.00    +0.000 A 
BRANCH  20  23
ATOM     23  O   UNL     1       7.018   4.482  13.503  0.00  0.00    +0.000 OA
ATOM     24  C   UNL     1       6.304   3.610  12.640  0.00  0.00    +0.000 C 
ENDBRANCH  20  23
ENDBRANCH  14  17
ENDBRANCH  13  14
ENDBRANCH   4  13
TORSDOF 7
ENDMDL
MODEL 3
REMARK VINA RESULT:      -6.5      2.731      6.302
REMARK  Name = 
REMARK  10 active torsions:
REMARK  status: ('A' for Active; 'I' for Inactive)
REMARK    1  A    between atoms: C_1  and  C_2
REMARK    2  A    between atoms: C_2  and  N_3
REMARK    3  A    between atoms: N_3  and  C_4
REMARK    4  A    between atoms: C_4  and  C_5
REMARK    5  A    between atoms: C_6  and  C_8
REMARK    6  A    between atoms: C_11  and  C_12
REMARK    7  A    between atoms: C_12  and  S_13
REMARK    8  A    between atoms: S_13  and  C_16
REMARK    9  A    between atoms: C_19  and  O_20
REMARK   10  A    between atoms: O_20  and  C_21
REMARK                            x       y       z     vdW  Elec       q    Type
REMARK                         _______ _______ _______ _____ _____    ______ ____
ROOT
ATOM      1  C   UNL     1       1.482   8.863  19.338  0.00  0.00    +0.000 A 
ATOM      2  C   UNL     1       2.091   8.638  18.116  0.00  0.00    +0.000 A 
ATOM      3  C   UNL     1       2.668   7.342  18.168  0.00  0.00    +0.000 A 
ATOM      4  C   UNL     1       2.422   6.860  19.435  0.00  0.00    +0.000 A 
ATOM      5  O   UNL     1       1.746   7.796  20.156  0.00  0.00    +0.000 OA
ENDROOT
BRANCH   1   7
ATOM      6  N   UNL     1      -0.382  10.476  18.999  0.00  0.00    +0.000 N 
ATOM      7  C   UNL     1       0.691  10.001  19.796  0.00  0.00    +0.000 C 
ATOM      8  O   UNL     1       0.996  10.590  20.841  0.00  0.00    +0.000 OA
BRANCH   6  10
ATOM      9  C   UNL     1      -0.611  12.911  18.509  0.00  0.00    +0.000 C 
ATOM     10  C   UNL     1      -1.005  11.742  19.400  0.00  0.00    +0.000 C 
ENDBRANCH   6  10
BRANCH   6  11
ATOM     11  C   UNL     1      -0.731   9.844  17.719  0.00  0.00    +0.000 C 
ATOM     12  C   UNL     1      -2.176   9.855  17.258  0.00  0.00    +0.000 C 
ENDBRANCH   6  11
ENDBRANCH   1   7
BRANCH   4  13
ATOM     13  C   UNL     1       2.746   5.600  20.146  0.00  0.00    +0.000 C 
BRANCH  13  14
ATOM     14  S   UNL     1       2.591   4.233  19.001  0.00  0.00    +0.000 S 
ATOM     15  O   UNL     1       2.662   2.975  19.726  0.00  0.00    +0.000 OA
ATOM     16  O   UNL     1       1.499   4.502  18.083  0.00  0.00    +0.000 OA
BRANCH  14  17
ATOM     17  C   UNL     1       4.094   4.350  18.039  0.00  0.00    +0.000 A 
ATOM     18  C   UNL     1       4.045   4.185  16.654  0.00  0.00    +0.000 A 
ATOM     19  C   UNL     1       5.223   4.291  15.909  0.00  0.00    +0.000 A 
ATOM     20  C   UNL     1       6.438   4.591  16.533  0.00  0.00    +0.000 A 
ATOM     21  C   UNL     1       6.474   4.774  17.918  0.00  0.00    +0.000 A 
ATOM     22  C   UNL     1       5.301   4.661  18.673  0.00  0.00    +0.000 A 
BRANCH  20  23
ATOM     23  O   UNL     1       7.518   4.643  15.696  0.00  0.00    +0.000 OA
ATOM     24  C   UNL     1       7.238   4.810  14.313  0.00  0.00    +0.000 C 
ENDBRANCH  20  23
ENDBRANCH  14  17
ENDBRANCH  13  14
ENDBRANCH   4  13
TORSDOF 7
ENDMDL
MODEL 4
REMARK VINA RESULT:      -6.5      2.164      5.297
REMARK  Name = 
REMARK  10 active torsions:
REMARK  status: ('A' for Active; 'I' for Inactive)
REMARK    1  A    between atoms: C_1  and  C_2
REMARK    2  A    between atoms: C_2  and  N_3
REMARK    3  A    between atoms: N_3  and  C_4
REMARK    4  A    between atoms: C_4  and  C_5
REMARK    5  A    between atoms: C_6  and  C_8
REMARK    6  A    between atoms: C_11  and  C_12
REMARK    7  A    between atoms: C_12  and  S_13
REMARK    8  A    between atoms: S_13  and  C_16
REMARK    9  A    between atoms: C_19  and  O_20
REMARK   10  A    between atoms: O_20  and  C_21
REMARK                            x       y       z     vdW  Elec       q    Type
REMARK                         _______ _______ _______ _____ _____    ______ ____
ROOT
ATOM      1  C   UNL     1       1.951   6.777  19.555  0.00  0.00    +0.000 A 
ATOM      2  C   UNL     1       1.910   6.270  20.842  0.00  0.00    +0.000 A 
ATOM      3  C   UNL     1       1.958   4.856  20.737  0.00  0.00    +0.000 A 
ATOM      4  C   UNL     1       1.979   4.569  19.390  0.00  0.00    +0.000 A 
ATOM      5  O   UNL     1       1.929   5.727  18.675  0.00  0.00    +0.000 OA
ENDROOT
BRANCH   1   7
ATOM      6  N   UNL     1       1.230   9.149  19.765  0.00  0.00    +0.000 N 
ATOM      7  C   UNL     1       1.994   8.161  19.093  0.00  0.00    +0.000 C 
ATOM      8  O   UNL     1       2.641   8.459  18.081  0.00  0.00    +0.000 OA
BRANCH   6  10
ATOM      9  C   UNL     1      -0.237  10.783  18.582  0.00  0.00    +0.000 C 
ATOM     10  C   UNL     1       1.145  10.473  19.137  0.00  0.00    +0.000 C 
ENDBRANCH   6  10
BRANCH   6  11
ATOM     11  C   UNL     1       0.397   8.820  20.930  0.00  0.00    +0.000 C 
ATOM     12  C   UNL     1       0.603   9.582  22.225  0.00  0.00    +0.000 C 
ENDBRANCH   6  11
ENDBRANCH   1   7
BRANCH   4  13
ATOM     13  C   UNL     1       2.021   3.317  18.597  0.00  0.00    +0.000 C 
BRANCH  13  14
ATOM     14  S   UNL     1       3.654   2.598  18.737  0.00  0.00    +0.000 S 
ATOM     15  O   UNL     1       3.983   2.396  20.138  0.00  0.00    +0.000 OA
ATOM     16  O   UNL     1       3.781   1.513  17.779  0.00  0.00    +0.000 OA
BRANCH  14  17
ATOM     17  C   UNL     1       4.717   3.911  18.150  0.00  0.00    +0.000 A 
ATOM     18  C   UNL     1       4.636   4.326  16.820  0.00  0.00    +0.000 A 
ATOM     19  C   UNL     1       5.461   5.362  16.374  0.00  0.00    +0.000 A 
ATOM     20  C   UNL     1       6.339   6.004  17.252  0.00  0.00    +0.000 A 
ATOM     21  C   UNL     1       6.400   5.595  18.587  0.00  0.00    +0.000 A 
ATOM     22  C   UNL     1       5.584   4.552  19.041  0.00  0.00    +0.000 A 
BRANCH  20  23
ATOM     23  O   UNL     1       7.107   6.983  16.685  0.00  0.00    +0.000 OA
ATOM     24  C   UNL     1       7.698   7.918  17.577  0.00  0.00    +0.000 C 
ENDBRANCH  20  23
ENDBRANCH  14  17
ENDBRANCH  13  14
ENDBRANCH   4  13
TORSDOF 7
ENDMDL
MODEL 5
REMARK VINA RESULT:      -6.5      0.261      1.022
REMARK  Name = 
REMARK  10 active torsions:
REMARK  status: ('A' for Active; 'I' for Inactive)
REMARK    1  A    between atoms: C_1  and  C_2
REMARK    2  A    between atoms: C_2  and  N_3
REMARK    3  A    between atoms: N_3  and  C_4
REMARK    4  A    between atoms: C_4  and  C_5
REMARK    5  A    between atoms: C_6  and  C_8
REMARK    6  A    between atoms: C_11  and  C_12
REMARK    7  A    between atoms: C_12  and  S_13
REMARK    8  A    between atoms: S_13  and  C_16
REMARK    9  A    between atoms: C_19  and  O_20
REMARK   10  A    between atoms: O_20  and  C_21
REMARK                            x       y       z     vdW  Elec       q    Type
REMARK                         _______ _______ _______ _____ _____    ______ ____
ROOT
ATOM      1  C   UNL     1       5.774   4.148  18.121  0.00  0.00    +0.000 A 
ATOM      2  C   UNL     1       5.162   3.473  17.079  0.00  0.00    +0.000 A 
ATOM      3  C   UNL     1       4.071   2.751  17.630  0.00  0.00    +0.000 A 
ATOM      4  C   UNL     1       4.100   2.986  18.988  0.00  0.00    +0.000 A 
ATOM      5  O   UNL     1       5.155   3.791  19.290  0.00  0.00    +0.000 OA
ENDROOT
BRANCH   1   7
ATOM      6  N   UNL     1       6.704   6.401  17.619  0.00  0.00    +0.000 N 
ATOM      7  C   UNL     1       6.896   5.081  18.103  0.00  0.00    +0.000 C 
ATOM      8  O   UNL     1       8.024   4.704  18.445  0.00  0.00    +0.000 OA
BRANCH   6  10
ATOM      9  C   UNL     1       7.938   8.446  18.337  0.00  0.00    +0.000 C 
ATOM     10  C   UNL     1       7.902   7.226  17.428  0.00  0.00    +0.000 C 
ENDBRANCH   6  10
BRANCH   6  11
ATOM     11  C   UNL     1       5.393   6.864  17.142  0.00  0.00    +0.000 C 
ATOM     12  C   UNL     1       5.078   6.794  15.660  0.00  0.00    +0.000 C 
ENDBRANCH   6  11
ENDBRANCH   1   7
BRANCH   4  13
ATOM     13  C   UNL     1       3.270   2.543  20.134  0.00  0.00    +0.000 C 
BRANCH  13  14
ATOM     14  S   UNL     1       1.585   3.091  19.874  0.00  0.00    +0.000 S 
ATOM     15  O   UNL     1       1.044   2.464  18.679  0.00  0.00    +0.000 OA
ATOM     16  O   UNL     1       0.866   3.034  21.134  0.00  0.00    +0.000 OA
BRANCH  14  17
ATOM     17  C   UNL     1       1.787   4.826  19.489  0.00  0.00    +0.000 A 
ATOM     18  C   UNL     1       1.895   5.757  20.523  0.00  0.00    +0.000 A 
ATOM     19  C   UNL     1       2.067   7.109  20.212  0.00  0.00    +0.000 A 
ATOM     20  C   UNL     1       2.162   7.529  18.883  0.00  0.00    +0.000 A 
ATOM     21  C   UNL     1       2.072   6.588  17.854  0.00  0.00    +0.000 A 
ATOM     22  C   UNL     1       1.892   5.232  18.155  0.00  0.00    +0.000 A 
BRANCH  20  23
ATOM     23  O   UNL     1       2.303   8.879  18.714  0.00  0.00    +0.000 OA
ATOM     24  C   UNL     1       1.137   9.666  18.915  0.00  0.00    +0.000 C 
ENDBRANCH  20  23
ENDBRANCH  14  17
ENDBRANCH  13  14
ENDBRANCH   4  13
TORSDOF 7
ENDMDL
MODEL 6
REMARK VINA RESULT:      -6.4      2.169      5.352
REMARK  Name = 
REMARK  10 active torsions:
REMARK  status: ('A' for Active; 'I' for Inactive)
REMARK    1  A    between atoms: C_1  and  C_2
REMARK    2  A    between atoms: C_2  and  N_3
REMARK    3  A    between atoms: N_3  and  C_4
REMARK    4  A    between atoms: C_4  and  C_5
REMARK    5  A    between atoms: C_6  and  C_8
REMARK    6  A    between atoms: C_11  and  C_12
REMARK    7  A    between atoms: C_12  and  S_13
REMARK    8  A    between atoms: S_13  and  C_16
REMARK    9  A    between atoms: C_19  and  O_20
REMARK   10  A    between atoms: O_20  and  C_21
REMARK                            x       y       z     vdW  Elec       q    Type
REMARK                         _______ _______ _______ _____ _____    ______ ____
ROOT
ATOM      1  C   UNL     1       2.007   6.639  19.698  0.00  0.00    +0.000 A 
ATOM      2  C   UNL     1       2.135   6.196  21.003  0.00  0.00    +0.000 A 
ATOM      3  C   UNL     1       2.204   4.779  20.960  0.00  0.00    +0.000 A 
ATOM      4  C   UNL     1       2.068   4.426  19.636  0.00  0.00    +0.000 A 
ATOM      5  O   UNL     1       1.903   5.546  18.879  0.00  0.00    +0.000 OA
ENDROOT
BRANCH   1   7
ATOM      6  N   UNL     1       1.227   8.996  19.862  0.00  0.00    +0.000 N 
ATOM      7  C   UNL     1       1.961   7.998  19.170  0.00  0.00    +0.000 C 
ATOM      8  O   UNL     1       2.502   8.265  18.089  0.00  0.00    +0.000 OA
BRANCH   6  10
ATOM      9  C   UNL     1      -0.219  10.331  18.330  0.00  0.00    +0.000 C 
ATOM     10  C   UNL     1       1.040  10.283  19.183  0.00  0.00    +0.000 C 
ENDBRANCH   6  10
BRANCH   6  11
ATOM     11  C   UNL     1       0.516   8.701  21.113  0.00  0.00    +0.000 C 
ATOM     12  C   UNL     1      -0.201   9.823  21.839  0.00  0.00    +0.000 C 
ENDBRANCH   6  11
ENDBRANCH   1   7
BRANCH   4  13
ATOM     13  C   UNL     1       2.043   3.137  18.904  0.00  0.00    +0.000 C 
BRANCH  13  14
ATOM     14  S   UNL     1       3.711   2.494  18.807  0.00  0.00    +0.000 S 
ATOM     15  O   UNL     1       4.232   2.280  20.147  0.00  0.00    +0.000 OA
ATOM     16  O   UNL     1       3.757   1.436  17.814  0.00  0.00    +0.000 OA
BRANCH  14  17
ATOM     17  C   UNL     1       4.627   3.868  18.120  0.00  0.00    +0.000 A 
ATOM     18  C   UNL     1       5.564   4.539  18.906  0.00  0.00    +0.000 A 
ATOM     19  C   UNL     1       6.284   5.603  18.355  0.00  0.00    +0.000 A 
ATOM     20  C   UNL     1       6.097   5.978  17.022  0.00  0.00    +0.000 A 
ATOM     21  C   UNL     1       5.169   5.288  16.236  0.00  0.00    +0.000 A 
ATOM     22  C   UNL     1       4.437   4.227  16.782  0.00  0.00    +0.000 A 
BRANCH  20  23
ATOM     23  O   UNL     1       6.843   7.048  16.614  0.00  0.00    +0.000 OA
ATOM     24  C   UNL     1       7.646   7.673  17.606  0.00  0.00    +0.000 C 
ENDBRANCH  20  23
ENDBRANCH  14  17
ENDBRANCH  13  14
ENDBRANCH   4  13
TORSDOF 7
ENDMDL
MODEL 7
REMARK VINA RESULT:      -6.4      3.622      6.806
REMARK  Name = 
REMARK  10 active torsions:
REMARK  status: ('A' for Active; 'I' for Inactive)
REMARK    1  A    between atoms: C_1  and  C_2
REMARK    2  A    between atoms: C_2  and  N_3
REMARK    3  A    between atoms: N_3  and  C_4
REMARK    4  A    between atoms: C_4  and  C_5
REMARK    5  A    between atoms: C_6  and  C_8
REMARK    6  A    between atoms: C_11  and  C_12
REMARK    7  A    between atoms: C_12  and  S_13
REMARK    8  A    between atoms: S_13  and  C_16
REMARK    9  A    between atoms: C_19  and  O_20
REMARK   10  A    between atoms: O_20  and  C_21
REMARK                            x       y       z     vdW  Elec       q    Type
REMARK                         _______ _______ _______ _____ _____    ______ ____
ROOT
ATOM      1  C   UNL     1       2.911   5.396  19.103  0.00  0.00    +0.000 A 
ATOM      2  C   UNL     1       2.421   4.464  18.205  0.00  0.00    +0.000 A 
ATOM      3  C   UNL     1       3.521   4.002  17.437  0.00  0.00    +0.000 A 
ATOM      4  C   UNL     1       4.620   4.709  17.874  0.00  0.00    +0.000 A 
ATOM      5  O   UNL     1       4.244   5.583  18.847  0.00  0.00    +0.000 OA
ENDROOT
BRANCH   1   7
ATOM      6  N   UNL     1       1.923   7.503  19.984  0.00  0.00    +0.000 N 
ATOM      7  C   UNL     1       2.225   6.129  20.162  0.00  0.00    +0.000 C 
ATOM      8  O   UNL     1       1.968   5.572  21.237  0.00  0.00    +0.000 OA
BRANCH   6  10
ATOM      9  C   UNL     1      -0.091   8.214  21.271  0.00  0.00    +0.000 C 
ATOM     10  C   UNL     1       1.426   8.238  21.152  0.00  0.00    +0.000 C 
ENDBRANCH   6  10
BRANCH   6  11
ATOM     11  C   UNL     1       2.274   8.215  18.747  0.00  0.00    +0.000 C 
ATOM     12  C   UNL     1       1.264   9.162  18.126  0.00  0.00    +0.000 C 
ENDBRANCH   6  11
ENDBRANCH   1   7
BRANCH   4  13
ATOM     13  C   UNL     1       6.055   4.727  17.502  0.00  0.00    +0.000 C 
BRANCH  13  14
ATOM     14  S   UNL     1       6.317   5.993  16.264  0.00  0.00    +0.000 S 
ATOM     15  O   UNL     1       5.119   6.806  16.133  0.00  0.00    +0.000 OA
ATOM     16  O   UNL     1       7.614   6.610  16.480  0.00  0.00    +0.000 OA
BRANCH  14  17
ATOM     17  C   UNL     1       6.457   5.048  14.753  0.00  0.00    +0.000 A 
ATOM     18  C   UNL     1       5.468   4.121  14.421  0.00  0.00    +0.000 A 
ATOM     19  C   UNL     1       5.580   3.396  13.231  0.00  0.00    +0.000 A 
ATOM     20  C   UNL     1       6.651   3.614  12.360  0.00  0.00    +0.000 A 
ATOM     21  C   UNL     1       7.627   4.558  12.691  0.00  0.00    +0.000 A 
ATOM     22  C   UNL     1       7.528   5.283  13.885  0.00  0.00    +0.000 A 
BRANCH  20  23
ATOM     23  O   UNL     1       6.656   2.824  11.244  0.00  0.00    +0.000 OA
ATOM     24  C   UNL     1       5.989   1.574  11.352  0.00  0.00    +0.000 C 
ENDBRANCH  20  23
ENDBRANCH  14  17
ENDBRANCH  13  14
ENDBRANCH   4  13
TORSDOF 7
ENDMDL
MODEL 8
REMARK VINA RESULT:      -6.3      4.052      6.698
REMARK  Name = 
REMARK  10 active torsions:
REMARK  status: ('A' for Active; 'I' for Inactive)
REMARK    1  A    between atoms: C_1  and  C_2
REMARK    2  A    between atoms: C_2  and  N_3
REMARK    3  A    between atoms: N_3  and  C_4
REMARK    4  A    between atoms: C_4  and  C_5
REMARK    5  A    between atoms: C_6  and  C_8
REMARK    6  A    between atoms: C_11  and  C_12
REMARK    7  A    between atoms: C_12  and  S_13
REMARK    8  A    between atoms: S_13  and  C_16
REMARK    9  A    between atoms: C_19  and  O_20
REMARK   10  A    between atoms: O_20  and  C_21
REMARK                            x       y       z     vdW  Elec       q    Type
REMARK                         _______ _______ _______ _____ _____    ______ ____
ROOT
ATOM      1  C   UNL     1       3.123   6.544  18.898  0.00  0.00    +0.000 A 
ATOM      2  C   UNL     1       3.069   7.372  17.790  0.00  0.00    +0.000 A 
ATOM      3  C   UNL     1       2.296   8.506  18.152  0.00  0.00    +0.000 A 
ATOM      4  C   UNL     1       1.880   8.291  19.447  0.00  0.00    +0.000 A 
ATOM      5  O   UNL     1       2.340   7.087  19.882  0.00  0.00    +0.000 OA
ENDROOT
BRANCH   1   7
ATOM      6  N   UNL     1       3.113   4.066  19.129  0.00  0.00    +0.000 N 
ATOM      7  C   UNL     1       3.837   5.286  19.093  0.00  0.00    +0.000 C 
ATOM      8  O   UNL     1       5.058   5.288  19.293  0.00  0.00    +0.000 OA
BRANCH   6  10
ATOM      9  C   UNL     1       3.596   1.673  18.619  0.00  0.00    +0.000 C 
ATOM     10  C   UNL     1       3.847   2.863  19.535  0.00  0.00    +0.000 C 
ENDBRANCH   6  10
BRANCH   6  11
ATOM     11  C   UNL     1       1.654   4.031  18.962  0.00  0.00    +0.000 C 
ATOM     12  C   UNL     1       0.777   3.760  20.170  0.00  0.00    +0.000 C 
ENDBRANCH   6  11
ENDBRANCH   1   7
BRANCH   4  13
ATOM     13  C   UNL     1       1.053   9.058  20.411  0.00  0.00    +0.000 C 
BRANCH  13  14
ATOM     14  S   UNL     1       0.364  10.484  19.576  0.00  0.00    +0.000 S 
ATOM     15  O   UNL     1       1.399  11.486  19.383  0.00  0.00    +0.000 OA
ATOM     16  O   UNL     1      -0.454  10.036  18.464  0.00  0.00    +0.000 OA
BRANCH  14  17
ATOM     17  C   UNL     1      -0.765  11.149  20.794  0.00  0.00    +0.000 A 
ATOM     18  C   UNL     1      -0.593  10.835  22.142  0.00  0.00    +0.000 A 
ATOM     19  C   UNL     1      -1.473  11.370  23.087  0.00  0.00    +0.000 A 
ATOM     20  C   UNL     1      -2.498  12.237  22.698  0.00  0.00    +0.000 A 
ATOM     21  C   UNL     1      -2.651  12.561  21.348  0.00  0.00    +0.000 A 
ATOM     22  C   UNL     1      -1.779  12.023  20.393  0.00  0.00    +0.000 A 
BRANCH  20  23
ATOM     23  O   UNL     1      -3.303  12.671  23.715  0.00  0.00    +0.000 OA
ATOM     24  C   UNL     1      -3.017  13.958  24.242  0.00  0.00    +0.000 C 
ENDBRANCH  20  23
ENDBRANCH  14  17
ENDBRANCH  13  14
ENDBRANCH   4  13
TORSDOF 7
ENDMDL
MODEL 9
REMARK VINA RESULT:      -6.3      2.595      5.925
REMARK  Name = 
REMARK  10 active torsions:
REMARK  status: ('A' for Active; 'I' for Inactive)
REMARK    1  A    between atoms: C_1  and  C_2
REMARK    2  A    between atoms: C_2  and  N_3
REMARK    3  A    between atoms: N_3  and  C_4
REMARK    4  A    between atoms: C_4  and  C_5
REMARK    5  A    between atoms: C_6  and  C_8
REMARK    6  A    between atoms: C_11  and  C_12
REMARK    7  A    between atoms: C_12  and  S_13
REMARK    8  A    between atoms: S_13  and  C_16
REMARK    9  A    between atoms: C_19  and  O_20
REMARK   10  A    between atoms: O_20  and  C_21
REMARK                            x       y       z     vdW  Elec       q    Type
REMARK                         _______ _______ _______ _____ _____    ______ ____
ROOT
ATOM      1  C   UNL     1       2.205   6.826  19.663  0.00  0.00    +0.000 A 
ATOM      2  C   UNL     1       1.527   6.137  20.653  0.00  0.00    +0.000 A 
ATOM      3  C   UNL     1       2.156   4.872  20.788  0.00  0.00    +0.000 A 
ATOM      4  C   UNL     1       3.156   4.835  19.842  0.00  0.00    +0.000 A 
ATOM      5  O   UNL     1       3.157   5.996  19.132  0.00  0.00    +0.000 OA
ENDROOT
BRANCH   1   7
ATOM      6  N   UNL     1       1.191   9.087  19.894  0.00  0.00    +0.000 N 
ATOM      7  C   UNL     1       2.018   8.188  19.172  0.00  0.00    +0.000 C 
ATOM      8  O   UNL     1       2.524   8.537  18.098  0.00  0.00    +0.000 OA
BRANCH   6  10
ATOM      9  C   UNL     1      -0.571  10.800  19.471  0.00  0.00    +0.000 C 
ATOM     10  C   UNL     1       0.870  10.366  19.251  0.00  0.00    +0.000 C 
ENDBRANCH   6  10
BRANCH   6  11
ATOM     11  C   UNL     1       0.520   8.687  21.138  0.00  0.00    +0.000 C 
ATOM     12  C   UNL     1       1.046   9.208  22.463  0.00  0.00    +0.000 C 
ENDBRANCH   6  11
ENDBRANCH   1   7
BRANCH   4  13
ATOM     13  C   UNL     1       4.169   3.828  19.444  0.00  0.00    +0.000 C 
BRANCH  13  14
ATOM     14  S   UNL     1       3.750   3.196  17.822  0.00  0.00    +0.000 S 
ATOM     15  O   UNL     1       3.927   1.753  17.797  0.00  0.00    +0.000 OA
ATOM     16  O   UNL     1       2.505   3.800  17.383  0.00  0.00    +0.000 OA
BRANCH  14  17
ATOM     17  C   UNL     1       5.034   3.883  16.784  0.00  0.00    +0.000 A 
ATOM     18  C   UNL     1       4.817   4.020  15.413  0.00  0.00    +0.000 A 
ATOM     19  C   UNL     1       5.821   4.571  14.612  0.00  0.00    +0.000 A 
ATOM     20  C   UNL     1       7.022   5.012  15.175  0.00  0.00    +0.000 A 
ATOM     21  C   UNL     1       7.224   4.887  16.552  0.00  0.00    +0.000 A 
ATOM     22  C   UNL     1       6.227   4.329  17.361  0.00  0.00    +0.000 A 
BRANCH  20  23
ATOM     23  O   UNL     1       7.931   5.507  14.281  0.00  0.00    +0.000 OA
ATOM     24  C   UNL     1       7.764   5.110  12.927  0.00  0.00    +0.000 C 
ENDBRANCH  20  23
ENDBRANCH  14  17
ENDBRANCH  13  14
ENDBRANCH   4  13
TORSDOF 7
ENDMDL
