MODEL 1
REMARK VINA RESULT:      -7.4      0.000      0.000
REMARK  Name = 
REMARK  9 active torsions:
REMARK  status: ('A' for Active; 'I' for Inactive)
REMARK    1  A    between atoms: C_1  and  O_2
REMARK    2  A    between atoms: O_2  and  C_3
REMARK    3  A    between atoms: C_5  and  C_6
REMARK    4  A    between atoms: C_6  and  C_8
REMARK    5  A    between atoms: C_16  and  C_17
REMARK    6  A    between atoms: C_19  and  O_20
REMARK    7  A    between atoms: O_20  and  C_21
REMARK    8  A    between atoms: C_22  and  O_23
REMARK    9  A    between atoms: O_23  and  C_24
REMARK                            x       y       z     vdW  Elec       q    Type
REMARK                         _______ _______ _______ _____ _____    ______ ____
ROOT
ATOM      1  C   UNL     1       1.547   9.205  18.769  0.00  0.00    +0.000 A 
ATOM      2  C   UNL     1       2.178   7.964  19.006  0.00  0.00    +0.000 A 
ATOM      3  C   UNL     1       1.876   7.201  20.142  0.00  0.00    +0.000 A 
ATOM      4  C   UNL     1       1.050   7.767  21.115  0.00  0.00    +0.000 A 
ATOM      5  C   UNL     1       0.394   8.980  20.889  0.00  0.00    +0.000 A 
ATOM      6  C   UNL     1       0.634   9.720  19.715  0.00  0.00    +0.000 A 
ENDROOT
BRANCH   1   8
ATOM      7  C   UNL     1       2.487  11.192  17.818  0.00  0.00    +0.000 C 
ATOM      8  O   UNL     1       1.808   9.952  17.651  0.00  0.00    +0.000 OA
ENDBRANCH   1   8
BRANCH   3   9
ATOM      9  C   UNL     1       2.392   5.784  20.242  0.00  0.00    +0.000 C 
ATOM     10  O   UNL     1       2.033   5.106  21.212  0.00  0.00    +0.000 OA
BRANCH   9  11
ATOM     11  C   UNL     1       3.335   5.305  19.232  0.00  0.00    +0.000 A 
ATOM     12  O   UNL     1       4.673   5.489  19.459  0.00  0.00    +0.000 OA
ATOM     13  C   UNL     1       5.359   5.073  18.376  0.00  0.00    +0.000 A 
ATOM     14  C   UNL     1       6.741   5.144  18.237  0.00  0.00    +0.000 A 
ATOM     15  C   UNL     1       7.265   4.681  17.030  0.00  0.00    +0.000 A 
ATOM     16  C   UNL     1       6.427   4.192  16.025  0.00  0.00    +0.000 A 
ATOM     17  C   UNL     1       5.035   4.118  16.211  0.00  0.00    +0.000 A 
ATOM     18  C   UNL     1       4.490   4.562  17.429  0.00  0.00    +0.000 A 
ATOM     19  C   UNL     1       3.186   4.608  18.032  0.00  0.00    +0.000 A 
ATOM     20  C   UNL     1       1.949   4.004  17.473  0.00  0.00    +0.000 C 
ENDBRANCH   9  11
ENDBRANCH   3   9
BRANCH   5  21
ATOM     21  O   UNL     1      -0.442   9.350  21.916  0.00  0.00    +0.000 OA
ATOM     22  C   UNL     1       0.186   9.499  23.188  0.00  0.00    +0.000 C 
ENDBRANCH   5  21
BRANCH   6  23
ATOM     23  O   UNL     1      -0.035  10.913  19.654  0.00  0.00    +0.000 OA
ATOM     24  C   UNL     1      -1.259  11.028  18.950  0.00  0.00    +0.000 C 
ENDBRANCH   6  23
TORSDOF 5
ENDMDL
MODEL 2
REMARK VINA RESULT:      -7.3      2.661      7.258
REMARK  Name = 
REMARK  9 active torsions:
REMARK  status: ('A' for Active; 'I' for Inactive)
REMARK    1  A    between atoms: C_1  and  O_2
REMARK    2  A    between atoms: O_2  and  C_3
REMARK    3  A    between atoms: C_5  and  C_6
REMARK    4  A    between atoms: C_6  and  C_8
REMARK    5  A    between atoms: C_16  and  C_17
REMARK    6  A    between atoms: C_19  and  O_20
REMARK    7  A    between atoms: O_20  and  C_21
REMARK    8  A    between atoms: C_22  and  O_23
REMARK    9  A    between atoms: O_23  and  C_24
REMARK                            x       y       z     vdW  Elec       q    Type
REMARK                         _______ _______ _______ _____ _____    ______ ____
ROOT
ATOM      1  C   UNL     1       6.129   4.063  14.690  0.00  0.00    +0.000 A 
ATOM      2  C   UNL     1       5.192   3.704  15.684  0.00  0.00    +0.000 A 
ATOM      3  C   UNL     1       5.120   4.399  16.898  0.00  0.00    +0.000 A 
ATOM      4  C   UNL     1       6.097   5.359  17.167  0.00  0.00    +0.000 A 
ATOM      5  C   UNL     1       7.015   5.749  16.188  0.00  0.00    +0.000 A 
ATOM      6  C   UNL     1       7.048   5.106  14.936  0.00  0.00    +0.000 A 
ENDROOT
BRANCH   1   8
ATOM      7  C   UNL     1       5.063   3.476  12.626  0.00  0.00    +0.000 C 
ATOM      8  O   UNL     1       6.197   3.413  13.485  0.00  0.00    +0.000 OA
ENDBRANCH   1   8
BRANCH   3   9
ATOM      9  C   UNL     1       3.961   4.140  17.833  0.00  0.00    +0.000 C 
ATOM     10  O   UNL     1       3.645   2.963  18.048  0.00  0.00    +0.000 OA
BRANCH   9  11
ATOM     11  C   UNL     1       3.229   5.281  18.382  0.00  0.00    +0.000 A 
ATOM     12  O   UNL     1       2.983   6.346  17.559  0.00  0.00    +0.000 OA
ATOM     13  C   UNL     1       2.392   7.323  18.276  0.00  0.00    +0.000 A 
ATOM     14  C   UNL     1       2.031   8.568  17.774  0.00  0.00    +0.000 A 
ATOM     15  C   UNL     1       1.449   9.455  18.681  0.00  0.00    +0.000 A 
ATOM     16  C   UNL     1       1.265   9.095  20.017  0.00  0.00    +0.000 A 
ATOM     17  C   UNL     1       1.626   7.819  20.483  0.00  0.00    +0.000 A 
ATOM     18  C   UNL     1       2.196   6.904  19.580  0.00  0.00    +0.000 A 
ATOM     19  C   UNL     1       2.636   5.536  19.620  0.00  0.00    +0.000 A 
ATOM     20  C   UNL     1       2.459   4.600  20.759  0.00  0.00    +0.000 C 
ENDBRANCH   9  11
ENDBRANCH   3   9
BRANCH   5  21
ATOM     21  O   UNL     1       7.853   6.761  16.595  0.00  0.00    +0.000 OA
ATOM     22  C   UNL     1       7.460   7.431  17.791  0.00  0.00    +0.000 C 
ENDBRANCH   5  21
BRANCH   6  23
ATOM     23  O   UNL     1       8.034   5.555  14.097  0.00  0.00    +0.000 OA
ATOM     24  C   UNL     1       7.873   5.504  12.691  0.00  0.00    +0.000 C 
ENDBRANCH   6  23
TORSDOF 5
ENDMDL
MODEL 3
REMARK VINA RESULT:      -7.2      1.884      7.136
REMARK  Name = 
REMARK  9 active torsions:
REMARK  status: ('A' for Active; 'I' for Inactive)
REMARK    1  A    between atoms: C_1  and  O_2
REMARK    2  A    between atoms: O_2  and  C_3
REMARK    3  A    between atoms: C_5  and  C_6
REMARK    4  A    between atoms: C_6  and  C_8
REMARK    5  A    between atoms: C_16  and  C_17
REMARK    6  A    between atoms: C_19  and  O_20
REMARK    7  A    between atoms: O_20  and  C_21
REMARK    8  A    between atoms: C_22  and  O_23
REMARK    9  A    between atoms: O_23  and  C_24
REMARK                            x       y       z     vdW  Elec       q    Type
REMARK                         _______ _______ _______ _____ _____    ______ ____
ROOT
ATOM      1  C   UNL     1       4.811   4.897  18.775  0.00  0.00    +0.000 A 
ATOM      2  C   UNL     1       4.349   6.208  18.526  0.00  0.00    +0.000 A 
ATOM      3  C   UNL     1       3.014   6.454  18.179  0.00  0.00    +0.000 A 
ATOM      4  C   UNL     1       2.185   5.359  17.935  0.00  0.00    +0.000 A 
ATOM      5  C   UNL     1       2.612   4.055  18.201  0.00  0.00    +0.000 A 
ATOM      6  C   UNL     1       3.932   3.803  18.622  0.00  0.00    +0.000 A 
ENDROOT
BRANCH   1   8
ATOM      7  C   UNL     1       7.032   5.719  19.133  0.00  0.00    +0.000 C 
ATOM      8  O   UNL     1       6.105   4.638  19.143  0.00  0.00    +0.000 OA
ENDBRANCH   1   8
BRANCH   3   9
ATOM      9  C   UNL     1       2.507   7.877  18.150  0.00  0.00    +0.000 C 
ATOM     10  O   UNL     1       2.820   8.583  17.184  0.00  0.00    +0.000 OA
BRANCH   9  11
ATOM     11  C   UNL     1       1.731   8.372  19.287  0.00  0.00    +0.000 A 
ATOM     12  O   UNL     1       1.126   9.595  19.173  0.00  0.00    +0.000 OA
ATOM     13  C   UNL     1       0.552   9.908  20.351  0.00  0.00    +0.000 A 
ATOM     14  C   UNL     1      -0.122  11.096  20.614  0.00  0.00    +0.000 A 
ATOM     15  C   UNL     1      -0.630  11.245  21.905  0.00  0.00    +0.000 A 
ATOM     16  C   UNL     1      -0.447  10.249  22.867  0.00  0.00    +0.000 A 
ATOM     17  C   UNL     1       0.223   9.053  22.556  0.00  0.00    +0.000 A 
ATOM     18  C   UNL     1       0.726   8.876  21.255  0.00  0.00    +0.000 A 
ATOM     19  C   UNL     1       1.394   7.831  20.529  0.00  0.00    +0.000 A 
ATOM     20  C   UNL     1       1.640   6.451  21.022  0.00  0.00    +0.000 C 
ENDBRANCH   9  11
ENDBRANCH   3   9
BRANCH   5  21
ATOM     21  O   UNL     1       1.642   3.105  17.981  0.00  0.00    +0.000 OA
ATOM     22  C   UNL     1       0.751   2.881  19.072  0.00  0.00    +0.000 C 
ENDBRANCH   5  21
BRANCH   6  23
ATOM     23  O   UNL     1       4.225   2.475  18.792  0.00  0.00    +0.000 OA
ATOM     24  C   UNL     1       4.354   1.918  20.088  0.00  0.00    +0.000 C 
ENDBRANCH   6  23
TORSDOF 5
ENDMDL
MODEL 4
REMARK VINA RESULT:      -7.1      1.847      7.362
REMARK  Name = 
REMARK  9 active torsions:
REMARK  status: ('A' for Active; 'I' for Inactive)
REMARK    1  A    between atoms: C_1  and  O_2
REMARK    2  A    between atoms: O_2  and  C_3
REMARK    3  A    between atoms: C_5  and  C_6
REMARK    4  A    between atoms: C_6  and  C_8
REMARK    5  A    between atoms: C_16  and  C_17
REMARK    6  A    between atoms: C_19  and  O_20
REMARK    7  A    between atoms: O_20  and  C_21
REMARK    8  A    between atoms: C_22  and  O_23
REMARK    9  A    between atoms: O_23  and  C_24
REMARK                            x       y       z     vdW  Elec       q    Type
REMARK                         _______ _______ _______ _____ _____    ______ ____
ROOT
ATOM      1  C   UNL     1       2.433   4.253  18.217  0.00  0.00    +0.000 A 
ATOM      2  C   UNL     1       1.950   5.578  18.144  0.00  0.00    +0.000 A 
ATOM      3  C   UNL     1       2.751   6.665  18.519  0.00  0.00    +0.000 A 
ATOM      4  C   UNL     1       3.986   6.399  19.111  0.00  0.00    +0.000 A 
ATOM      5  C   UNL     1       4.495   5.098  19.168  0.00  0.00    +0.000 A 
ATOM      6  C   UNL     1       3.726   4.005  18.725  0.00  0.00    +0.000 A 
ENDROOT
BRANCH   1   8
ATOM      7  C   UNL     1       0.842   2.561  18.805  0.00  0.00    +0.000 C 
ATOM      8  O   UNL     1       1.674   3.180  17.829  0.00  0.00    +0.000 OA
ENDBRANCH   1   8
BRANCH   3   9
ATOM      9  C   UNL     1       2.287   8.070  18.209  0.00  0.00    +0.000 C 
ATOM     10  O   UNL     1       2.531   8.523  17.084  0.00  0.00    +0.000 OA
BRANCH   9  11
ATOM     11  C   UNL     1       1.636   8.846  19.264  0.00  0.00    +0.000 A 
ATOM     12  O   UNL     1       1.357   8.218  20.448  0.00  0.00    +0.000 OA
ATOM     13  C   UNL     1       0.676   9.069  21.241  0.00  0.00    +0.000 A 
ATOM     14  C   UNL     1       0.194   8.758  22.508  0.00  0.00    +0.000 A 
ATOM     15  C   UNL     1      -0.508   9.768  23.166  0.00  0.00    +0.000 A 
ATOM     16  C   UNL     1      -0.717  11.009  22.559  0.00  0.00    +0.000 A 
ATOM     17  C   UNL     1      -0.197  11.291  21.284  0.00  0.00    +0.000 A 
ATOM     18  C   UNL     1       0.530  10.293  20.613  0.00  0.00    +0.000 A 
ATOM     19  C   UNL     1       1.253  10.183  19.375  0.00  0.00    +0.000 A 
ATOM     20  C   UNL     1       1.538  11.297  18.435  0.00  0.00    +0.000 C 
ENDBRANCH   9  11
ENDBRANCH   3   9
BRANCH   5  21
ATOM     21  O   UNL     1       5.758   5.027  19.710  0.00  0.00    +0.000 OA
ATOM     22  C   UNL     1       6.794   5.597  18.913  0.00  0.00    +0.000 C 
ENDBRANCH   5  21
BRANCH   6  23
ATOM     23  O   UNL     1       4.330   2.787  18.891  0.00  0.00    +0.000 OA
ATOM     24  C   UNL     1       4.315   2.132  20.147  0.00  0.00    +0.000 C 
ENDBRANCH   6  23
TORSDOF 5
ENDMDL
MODEL 5
REMARK VINA RESULT:      -7.1      2.612      7.412
REMARK  Name = 
REMARK  9 active torsions:
REMARK  status: ('A' for Active; 'I' for Inactive)
REMARK    1  A    between atoms: C_1  and  O_2
REMARK    2  A    between atoms: O_2  and  C_3
REMARK    3  A    between atoms: C_5  and  C_6
REMARK    4  A    between atoms: C_6  and  C_8
REMARK    5  A    between atoms: C_16  and  C_17
REMARK    6  A    between atoms: C_19  and  O_20
REMARK    7  A    between atoms: O_20  and  C_21
REMARK    8  A    between atoms: C_22  and  O_23
REMARK    9  A    between atoms: O_23  and  C_24
REMARK                            x       y       z     vdW  Elec       q    Type
REMARK                         _______ _______ _______ _____ _____    ______ ____
ROOT
ATOM      1  C   UNL     1       6.873   5.955  16.288  0.00  0.00    +0.000 A 
ATOM      2  C   UNL     1       5.717   5.776  17.077  0.00  0.00    +0.000 A 
ATOM      3  C   UNL     1       4.787   4.770  16.784  0.00  0.00    +0.000 A 
ATOM      4  C   UNL     1       4.950   4.045  15.602  0.00  0.00    +0.000 A 
ATOM      5  C   UNL     1       6.100   4.188  14.822  0.00  0.00    +0.000 A 
ATOM      6  C   UNL     1       7.079   5.146  15.149  0.00  0.00    +0.000 A 
ENDROOT
BRANCH   1   8
ATOM      7  C   UNL     1       7.817   7.471  17.884  0.00  0.00    +0.000 C 
ATOM      8  O   UNL     1       7.808   6.915  16.574  0.00  0.00    +0.000 OA
ENDBRANCH   1   8
BRANCH   3   9
ATOM      9  C   UNL     1       3.692   4.460  17.779  0.00  0.00    +0.000 C 
ATOM     10  O   UNL     1       3.405   3.272  17.971  0.00  0.00    +0.000 OA
BRANCH   9  11
ATOM     11  C   UNL     1       2.983   5.570  18.416  0.00  0.00    +0.000 A 
ATOM     12  O   UNL     1       2.701   6.674  17.658  0.00  0.00    +0.000 OA
ATOM     13  C   UNL     1       2.140   7.612  18.447  0.00  0.00    +0.000 A 
ATOM     14  C   UNL     1       1.757   8.880  18.024  0.00  0.00    +0.000 A 
ATOM     15  C   UNL     1       1.213   9.718  18.997  0.00  0.00    +0.000 A 
ATOM     16  C   UNL     1       1.085   9.290  20.321  0.00  0.00    +0.000 A 
ATOM     17  C   UNL     1       1.466   7.993  20.706  0.00  0.00    +0.000 A 
ATOM     18  C   UNL     1       1.999   7.127  19.735  0.00  0.00    +0.000 A 
ATOM     19  C   UNL     1       2.442   5.761  19.688  0.00  0.00    +0.000 A 
ATOM     20  C   UNL     1       2.313   4.767  20.785  0.00  0.00    +0.000 C 
ENDBRANCH   9  11
ENDBRANCH   3   9
BRANCH   5  21
ATOM     21  O   UNL     1       6.134   3.341  13.738  0.00  0.00    +0.000 OA
ATOM     22  C   UNL     1       5.107   3.549  12.771  0.00  0.00    +0.000 C 
ENDBRANCH   5  21
BRANCH   6  23
ATOM     23  O   UNL     1       8.123   5.211  14.265  0.00  0.00    +0.000 OA
ATOM     24  C   UNL     1       7.936   5.706  12.951  0.00  0.00    +0.000 C 
ENDBRANCH   6  23
TORSDOF 5
ENDMDL
MODEL 6
REMARK VINA RESULT:      -6.9      2.490      5.197
REMARK  Name = 
REMARK  9 active torsions:
REMARK  status: ('A' for Active; 'I' for Inactive)
REMARK    1  A    between atoms: C_1  and  O_2
REMARK    2  A    between atoms: O_2  and  C_3
REMARK    3  A    between atoms: C_5  and  C_6
REMARK    4  A    between atoms: C_6  and  C_8
REMARK    5  A    between atoms: C_16  and  C_17
REMARK    6  A    between atoms: C_19  and  O_20
REMARK    7  A    between atoms: O_20  and  C_21
REMARK    8  A    between atoms: C_22  and  O_23
REMARK    9  A    between atoms: O_23  and  C_24
REMARK                            x       y       z     vdW  Elec       q    Type
REMARK                         _______ _______ _______ _____ _____    ______ ____
ROOT
ATOM      1  C   UNL     1       2.967   6.278  19.179  0.00  0.00    +0.000 A 
ATOM      2  C   UNL     1       4.165   6.561  18.486  0.00  0.00    +0.000 A 
ATOM      3  C   UNL     1       5.222   5.642  18.458  0.00  0.00    +0.000 A 
ATOM      4  C   UNL     1       5.126   4.502  19.258  0.00  0.00    +0.000 A 
ATOM      5  C   UNL     1       3.941   4.189  19.929  0.00  0.00    +0.000 A 
ATOM      6  C   UNL     1       2.844   5.072  19.903  0.00  0.00    +0.000 A 
ENDROOT
BRANCH   1   8
ATOM      7  C   UNL     1       1.773   8.011  20.321  0.00  0.00    +0.000 C 
ATOM      8  O   UNL     1       1.912   7.151  19.195  0.00  0.00    +0.000 OA
ENDBRANCH   1   8
BRANCH   3   9
ATOM      9  C   UNL     1       6.384   5.878  17.521  0.00  0.00    +0.000 C 
ATOM     10  O   UNL     1       7.278   6.647  17.893  0.00  0.00    +0.000 OA
BRANCH   9  11
ATOM     11  C   UNL     1       6.367   5.245  16.202  0.00  0.00    +0.000 A 
ATOM     12  O   UNL     1       7.354   5.576  15.314  0.00  0.00    +0.000 OA
ATOM     13  C   UNL     1       7.103   4.967  14.138  0.00  0.00    +0.000 A 
ATOM     14  C   UNL     1       7.878   5.106  12.992  0.00  0.00    +0.000 A 
ATOM     15  C   UNL     1       7.442   4.411  11.864  0.00  0.00    +0.000 A 
ATOM     16  C   UNL     1       6.280   3.637  11.903  0.00  0.00    +0.000 A 
ATOM     17  C   UNL     1       5.534   3.506  13.087  0.00  0.00    +0.000 A 
ATOM     18  C   UNL     1       5.968   4.184  14.240  0.00  0.00    +0.000 A 
ATOM     19  C   UNL     1       5.554   4.275  15.613  0.00  0.00    +0.000 A 
ATOM     20  C   UNL     1       4.485   3.466  16.254  0.00  0.00    +0.000 C 
ENDBRANCH   9  11
ENDBRANCH   3   9
BRANCH   5  21
ATOM     21  O   UNL     1       3.994   2.991  20.604  0.00  0.00    +0.000 OA
ATOM     22  C   UNL     1       4.262   1.848  19.794  0.00  0.00    +0.000 C 
ENDBRANCH   5  21
BRANCH   6  23
ATOM     23  O   UNL     1       1.771   4.661  20.649  0.00  0.00    +0.000 OA
ATOM     24  C   UNL     1       0.822   3.752  20.122  0.00  0.00    +0.000 C 
ENDBRANCH   6  23
TORSDOF 5
ENDMDL
MODEL 7
REMARK VINA RESULT:      -6.9      2.482      5.023
REMARK  Name = 
REMARK  9 active torsions:
REMARK  status: ('A' for Active; 'I' for Inactive)
REMARK    1  A    between atoms: C_1  and  O_2
REMARK    2  A    between atoms: O_2  and  C_3
REMARK    3  A    between atoms: C_5  and  C_6
REMARK    4  A    between atoms: C_6  and  C_8
REMARK    5  A    between atoms: C_16  and  C_17
REMARK    6  A    between atoms: C_19  and  O_20
REMARK    7  A    between atoms: O_20  and  C_21
REMARK    8  A    between atoms: C_22  and  O_23
REMARK    9  A    between atoms: O_23  and  C_24
REMARK                            x       y       z     vdW  Elec       q    Type
REMARK                         _______ _______ _______ _____ _____    ______ ____
ROOT
ATOM      1  C   UNL     1      -1.815  12.002  19.126  0.00  0.00    +0.000 A 
ATOM      2  C   UNL     1      -0.522  11.452  19.267  0.00  0.00    +0.000 A 
ATOM      3  C   UNL     1      -0.074  10.426  18.425  0.00  0.00    +0.000 A 
ATOM      4  C   UNL     1      -0.990   9.852  17.542  0.00  0.00    +0.000 A 
ATOM      5  C   UNL     1      -2.264  10.398  17.367  0.00  0.00    +0.000 A 
ATOM      6  C   UNL     1      -2.698  11.479  18.158  0.00  0.00    +0.000 A 
ENDROOT
BRANCH   1   8
ATOM      7  C   UNL     1      -2.759  12.699  21.215  0.00  0.00    +0.000 C 
ATOM      8  O   UNL     1      -2.261  13.025  19.921  0.00  0.00    +0.000 OA
ENDBRANCH   1   8
BRANCH   3   9
ATOM      9  C   UNL     1       1.384  10.028  18.453  0.00  0.00    +0.000 C 
ATOM     10  O   UNL     1       2.213  10.843  18.031  0.00  0.00    +0.000 OA
BRANCH   9  11
ATOM     11  C   UNL     1       1.739   8.684  18.911  0.00  0.00    +0.000 A 
ATOM     12  O   UNL     1       2.354   7.842  18.025  0.00  0.00    +0.000 OA
ATOM     13  C   UNL     1       2.505   6.635  18.605  0.00  0.00    +0.000 A 
ATOM     14  C   UNL     1       3.059   5.521  17.985  0.00  0.00    +0.000 A 
ATOM     15  C   UNL     1       3.109   4.352  18.745  0.00  0.00    +0.000 A 
ATOM     16  C   UNL     1       2.609   4.323  20.049  0.00  0.00    +0.000 A 
ATOM     17  C   UNL     1       2.074   5.476  20.648  0.00  0.00    +0.000 A 
ATOM     18  C   UNL     1       2.033   6.669  19.905  0.00  0.00    +0.000 A 
ATOM     19  C   UNL     1       1.640   8.031  20.141  0.00  0.00    +0.000 A 
ATOM     20  C   UNL     1       1.235   8.604  21.450  0.00  0.00    +0.000 C 
ENDBRANCH   9  11
ENDBRANCH   3   9
BRANCH   5  21
ATOM     21  O   UNL     1      -3.006   9.758  16.401  0.00  0.00    +0.000 OA
ATOM     22  C   UNL     1      -2.843  10.262  15.077  0.00  0.00    +0.000 C 
ENDBRANCH   5  21
BRANCH   6  23
ATOM     23  O   UNL     1      -3.988  11.873  17.914  0.00  0.00    +0.000 OA
ATOM     24  C   UNL     1      -5.073  11.287  18.610  0.00  0.00    +0.000 C 
ENDBRANCH   6  23
TORSDOF 5
ENDMDL
MODEL 8
REMARK VINA RESULT:      -6.8      2.509      5.050
REMARK  Name = 
REMARK  9 active torsions:
REMARK  status: ('A' for Active; 'I' for Inactive)
REMARK    1  A    between atoms: C_1  and  O_2
REMARK    2  A    between atoms: O_2  and  C_3
REMARK    3  A    between atoms: C_5  and  C_6
REMARK    4  A    between atoms: C_6  and  C_8
REMARK    5  A    between atoms: C_16  and  C_17
REMARK    6  A    between atoms: C_19  and  O_20
REMARK    7  A    between atoms: O_20  and  C_21
REMARK    8  A    between atoms: C_22  and  O_23
REMARK    9  A    between atoms: O_23  and  C_24
REMARK                            x       y       z     vdW  Elec       q    Type
REMARK                         _______ _______ _______ _____ _____    ______ ____
ROOT
ATOM      1  C   UNL     1      -2.474  10.218  17.253  0.00  0.00    +0.000 A 
ATOM      2  C   UNL     1      -1.091  10.241  17.537  0.00  0.00    +0.000 A 
ATOM      3  C   UNL     1      -0.589  10.933  18.648  0.00  0.00    +0.000 A 
ATOM      4  C   UNL     1      -1.471  11.728  19.382  0.00  0.00    +0.000 A 
ATOM      5  C   UNL     1      -2.846  11.698  19.136  0.00  0.00    +0.000 A 
ATOM      6  C   UNL     1      -3.369  10.946  18.066  0.00  0.00    +0.000 A 
ENDROOT
BRANCH   1   8
ATOM      7  C   UNL     1      -2.959  10.148  14.909  0.00  0.00    +0.000 C 
ATOM      8  O   UNL     1      -2.986   9.525  16.188  0.00  0.00    +0.000 OA
ENDBRANCH   1   8
BRANCH   3   9
ATOM      9  C   UNL     1       0.856  10.742  19.049  0.00  0.00    +0.000 C 
ATOM     10  O   UNL     1       1.589  11.739  19.057  0.00  0.00    +0.000 OA
BRANCH   9  11
ATOM     11  C   UNL     1       1.333   9.391  19.343  0.00  0.00    +0.000 A 
ATOM     12  O   UNL     1       2.103   8.760  18.403  0.00  0.00    +0.000 OA
ATOM     13  C   UNL     1       2.353   7.503  18.818  0.00  0.00    +0.000 A 
ATOM     14  C   UNL     1       3.076   6.559  18.098  0.00  0.00    +0.000 A 
ATOM     15  C   UNL     1       3.209   5.301  18.687  0.00  0.00    +0.000 A 
ATOM     16  C   UNL     1       2.627   5.025  19.927  0.00  0.00    +0.000 A 
ATOM     17  C   UNL     1       1.920   6.013  20.634  0.00  0.00    +0.000 A 
ATOM     18  C   UNL     1       1.791   7.293  20.065  0.00  0.00    +0.000 A 
ATOM     19  C   UNL     1       1.226   8.555  20.455  0.00  0.00    +0.000 A 
ATOM     20  C   UNL     1       0.667   8.880  21.792  0.00  0.00    +0.000 C 
ENDBRANCH   9  11
ENDBRANCH   3   9
BRANCH   5  21
ATOM     21  O   UNL     1      -3.575  12.478  20.003  0.00  0.00    +0.000 OA
ATOM     22  C   UNL     1      -2.842  13.519  20.646  0.00  0.00    +0.000 C 
ENDBRANCH   5  21
BRANCH   6  23
ATOM     23  O   UNL     1      -4.726  11.055  17.911  0.00  0.00    +0.000 OA
ATOM     24  C   UNL     1      -5.288  12.073  17.101  0.00  0.00    +0.000 C 
ENDBRANCH   6  23
TORSDOF 5
ENDMDL
MODEL 9
REMARK VINA RESULT:      -6.8      0.180      2.471
REMARK  Name = 
REMARK  9 active torsions:
REMARK  status: ('A' for Active; 'I' for Inactive)
REMARK    1  A    between atoms: C_1  and  O_2
REMARK    2  A    between atoms: O_2  and  C_3
REMARK    3  A    between atoms: C_5  and  C_6
REMARK    4  A    between atoms: C_6  and  C_8
REMARK    5  A    between atoms: C_16  and  C_17
REMARK    6  A    between atoms: C_19  and  O_20
REMARK    7  A    between atoms: O_20  and  C_21
REMARK    8  A    between atoms: C_22  and  O_23
REMARK    9  A    between atoms: O_23  and  C_24
REMARK                            x       y       z     vdW  Elec       q    Type
REMARK                         _______ _______ _______ _____ _____    ______ ____
ROOT
ATOM      1  C   UNL     1       0.464   8.924  20.949  0.00  0.00    +0.000 A 
ATOM      2  C   UNL     1       0.982   7.612  21.014  0.00  0.00    +0.000 A 
ATOM      3  C   UNL     1       1.822   7.113  20.010  0.00  0.00    +0.000 A 
ATOM      4  C   UNL     1       2.013   7.887  18.865  0.00  0.00    +0.000 A 
ATOM      5  C   UNL     1       1.533   9.197  18.791  0.00  0.00    +0.000 A 
ATOM      6  C   UNL     1       0.749   9.736  19.829  0.00  0.00    +0.000 A 
ENDROOT
BRANCH   1   8
ATOM      7  C   UNL     1       0.166   9.453  23.266  0.00  0.00    +0.000 C 
ATOM      8  O   UNL     1      -0.336   9.441  21.934  0.00  0.00    +0.000 OA
ENDBRANCH   1   8
BRANCH   3   9
ATOM      9  C   UNL     1       2.539   5.800  20.230  0.00  0.00    +0.000 C 
ATOM     10  O   UNL     1       2.362   5.218  21.307  0.00  0.00    +0.000 OA
BRANCH   9  11
ATOM     11  C   UNL     1       3.453   5.315  19.195  0.00  0.00    +0.000 A 
ATOM     12  O   UNL     1       4.797   5.485  19.390  0.00  0.00    +0.000 OA
ATOM     13  C   UNL     1       5.452   5.065  18.289  0.00  0.00    +0.000 A 
ATOM     14  C   UNL     1       6.831   5.124  18.117  0.00  0.00    +0.000 A 
ATOM     15  C   UNL     1       7.320   4.659  16.896  0.00  0.00    +0.000 A 
ATOM     16  C   UNL     1       6.453   4.182  15.911  0.00  0.00    +0.000 A 
ATOM     17  C   UNL     1       5.066   4.121  16.130  0.00  0.00    +0.000 A 
ATOM     18  C   UNL     1       4.555   4.566  17.362  0.00  0.00    +0.000 A 
ATOM     19  C   UNL     1       3.267   4.623  17.997  0.00  0.00    +0.000 A 
ATOM     20  C   UNL     1       2.011   4.034  17.467  0.00  0.00    +0.000 C 
ENDBRANCH   9  11
ENDBRANCH   3   9
BRANCH   5  21
ATOM     21  O   UNL     1       1.879   9.842  17.627  0.00  0.00    +0.000 OA
ATOM     22  C   UNL     1       2.569  11.079  17.799  0.00  0.00    +0.000 C 
ENDBRANCH   5  21
BRANCH   6  23
ATOM     23  O   UNL     1       0.302  11.010  19.596  0.00  0.00    +0.000 OA
ATOM     24  C   UNL     1      -0.976  11.242  19.033  0.00  0.00    +0.000 C 
ENDBRANCH   6  23
TORSDOF 5
ENDMDL
