MODEL 1
REMARK VINA RESULT:      -8.2      0.000      0.000
REMARK  Name = 
REMARK  5 active torsions:
REMARK  status: ('A' for Active; 'I' for Inactive)
REMARK    1  A    between atoms: C_1  and  C_2
REMARK    2  A    between atoms: N_5  and  C_6
REMARK    3  A    between atoms: C_6  and  C_7
REMARK    4  A    between atoms: C_6  and  C_8
REMARK    5  A    between atoms: C_8  and  N_9
REMARK                            x       y       z     vdW  Elec       q    Type
REMARK                         _______ _______ _______ _____ _____    ______ ____
ROOT
ATOM      1  C   UNL     1       7.702   6.873  18.086  0.00  0.00    +0.000 C 
ATOM      2  C   UNL     1       7.175   5.925  17.056  0.00  0.00    +0.000 A 
ATOM      3  N   UNL     1       6.218   5.062  17.425  0.00  0.00    +0.000 NA
ATOM      4  C   UNL     1       5.709   4.267  16.472  0.00  0.00    +0.000 A 
ATOM      5  N   UNL     1       4.667   3.382  16.822  0.00  0.00    +0.000 N 
ATOM      6  C   UNL     1       6.195   4.285  15.156  0.00  0.00    +0.000 A 
ATOM      7  C   UNL     1       5.735   3.468  14.093  0.00  0.00    +0.000 A 
ATOM      8  C   UNL     1       6.225   3.653  12.812  0.00  0.00    +0.000 A 
ATOM      9  C   UNL     1       7.181   4.627  12.640  0.00  0.00    +0.000 A 
ATOM     10  N   UNL     1       7.659   5.394  13.645  0.00  0.00    +0.000 NA
ATOM     11  C   UNL     1       7.181   5.237  14.880  0.00  0.00    +0.000 A 
ATOM     12  N   UNL     1       7.661   6.038  15.817  0.00  0.00    +0.000 NA
ATOM     13  H   UNL     1       4.048   3.244  16.029  0.00  0.00    +0.000 HD
ENDROOT
BRANCH   5  14
ATOM     14  C   UNL     1       3.896   3.715  18.033  0.00  0.00    +0.000 C 
ATOM     15  C   UNL     1       2.857   4.797  17.709  0.00  0.00    +0.000 C 
BRANCH  14  16
ATOM     16  C   UNL     1       3.154   2.456  18.523  0.00  0.00    +0.000 C 
BRANCH  16  17
ATOM     17  N   UNL     1       2.645   2.531  19.874  0.00  0.00    +0.000 N 
ATOM     18  C   UNL     1       3.329   2.565  21.048  0.00  0.00    +0.000 A 
ATOM     19  N   UNL     1       2.485   2.685  22.047  0.00  0.00    +0.000 NA
ATOM     20  C   UNL     1       1.273   2.721  21.420  0.00  0.00    +0.000 A 
ATOM     21  N   UNL     1       1.318   2.650  20.087  0.00  0.00    +0.000 NA
ENDBRANCH  16  17
ENDBRANCH  14  16
ENDBRANCH   5  14
TORSDOF 3
ENDMDL
MODEL 2
REMARK VINA RESULT:      -8.0      1.884      6.711
REMARK  Name = 
REMARK  5 active torsions:
REMARK  status: ('A' for Active; 'I' for Inactive)
REMARK    1  A    between atoms: C_1  and  C_2
REMARK    2  A    between atoms: N_5  and  C_6
REMARK    3  A    between atoms: C_6  and  C_7
REMARK    4  A    between atoms: C_6  and  C_8
REMARK    5  A    between atoms: C_8  and  N_9
REMARK                            x       y       z     vdW  Elec       q    Type
REMARK                         _______ _______ _______ _____ _____    ______ ____
ROOT
ATOM      1  C   UNL     1       2.687   7.899  17.830  0.00  0.00    +0.000 C 
ATOM      2  C   UNL     1       2.966   6.587  18.492  0.00  0.00    +0.000 A 
ATOM      3  N   UNL     1       4.175   6.036  18.314  0.00  0.00    +0.000 NA
ATOM      4  C   UNL     1       4.431   4.894  18.970  0.00  0.00    +0.000 A 
ATOM      5  N   UNL     1       5.712   4.318  18.840  0.00  0.00    +0.000 N 
ATOM      6  C   UNL     1       3.460   4.263  19.761  0.00  0.00    +0.000 A 
ATOM      7  C   UNL     1       3.634   3.047  20.471  0.00  0.00    +0.000 A 
ATOM      8  C   UNL     1       2.630   2.578  21.301  0.00  0.00    +0.000 A 
ATOM      9  C   UNL     1       1.475   3.321  21.372  0.00  0.00    +0.000 A 
ATOM     10  N   UNL     1       1.275   4.464  20.678  0.00  0.00    +0.000 NA
ATOM     11  C   UNL     1       2.241   4.935  19.889  0.00  0.00    +0.000 A 
ATOM     12  N   UNL     1       2.002   6.075  19.262  0.00  0.00    +0.000 NA
ATOM     13  H   UNL     1       5.963   3.832  19.695  0.00  0.00    +0.000 HD
ENDROOT
BRANCH   5  14
ATOM     14  C   UNL     1       6.800   5.215  18.412  0.00  0.00    +0.000 C 
ATOM     15  C   UNL     1       7.680   5.579  19.615  0.00  0.00    +0.000 C 
BRANCH  14  16
ATOM     16  C   UNL     1       7.674   4.490  17.369  0.00  0.00    +0.000 C 
BRANCH  16  17
ATOM     17  N   UNL     1       7.134   4.463  16.028  0.00  0.00    +0.000 N 
ATOM     18  C   UNL     1       6.095   3.739  15.536  0.00  0.00    +0.000 A 
ATOM     19  N   UNL     1       5.900   4.049  14.275  0.00  0.00    +0.000 NA
ATOM     20  C   UNL     1       6.862   4.987  14.038  0.00  0.00    +0.000 A 
ATOM     21  N   UNL     1       7.632   5.291  15.086  0.00  0.00    +0.000 NA
ENDBRANCH  16  17
ENDBRANCH  14  16
ENDBRANCH   5  14
TORSDOF 3
ENDMDL
MODEL 3
REMARK VINA RESULT:      -7.8      1.568      1.977
REMARK  Name = 
REMARK  5 active torsions:
REMARK  status: ('A' for Active; 'I' for Inactive)
REMARK    1  A    between atoms: C_1  and  C_2
REMARK    2  A    between atoms: N_5  and  C_6
REMARK    3  A    between atoms: C_6  and  C_7
REMARK    4  A    between atoms: C_6  and  C_8
REMARK    5  A    between atoms: C_8  and  N_9
REMARK                            x       y       z     vdW  Elec       q    Type
REMARK                         _______ _______ _______ _____ _____    ______ ____
ROOT
ATOM      1  C   UNL     1       8.048   8.009  18.161  0.00  0.00    +0.000 C 
ATOM      2  C   UNL     1       7.217   6.988  17.451  0.00  0.00    +0.000 A 
ATOM      3  N   UNL     1       6.033   6.658  17.986  0.00  0.00    +0.000 NA
ATOM      4  C   UNL     1       5.271   5.792  17.301  0.00  0.00    +0.000 A 
ATOM      5  N   UNL     1       4.000   5.463  17.817  0.00  0.00    +0.000 N 
ATOM      6  C   UNL     1       5.712   5.204  16.106  0.00  0.00    +0.000 A 
ATOM      7  C   UNL     1       4.986   4.266  15.329  0.00  0.00    +0.000 A 
ATOM      8  C   UNL     1       5.487   3.836  14.112  0.00  0.00    +0.000 A 
ATOM      9  C   UNL     1       6.711   4.332  13.726  0.00  0.00    +0.000 A 
ATOM     10  N   UNL     1       7.435   5.201  14.467  0.00  0.00    +0.000 NA
ATOM     11  C   UNL     1       6.954   5.636  15.632  0.00  0.00    +0.000 A 
ATOM     12  N   UNL     1       7.691   6.510  16.297  0.00  0.00    +0.000 NA
ATOM     13  H   UNL     1       3.356   5.268  17.055  0.00  0.00    +0.000 HD
ENDROOT
BRANCH   5  14
ATOM     14  C   UNL     1       3.406   6.417  18.770  0.00  0.00    +0.000 C 
ATOM     15  C   UNL     1       2.507   7.411  18.023  0.00  0.00    +0.000 C 
BRANCH  14  16
ATOM     16  C   UNL     1       2.542   5.645  19.787  0.00  0.00    +0.000 C 
BRANCH  16  17
ATOM     17  N   UNL     1       2.268   4.269  19.440  0.00  0.00    +0.000 N 
ATOM     18  C   UNL     1       2.670   3.130  20.063  0.00  0.00    +0.000 A 
ATOM     19  N   UNL     1       2.159   2.088  19.450  0.00  0.00    +0.000 NA
ATOM     20  C   UNL     1       1.437   2.651  18.439  0.00  0.00    +0.000 A 
ATOM     21  N   UNL     1       1.455   3.986  18.400  0.00  0.00    +0.000 NA
ENDBRANCH  16  17
ENDBRANCH  14  16
ENDBRANCH   5  14
TORSDOF 3
ENDMDL
MODEL 4
REMARK VINA RESULT:      -7.7      1.751      2.326
REMARK  Name = 
REMARK  5 active torsions:
REMARK  status: ('A' for Active; 'I' for Inactive)
REMARK    1  A    between atoms: C_1  and  C_2
REMARK    2  A    between atoms: N_5  and  C_6
REMARK    3  A    between atoms: C_6  and  C_7
REMARK    4  A    between atoms: C_6  and  C_8
REMARK    5  A    between atoms: C_8  and  N_9
REMARK                            x       y       z     vdW  Elec       q    Type
REMARK                         _______ _______ _______ _____ _____    ______ ____
ROOT
ATOM      1  C   UNL     1       8.110   5.685  19.941  0.00  0.00    +0.000 C 
ATOM      2  C   UNL     1       7.208   5.366  18.792  0.00  0.00    +0.000 A 
ATOM      3  N   UNL     1       5.884   5.431  18.994  0.00  0.00    +0.000 NA
ATOM      4  C   UNL     1       5.091   5.209  17.935  0.00  0.00    +0.000 A 
ATOM      5  N   UNL     1       3.695   5.317  18.108  0.00  0.00    +0.000 N 
ATOM      6  C   UNL     1       5.613   4.861  16.680  0.00  0.00    +0.000 A 
ATOM      7  C   UNL     1       4.852   4.588  15.515  0.00  0.00    +0.000 A 
ATOM      8  C   UNL     1       5.489   4.356  14.308  0.00  0.00    +0.000 A 
ATOM      9  C   UNL     1       6.865   4.375  14.310  0.00  0.00    +0.000 A 
ATOM     10  N   UNL     1       7.610   4.599  15.416  0.00  0.00    +0.000 NA
ATOM     11  C   UNL     1       7.007   4.841  16.580  0.00  0.00    +0.000 A 
ATOM     12  N   UNL     1       7.786   5.087  17.620  0.00  0.00    +0.000 NA
ATOM     13  H   UNL     1       3.263   5.642  17.248  0.00  0.00    +0.000 HD
ENDROOT
BRANCH   5  14
ATOM     14  C   UNL     1       3.231   6.113  19.258  0.00  0.00    +0.000 C 
ATOM     15  C   UNL     1       2.437   7.330  18.764  0.00  0.00    +0.000 C 
BRANCH  14  16
ATOM     16  C   UNL     1       2.304   5.247  20.133  0.00  0.00    +0.000 C 
BRANCH  16  17
ATOM     17  N   UNL     1       2.061   3.912  19.634  0.00  0.00    +0.000 N 
ATOM     18  C   UNL     1       0.965   3.419  18.999  0.00  0.00    +0.000 A 
ATOM     19  N   UNL     1       1.174   2.166  18.668  0.00  0.00    +0.000 NA
ATOM     20  C   UNL     1       2.436   1.933  19.132  0.00  0.00    +0.000 A 
ATOM     21  N   UNL     1       3.032   2.977  19.714  0.00  0.00    +0.000 NA
ENDBRANCH  16  17
ENDBRANCH  14  16
ENDBRANCH   5  14
TORSDOF 3
ENDMDL
MODEL 5
REMARK VINA RESULT:      -7.6      1.314      1.409
REMARK  Name = 
REMARK  5 active torsions:
REMARK  status: ('A' for Active; 'I' for Inactive)
REMARK    1  A    between atoms: C_1  and  C_2
REMARK    2  A    between atoms: N_5  and  C_6
REMARK    3  A    between atoms: C_6  and  C_7
REMARK    4  A    between atoms: C_6  and  C_8
REMARK    5  A    between atoms: C_8  and  N_9
REMARK                            x       y       z     vdW  Elec       q    Type
REMARK                         _______ _______ _______ _____ _____    ______ ____
ROOT
ATOM      1  C   UNL     1       7.827   6.026  19.297  0.00  0.00    +0.000 C 
ATOM      2  C   UNL     1       7.047   5.542  18.116  0.00  0.00    +0.000 A 
ATOM      3  N   UNL     1       5.739   5.302  18.281  0.00  0.00    +0.000 NA
ATOM      4  C   UNL     1       5.042   4.935  17.195  0.00  0.00    +0.000 A 
ATOM      5  N   UNL     1       3.653   4.721  17.329  0.00  0.00    +0.000 N 
ATOM      6  C   UNL     1       5.658   4.747  15.949  0.00  0.00    +0.000 A 
ATOM      7  C   UNL     1       5.007   4.341  14.757  0.00  0.00    +0.000 A 
ATOM      8  C   UNL     1       5.708   4.291  13.564  0.00  0.00    +0.000 A 
ATOM      9  C   UNL     1       7.044   4.618  13.607  0.00  0.00    +0.000 A 
ATOM     10  N   UNL     1       7.692   4.975  14.738  0.00  0.00    +0.000 NA
ATOM     11  C   UNL     1       7.023   5.044  15.890  0.00  0.00    +0.000 A 
ATOM     12  N   UNL     1       7.701   5.432  16.957  0.00  0.00    +0.000 NA
ATOM     13  H   UNL     1       3.179   4.963  16.464  0.00  0.00    +0.000 HD
ENDROOT
BRANCH   5  14
ATOM     14  C   UNL     1       2.994   5.362  18.481  0.00  0.00    +0.000 C 
ATOM     15  C   UNL     1       2.576   6.791  18.115  0.00  0.00    +0.000 C 
BRANCH  14  16
ATOM     16  C   UNL     1       1.730   4.561  18.851  0.00  0.00    +0.000 C 
BRANCH  16  17
ATOM     17  N   UNL     1       1.790   3.870  20.119  0.00  0.00    +0.000 N 
ATOM     18  C   UNL     1       2.420   4.235  21.266  0.00  0.00    +0.000 A 
ATOM     19  N   UNL     1       2.181   3.346  22.203  0.00  0.00    +0.000 NA
ATOM     20  C   UNL     1       1.384   2.439  21.567  0.00  0.00    +0.000 A 
ATOM     21  N   UNL     1       1.097   2.724  20.294  0.00  0.00    +0.000 NA
ENDBRANCH  16  17
ENDBRANCH  14  16
ENDBRANCH   5  14
TORSDOF 3
ENDMDL
MODEL 6
REMARK VINA RESULT:      -7.4      1.148      1.586
REMARK  Name = 
REMARK  5 active torsions:
REMARK  status: ('A' for Active; 'I' for Inactive)
REMARK    1  A    between atoms: C_1  and  C_2
REMARK    2  A    between atoms: N_5  and  C_6
REMARK    3  A    between atoms: C_6  and  C_7
REMARK    4  A    between atoms: C_6  and  C_8
REMARK    5  A    between atoms: C_8  and  N_9
REMARK                            x       y       z     vdW  Elec       q    Type
REMARK                         _______ _______ _______ _____ _____    ______ ____
ROOT
ATOM      1  C   UNL     1       8.123   7.468  18.473  0.00  0.00    +0.000 C 
ATOM      2  C   UNL     1       7.512   6.371  17.661  0.00  0.00    +0.000 A 
ATOM      3  N   UNL     1       6.726   5.485  18.290  0.00  0.00    +0.000 NA
ATOM      4  C   UNL     1       6.132   4.549  17.535  0.00  0.00    +0.000 A 
ATOM      5  N   UNL     1       5.262   3.633  18.164  0.00  0.00    +0.000 N 
ATOM      6  C   UNL     1       6.365   4.454  16.156  0.00  0.00    +0.000 A 
ATOM      7  C   UNL     1       5.799   3.487  15.286  0.00  0.00    +0.000 A 
ATOM      8  C   UNL     1       6.028   3.561  13.922  0.00  0.00    +0.000 A 
ATOM      9  C   UNL     1       6.837   4.580  13.475  0.00  0.00    +0.000 A 
ATOM     10  N   UNL     1       7.414   5.492  14.290  0.00  0.00    +0.000 NA
ATOM     11  C   UNL     1       7.187   5.441  15.603  0.00  0.00    +0.000 A 
ATOM     12  N   UNL     1       7.750   6.378  16.347  0.00  0.00    +0.000 NA
ATOM     13  H   UNL     1       4.525   3.357  17.522  0.00  0.00    +0.000 HD
ENDROOT
BRANCH   5  14
ATOM     14  C   UNL     1       4.697   4.042  19.462  0.00  0.00    +0.000 C 
ATOM     15  C   UNL     1       3.738   5.223  19.265  0.00  0.00    +0.000 C 
BRANCH  14  16
ATOM     16  C   UNL     1       3.904   2.864  20.063  0.00  0.00    +0.000 C 
BRANCH  16  17
ATOM     17  N   UNL     1       2.536   2.751  19.610  0.00  0.00    +0.000 N 
ATOM     18  C   UNL     1       2.058   2.252  18.439  0.00  0.00    +0.000 A 
ATOM     19  N   UNL     1       0.746   2.287  18.448  0.00  0.00    +0.000 NA
ATOM     20  C   UNL     1       0.462   2.826  19.670  0.00  0.00    +0.000 A 
ATOM     21  N   UNL     1       1.524   3.109  20.429  0.00  0.00    +0.000 NA
ENDBRANCH  16  17
ENDBRANCH  14  16
ENDBRANCH   5  14
TORSDOF 3
ENDMDL
MODEL 7
REMARK VINA RESULT:      -7.3      1.201      1.380
REMARK  Name = 
REMARK  5 active torsions:
REMARK  status: ('A' for Active; 'I' for Inactive)
REMARK    1  A    between atoms: C_1  and  C_2
REMARK    2  A    between atoms: N_5  and  C_6
REMARK    3  A    between atoms: C_6  and  C_7
REMARK    4  A    between atoms: C_6  and  C_8
REMARK    5  A    between atoms: C_8  and  N_9
REMARK                            x       y       z     vdW  Elec       q    Type
REMARK                         _______ _______ _______ _____ _____    ______ ____
ROOT
ATOM      1  C   UNL     1       7.877   7.328  18.257  0.00  0.00    +0.000 C 
ATOM      2  C   UNL     1       7.127   6.423  17.331  0.00  0.00    +0.000 A 
ATOM      3  N   UNL     1       5.925   5.977  17.723  0.00  0.00    +0.000 NA
ATOM      4  C   UNL     1       5.238   5.223  16.852  0.00  0.00    +0.000 A 
ATOM      5  N   UNL     1       3.950   4.779  17.219  0.00  0.00    +0.000 N 
ATOM      6  C   UNL     1       5.771   4.860  15.607  0.00  0.00    +0.000 A 
ATOM      7  C   UNL     1       5.128   4.051  14.635  0.00  0.00    +0.000 A 
ATOM      8  C   UNL     1       5.717   3.848  13.399  0.00  0.00    +0.000 A 
ATOM      9  C   UNL     1       6.943   4.434  13.185  0.00  0.00    +0.000 A 
ATOM     10  N   UNL     1       7.590   5.180  14.108  0.00  0.00    +0.000 NA
ATOM     11  C   UNL     1       7.024   5.396  15.296  0.00  0.00    +0.000 A 
ATOM     12  N   UNL     1       7.687   6.162  16.147  0.00  0.00    +0.000 NA
ATOM     13  H   UNL     1       3.361   4.702  16.395  0.00  0.00    +0.000 HD
ENDROOT
BRANCH   5  14
ATOM     14  C   UNL     1       3.265   5.540  18.279  0.00  0.00    +0.000 C 
ATOM     15  C   UNL     1       2.970   6.964  17.791  0.00  0.00    +0.000 C 
BRANCH  14  16
ATOM     16  C   UNL     1       1.928   4.851  18.615  0.00  0.00    +0.000 C 
BRANCH  16  17
ATOM     17  N   UNL     1       1.956   3.990  19.776  0.00  0.00    +0.000 N 
ATOM     18  C   UNL     1       1.959   2.633  19.838  0.00  0.00    +0.000 A 
ATOM     19  N   UNL     1       2.040   2.249  21.091  0.00  0.00    +0.000 NA
ATOM     20  C   UNL     1       2.087   3.431  21.771  0.00  0.00    +0.000 A 
ATOM     21  N   UNL     1       2.058   4.529  21.010  0.00  0.00    +0.000 NA
ENDBRANCH  16  17
ENDBRANCH  14  16
ENDBRANCH   5  14
TORSDOF 3
ENDMDL
MODEL 8
REMARK VINA RESULT:      -7.0      1.434      3.364
REMARK  Name = 
REMARK  5 active torsions:
REMARK  status: ('A' for Active; 'I' for Inactive)
REMARK    1  A    between atoms: C_1  and  C_2
REMARK    2  A    between atoms: N_5  and  C_6
REMARK    3  A    between atoms: C_6  and  C_7
REMARK    4  A    between atoms: C_6  and  C_8
REMARK    5  A    between atoms: C_8  and  N_9
REMARK                            x       y       z     vdW  Elec       q    Type
REMARK                         _______ _______ _______ _____ _____    ______ ____
ROOT
ATOM      1  C   UNL     1       5.319   4.281  13.638  0.00  0.00    +0.000 C 
ATOM      2  C   UNL     1       5.518   4.567  15.092  0.00  0.00    +0.000 A 
ATOM      3  N   UNL     1       4.735   3.927  15.972  0.00  0.00    +0.000 NA
ATOM      4  C   UNL     1       4.973   4.144  17.275  0.00  0.00    +0.000 A 
ATOM      5  N   UNL     1       4.196   3.447  18.224  0.00  0.00    +0.000 N 
ATOM      6  C   UNL     1       5.955   5.047  17.707  0.00  0.00    +0.000 A 
ATOM      7  C   UNL     1       6.260   5.355  19.057  0.00  0.00    +0.000 A 
ATOM      8  C   UNL     1       7.323   6.189  19.357  0.00  0.00    +0.000 A 
ATOM      9  C   UNL     1       8.028   6.713  18.299  0.00  0.00    +0.000 A 
ATOM     10  N   UNL     1       7.734   6.460  17.003  0.00  0.00    +0.000 NA
ATOM     11  C   UNL     1       6.723   5.645  16.703  0.00  0.00    +0.000 A 
ATOM     12  N   UNL     1       6.503   5.408  15.420  0.00  0.00    +0.000 NA
ATOM     13  H   UNL     1       4.745   3.270  19.060  0.00  0.00    +0.000 HD
ENDROOT
BRANCH   5  14
ATOM     14  C   UNL     1       3.538   2.212  17.761  0.00  0.00    +0.000 C 
ATOM     15  C   UNL     1       4.136   0.999  18.486  0.00  0.00    +0.000 C 
BRANCH  14  16
ATOM     16  C   UNL     1       2.034   2.285  18.091  0.00  0.00    +0.000 C 
BRANCH  16  17
ATOM     17  N   UNL     1       1.706   2.989  19.311  0.00  0.00    +0.000 N 
ATOM     18  C   UNL     1       1.569   2.501  20.572  0.00  0.00    +0.000 A 
ATOM     19  N   UNL     1       1.315   3.488  21.400  0.00  0.00    +0.000 NA
ATOM     20  C   UNL     1       1.307   4.581  20.582  0.00  0.00    +0.000 A 
ATOM     21  N   UNL     1       1.562   4.331  19.295  0.00  0.00    +0.000 NA
ENDBRANCH  16  17
ENDBRANCH  14  16
ENDBRANCH   5  14
TORSDOF 3
ENDMDL
MODEL 9
REMARK VINA RESULT:      -7.0      1.469      1.782
REMARK  Name = 
REMARK  5 active torsions:
REMARK  status: ('A' for Active; 'I' for Inactive)
REMARK    1  A    between atoms: C_1  and  C_2
REMARK    2  A    between atoms: N_5  and  C_6
REMARK    3  A    between atoms: C_6  and  C_7
REMARK    4  A    between atoms: C_6  and  C_8
REMARK    5  A    between atoms: C_8  and  N_9
REMARK                            x       y       z     vdW  Elec       q    Type
REMARK                         _______ _______ _______ _____ _____    ______ ____
ROOT
ATOM      1  C   UNL     1       7.749   5.869  19.370  0.00  0.00    +0.000 C 
ATOM      2  C   UNL     1       7.021   5.397  18.151  0.00  0.00    +0.000 A 
ATOM      3  N   UNL     1       5.731   5.058  18.281  0.00  0.00    +0.000 NA
ATOM      4  C   UNL     1       5.076   4.703  17.165  0.00  0.00    +0.000 A 
ATOM      5  N   UNL     1       3.704   4.387  17.264  0.00  0.00    +0.000 N 
ATOM      6  C   UNL     1       5.720   4.626  15.922  0.00  0.00    +0.000 A 
ATOM      7  C   UNL     1       5.116   4.241  14.698  0.00  0.00    +0.000 A 
ATOM      8  C   UNL     1       5.835   4.303  13.517  0.00  0.00    +0.000 A 
ATOM      9  C   UNL     1       7.143   4.719  13.600  0.00  0.00    +0.000 A 
ATOM     10  N   UNL     1       7.750   5.059  14.760  0.00  0.00    +0.000 NA
ATOM     11  C   UNL     1       7.062   5.019  15.901  0.00  0.00    +0.000 A 
ATOM     12  N   UNL     1       7.697   5.395  16.999  0.00  0.00    +0.000 NA
ATOM     13  H   UNL     1       3.226   4.642  16.405  0.00  0.00    +0.000 HD
ENDROOT
BRANCH   5  14
ATOM     14  C   UNL     1       2.986   4.917  18.436  0.00  0.00    +0.000 C 
ATOM     15  C   UNL     1       1.776   5.742  17.979  0.00  0.00    +0.000 C 
BRANCH  14  16
ATOM     16  C   UNL     1       2.481   3.742  19.295  0.00  0.00    +0.000 C 
BRANCH  16  17
ATOM     17  N   UNL     1       3.425   2.661  19.472  0.00  0.00    +0.000 N 
ATOM     18  C   UNL     1       4.345   2.477  20.455  0.00  0.00    +0.000 A 
ATOM     19  N   UNL     1       4.967   1.336  20.268  0.00  0.00    +0.000 NA
ATOM     20  C   UNL     1       4.381   0.849  19.136  0.00  0.00    +0.000 A 
ATOM     21  N   UNL     1       3.415   1.614  18.620  0.00  0.00    +0.000 NA
ENDBRANCH  16  17
ENDBRANCH  14  16
ENDBRANCH   5  14
TORSDOF 3
ENDMDL
