MODEL 1
REMARK VINA RESULT:      -8.5      0.000      0.000
REMARK  Name = 
REMARK  9 active torsions:
REMARK  status: ('A' for Active; 'I' for Inactive)
REMARK    1  A    between atoms: C_1  and  O_2
REMARK    2  A    between atoms: O_2  and  C_3
REMARK    3  A    between atoms: C_6  and  C_7
REMARK    4  A    between atoms: C_7  and  C_8
REMARK    5  A    between atoms: C_8  and  O_10
REMARK    6  A    between atoms: C_12  and  C_13
REMARK    7  A    between atoms: N_18  and  C_19
REMARK    8  A    between atoms: C_19  and  C_20
REMARK    9  A    between atoms: C_23  and  C_24
REMARK                            x       y       z     vdW  Elec       q    Type
REMARK                         _______ _______ _______ _____ _____    ______ ____
ROOT
ATOM      1  C   UNL     1      -0.673  11.948  21.246  0.00  0.00    +0.000 C 
ATOM      2  N   UNL     1       0.334  11.397  21.858  0.00  0.00    +0.000 NA
ATOM      3  C   UNL     1       1.056  10.168  21.735  0.00  0.00    +0.000 C 
ATOM      4  C   UNL     1       0.220   9.201  20.972  0.00  0.00    +0.000 C 
ATOM      5  O   UNL     1      -0.681   8.548  21.502  0.00  0.00    +0.000 OA
ATOM      6  N   UNL     1       0.304   9.377  19.621  0.00  0.00    +0.000 N 
ATOM      7  C   UNL     1      -0.707  10.211  19.114  0.00  0.00    +0.000 A 
ATOM      8  C   UNL     1      -1.172   9.707  17.862  0.00  0.00    +0.000 A 
ATOM      9  C   UNL     1      -2.101  10.394  17.127  0.00  0.00    +0.000 A 
ATOM     10  C   UNL     1      -2.549  11.598  17.649  0.00  0.00    +0.000 A 
ATOM     11  C   UNL     1      -2.117  12.104  18.934  0.00  0.00    +0.000 A 
ATOM     12  C   UNL     1      -1.203  11.419  19.767  0.00  0.00    +0.000 A 
ENDROOT
BRANCH   1  18
ATOM     13  C   UNL     1      -0.557  14.163  22.891  0.00  0.00    +0.000 A 
ATOM     14  C   UNL     1      -1.201  14.899  23.943  0.00  0.00    +0.000 A 
ATOM     15  C   UNL     1      -2.550  14.752  24.268  0.00  0.00    +0.000 A 
ATOM     16  C   UNL     1      -3.293  13.794  23.609  0.00  0.00    +0.000 A 
ATOM     17  C   UNL     1      -2.590  12.953  22.688  0.00  0.00    +0.000 A 
ATOM     18  C   UNL     1      -1.185  13.081  22.283  0.00  0.00    +0.000 A 
BRANCH  13  20
ATOM     19  C   UNL     1       0.454  15.593  21.396  0.00  0.00    +0.000 C 
ATOM     20  O   UNL     1       0.650  14.634  22.453  0.00  0.00    +0.000 OA
ENDBRANCH  13  20
BRANCH  16  21
ATOM     21  C   UNL     1      -4.816  13.799  23.700  0.00  0.00    +0.000 C 
BRANCH  21  22
ATOM     22  C   UNL     1      -5.531  12.561  24.218  0.00  0.00    +0.000 C 
ATOM     23  O   UNL     1      -6.530  12.077  23.702  0.00  0.00    +0.000 OA
BRANCH  22  24
ATOM     24  O   UNL     1      -4.945  11.960  25.261  0.00  0.00    +0.000 OA
ATOM     25  H   UNL     1      -4.041  12.280  25.453  0.00  0.00    +0.000 HD
ENDBRANCH  22  24
ENDBRANCH  21  22
ENDBRANCH  16  21
ENDBRANCH   1  18
BRANCH   6  26
ATOM     26  C   UNL     1       1.570   9.456  18.869  0.00  0.00    +0.000 C 
BRANCH  26  27
ATOM     27  C   UNL     1       2.246   8.116  18.687  0.00  0.00    +0.000 A 
ATOM     28  C   UNL     1       3.111   7.882  17.606  0.00  0.00    +0.000 A 
ATOM     29  C   UNL     1       3.951   6.765  17.606  0.00  0.00    +0.000 A 
ATOM     30  C   UNL     1       3.927   5.869  18.684  0.00  0.00    +0.000 A 
ATOM     31  C   UNL     1       2.949   6.022  19.676  0.00  0.00    +0.000 A 
ATOM     32  C   UNL     1       2.115   7.135  19.675  0.00  0.00    +0.000 A 
BRANCH  30  33
ATOM     33  C   UNL     1       4.992   4.816  18.859  0.00  0.00    +0.000 C 
ATOM     34  F   UNL     1       5.574   4.425  17.693  0.00  0.00    +0.000 F 
ATOM     35  F   UNL     1       6.014   5.266  19.645  0.00  0.00    +0.000 F 
ATOM     36  F   UNL     1       4.535   3.684  19.457  0.00  0.00    +0.000 F 
ENDBRANCH  30  33
ENDBRANCH  26  27
ENDBRANCH   6  26
TORSDOF 8
ENDMDL
MODEL 2
REMARK VINA RESULT:      -8.4      0.971      1.078
REMARK  Name = 
REMARK  9 active torsions:
REMARK  status: ('A' for Active; 'I' for Inactive)
REMARK    1  A    between atoms: C_1  and  O_2
REMARK    2  A    between atoms: O_2  and  C_3
REMARK    3  A    between atoms: C_6  and  C_7
REMARK    4  A    between atoms: C_7  and  C_8
REMARK    5  A    between atoms: C_8  and  O_10
REMARK    6  A    between atoms: C_12  and  C_13
REMARK    7  A    between atoms: N_18  and  C_19
REMARK    8  A    between atoms: C_19  and  C_20
REMARK    9  A    between atoms: C_23  and  C_24
REMARK                            x       y       z     vdW  Elec       q    Type
REMARK                         _______ _______ _______ _____ _____    ______ ____
ROOT
ATOM      1  C   UNL     1      -0.930  11.617  21.862  0.00  0.00    +0.000 C 
ATOM      2  N   UNL     1      -0.061  10.983  22.594  0.00  0.00    +0.000 NA
ATOM      3  C   UNL     1       0.663   9.752  22.485  0.00  0.00    +0.000 C 
ATOM      4  C   UNL     1      -0.022   8.886  21.486  0.00  0.00    +0.000 C 
ATOM      5  O   UNL     1      -1.012   8.209  21.771  0.00  0.00    +0.000 OA
ATOM      6  N   UNL     1       0.316   9.191  20.199  0.00  0.00    +0.000 N 
ATOM      7  C   UNL     1      -0.574  10.096  19.599  0.00  0.00    +0.000 A 
ATOM      8  C   UNL     1      -0.799   9.729  18.237  0.00  0.00    +0.000 A 
ATOM      9  C   UNL     1      -1.567  10.508  17.415  0.00  0.00    +0.000 A 
ATOM     10  C   UNL     1      -2.097  11.667  17.962  0.00  0.00    +0.000 A 
ATOM     11  C   UNL     1      -1.911  12.034  19.349  0.00  0.00    +0.000 A 
ATOM     12  C   UNL     1      -1.175  11.248  20.265  0.00  0.00    +0.000 A 
ENDROOT
BRANCH   1  18
ATOM     13  C   UNL     1      -1.210  13.874  23.428  0.00  0.00    +0.000 A 
ATOM     14  C   UNL     1      -1.942  14.499  24.495  0.00  0.00    +0.000 A 
ATOM     15  C   UNL     1      -3.206  14.079  24.907  0.00  0.00    +0.000 A 
ATOM     16  C   UNL     1      -3.757  12.955  24.325  0.00  0.00    +0.000 A 
ATOM     17  C   UNL     1      -2.939  12.247  23.389  0.00  0.00    +0.000 A 
ATOM     18  C   UNL     1      -1.619  12.656  22.894  0.00  0.00    +0.000 A 
BRANCH  13  20
ATOM     19  C   UNL     1      -0.616  15.418  21.827  0.00  0.00    +0.000 C 
ATOM     20  O   UNL     1      -0.160  14.575  22.903  0.00  0.00    +0.000 OA
ENDBRANCH  13  20
BRANCH  16  21
ATOM     21  C   UNL     1      -5.238  12.636  24.510  0.00  0.00    +0.000 C 
BRANCH  21  22
ATOM     22  C   UNL     1      -6.215  12.984  23.398  0.00  0.00    +0.000 C 
ATOM     23  O   UNL     1      -6.250  14.066  22.826  0.00  0.00    +0.000 OA
BRANCH  22  24
ATOM     24  O   UNL     1      -7.014  11.983  23.007  0.00  0.00    +0.000 OA
ATOM     25  H   UNL     1      -6.540  11.220  22.621  0.00  0.00    +0.000 HD
ENDBRANCH  22  24
ENDBRANCH  21  22
ENDBRANCH  16  21
ENDBRANCH   1  18
BRANCH   6  26
ATOM     26  C   UNL     1       1.702   9.309  19.708  0.00  0.00    +0.000 C 
BRANCH  26  27
ATOM     27  C   UNL     1       2.234   8.033  19.097  0.00  0.00    +0.000 A 
ATOM     28  C   UNL     1       2.825   8.032  17.823  0.00  0.00    +0.000 A 
ATOM     29  C   UNL     1       3.570   6.931  17.394  0.00  0.00    +0.000 A 
ATOM     30  C   UNL     1       3.725   5.818  18.233  0.00  0.00    +0.000 A 
ATOM     31  C   UNL     1       3.000   5.762  19.430  0.00  0.00    +0.000 A 
ATOM     32  C   UNL     1       2.259   6.860  19.857  0.00  0.00    +0.000 A 
BRANCH  30  33
ATOM     33  C   UNL     1       4.732   4.737  17.933  0.00  0.00    +0.000 C 
ATOM     34  F   UNL     1       4.422   3.986  16.841  0.00  0.00    +0.000 F 
ATOM     35  F   UNL     1       5.966   5.262  17.676  0.00  0.00    +0.000 F 
ATOM     36  F   UNL     1       4.906   3.864  18.961  0.00  0.00    +0.000 F 
ENDBRANCH  30  33
ENDBRANCH  26  27
ENDBRANCH   6  26
TORSDOF 8
ENDMDL
MODEL 3
REMARK VINA RESULT:      -8.4      5.527     11.153
REMARK  Name = 
REMARK  9 active torsions:
REMARK  status: ('A' for Active; 'I' for Inactive)
REMARK    1  A    between atoms: C_1  and  O_2
REMARK    2  A    between atoms: O_2  and  C_3
REMARK    3  A    between atoms: C_6  and  C_7
REMARK    4  A    between atoms: C_7  and  C_8
REMARK    5  A    between atoms: C_8  and  O_10
REMARK    6  A    between atoms: C_12  and  C_13
REMARK    7  A    between atoms: N_18  and  C_19
REMARK    8  A    between atoms: C_19  and  C_20
REMARK    9  A    between atoms: C_23  and  C_24
REMARK                            x       y       z     vdW  Elec       q    Type
REMARK                         _______ _______ _______ _____ _____    ______ ____
ROOT
ATOM      1  C   UNL     1       4.308   5.667  18.067  0.00  0.00    +0.000 C 
ATOM      2  N   UNL     1       4.231   6.940  17.808  0.00  0.00    +0.000 NA
ATOM      3  C   UNL     1       3.264   7.972  18.033  0.00  0.00    +0.000 C 
ATOM      4  C   UNL     1       1.945   7.336  18.299  0.00  0.00    +0.000 C 
ATOM      5  O   UNL     1       1.214   6.932  17.393  0.00  0.00    +0.000 OA
ATOM      6  N   UNL     1       1.803   6.930  19.595  0.00  0.00    +0.000 N 
ATOM      7  C   UNL     1       2.168   5.588  19.792  0.00  0.00    +0.000 A 
ATOM      8  C   UNL     1       1.264   4.966  20.705  0.00  0.00    +0.000 A 
ATOM      9  C   UNL     1       1.460   3.677  21.123  0.00  0.00    +0.000 A 
ATOM     10  C   UNL     1       2.577   3.020  20.631  0.00  0.00    +0.000 A 
ATOM     11  C   UNL     1       3.482   3.622  19.674  0.00  0.00    +0.000 A 
ATOM     12  C   UNL     1       3.308   4.928  19.162  0.00  0.00    +0.000 A 
ENDROOT
BRANCH   1  18
ATOM     13  C   UNL     1       6.817   4.855  17.247  0.00  0.00    +0.000 A 
ATOM     14  C   UNL     1       7.674   4.589  16.126  0.00  0.00    +0.000 A 
ATOM     15  C   UNL     1       7.200   4.364  14.833  0.00  0.00    +0.000 A 
ATOM     16  C   UNL     1       5.847   4.483  14.591  0.00  0.00    +0.000 A 
ATOM     17  C   UNL     1       5.032   4.919  15.684  0.00  0.00    +0.000 A 
ATOM     18  C   UNL     1       5.467   5.139  17.068  0.00  0.00    +0.000 A 
BRANCH  13  20
ATOM     19  C   UNL     1       7.820   5.997  18.976  0.00  0.00    +0.000 C 
ATOM     20  O   UNL     1       7.365   4.719  18.493  0.00  0.00    +0.000 OA
ENDBRANCH  13  20
BRANCH  16  21
ATOM     21  C   UNL     1       5.245   3.955  13.292  0.00  0.00    +0.000 C 
BRANCH  21  22
ATOM     22  C   UNL     1       6.166   3.372  12.232  0.00  0.00    +0.000 C 
ATOM     23  O   UNL     1       7.087   3.986  11.708  0.00  0.00    +0.000 OA
BRANCH  22  24
ATOM     24  O   UNL     1       5.961   2.080  11.947  0.00  0.00    +0.000 OA
ATOM     25  H   UNL     1       6.518   1.463  12.462  0.00  0.00    +0.000 HD
ENDBRANCH  22  24
ENDBRANCH  21  22
ENDBRANCH  16  21
ENDBRANCH   1  18
BRANCH   6  26
ATOM     26  C   UNL     1       2.051   7.789  20.768  0.00  0.00    +0.000 C 
BRANCH  26  27
ATOM     27  C   UNL     1       0.875   8.670  21.127  0.00  0.00    +0.000 A 
ATOM     28  C   UNL     1       0.287   8.607  22.401  0.00  0.00    +0.000 A 
ATOM     29  C   UNL     1      -0.588   9.612  22.821  0.00  0.00    +0.000 A 
ATOM     30  C   UNL     1      -0.888  10.684  21.969  0.00  0.00    +0.000 A 
ATOM     31  C   UNL     1      -0.426  10.653  20.647  0.00  0.00    +0.000 A 
ATOM     32  C   UNL     1       0.447   9.652  20.229  0.00  0.00    +0.000 A 
BRANCH  30  33
ATOM     33  C   UNL     1      -1.597  11.917  22.469  0.00  0.00    +0.000 C 
ATOM     34  F   UNL     1      -2.573  11.655  23.381  0.00  0.00    +0.000 F 
ATOM     35  F   UNL     1      -0.733  12.771  23.093  0.00  0.00    +0.000 F 
ATOM     36  F   UNL     1      -2.184  12.639  21.478  0.00  0.00    +0.000 F 
ENDBRANCH  30  33
ENDBRANCH  26  27
ENDBRANCH   6  26
TORSDOF 8
ENDMDL
MODEL 4
REMARK VINA RESULT:      -8.2      5.579     10.139
REMARK  Name = 
REMARK  9 active torsions:
REMARK  status: ('A' for Active; 'I' for Inactive)
REMARK    1  A    between atoms: C_1  and  O_2
REMARK    2  A    between atoms: O_2  and  C_3
REMARK    3  A    between atoms: C_6  and  C_7
REMARK    4  A    between atoms: C_7  and  C_8
REMARK    5  A    between atoms: C_8  and  O_10
REMARK    6  A    between atoms: C_12  and  C_13
REMARK    7  A    between atoms: N_18  and  C_19
REMARK    8  A    between atoms: C_19  and  C_20
REMARK    9  A    between atoms: C_23  and  C_24
REMARK                            x       y       z     vdW  Elec       q    Type
REMARK                         _______ _______ _______ _____ _____    ______ ____
ROOT
ATOM      1  C   UNL     1       2.009   8.202  19.446  0.00  0.00    +0.000 C 
ATOM      2  N   UNL     1       2.392   8.898  18.416  0.00  0.00    +0.000 NA
ATOM      3  C   UNL     1       2.007  10.144  17.825  0.00  0.00    +0.000 C 
ATOM      4  C   UNL     1       0.649  10.503  18.316  0.00  0.00    +0.000 C 
ATOM      5  O   UNL     1      -0.376  10.024  17.828  0.00  0.00    +0.000 OA
ATOM      6  N   UNL     1       0.670  11.100  19.544  0.00  0.00    +0.000 N 
ATOM      7  C   UNL     1       0.498  10.189  20.599  0.00  0.00    +0.000 A 
ATOM      8  C   UNL     1      -0.332  10.764  21.609  0.00  0.00    +0.000 A 
ATOM      9  C   UNL     1      -0.579  10.099  22.780  0.00  0.00    +0.000 A 
ATOM     10  C   UNL     1       0.025   8.862  22.940  0.00  0.00    +0.000 A 
ATOM     11  C   UNL     1       0.838   8.249  21.912  0.00  0.00    +0.000 A 
ATOM     12  C   UNL     1       1.089   8.855  20.660  0.00  0.00    +0.000 A 
ENDROOT
BRANCH   1  18
ATOM     13  C   UNL     1       2.325   5.471  19.706  0.00  0.00    +0.000 A 
ATOM     14  C   UNL     1       3.134   4.330  19.378  0.00  0.00    +0.000 A 
ATOM     15  C   UNL     1       4.055   4.317  18.331  0.00  0.00    +0.000 A 
ATOM     16  C   UNL     1       4.269   5.480  17.619  0.00  0.00    +0.000 A 
ATOM     17  C   UNL     1       3.581   6.650  18.073  0.00  0.00    +0.000 A 
ATOM     18  C   UNL     1       2.581   6.718  19.144  0.00  0.00    +0.000 A 
BRANCH  13  20
ATOM     19  C   UNL     1       0.924   3.848  20.545  0.00  0.00    +0.000 C 
ATOM     20  O   UNL     1       1.242   5.252  20.513  0.00  0.00    +0.000 OA
ENDBRANCH  13  20
BRANCH  16  21
ATOM     21  C   UNL     1       5.019   5.447  16.290  0.00  0.00    +0.000 C 
BRANCH  21  22
ATOM     22  C   UNL     1       6.269   4.590  16.167  0.00  0.00    +0.000 C 
ATOM     23  O   UNL     1       7.378   4.932  16.557  0.00  0.00    +0.000 OA
BRANCH  22  24
ATOM     24  O   UNL     1       6.073   3.365  15.663  0.00  0.00    +0.000 OA
ATOM     25  H   UNL     1       6.813   2.745  15.817  0.00  0.00    +0.000 HD
ENDBRANCH  22  24
ENDBRANCH  21  22
ENDBRANCH  16  21
ENDBRANCH   1  18
BRANCH   6  26
ATOM     26  C   UNL     1       1.516  12.257  19.892  0.00  0.00    +0.000 C 
BRANCH  26  27
ATOM     27  C   UNL     1       1.077  13.544  19.230  0.00  0.00    +0.000 A 
ATOM     28  C   UNL     1      -0.256  13.978  19.304  0.00  0.00    +0.000 A 
ATOM     29  C   UNL     1      -0.589  15.289  18.954  0.00  0.00    +0.000 A 
ATOM     30  C   UNL     1       0.407  16.175  18.520  0.00  0.00    +0.000 A 
ATOM     31  C   UNL     1       1.701  15.687  18.296  0.00  0.00    +0.000 A 
ATOM     32  C   UNL     1       2.032  14.382  18.646  0.00  0.00    +0.000 A 
BRANCH  30  33
ATOM     33  C   UNL     1       0.149  17.655  18.397  0.00  0.00    +0.000 C 
ATOM     34  F   UNL     1       0.275  18.334  19.570  0.00  0.00    +0.000 F 
ATOM     35  F   UNL     1       1.030  18.246  17.537  0.00  0.00    +0.000 F 
ATOM     36  F   UNL     1      -1.090  17.947  17.918  0.00  0.00    +0.000 F 
ENDBRANCH  30  33
ENDBRANCH  26  27
ENDBRANCH   6  26
TORSDOF 8
ENDMDL
MODEL 5
REMARK VINA RESULT:      -8.2      1.304      1.802
REMARK  Name = 
REMARK  9 active torsions:
REMARK  status: ('A' for Active; 'I' for Inactive)
REMARK    1  A    between atoms: C_1  and  O_2
REMARK    2  A    between atoms: O_2  and  C_3
REMARK    3  A    between atoms: C_6  and  C_7
REMARK    4  A    between atoms: C_7  and  C_8
REMARK    5  A    between atoms: C_8  and  O_10
REMARK    6  A    between atoms: C_12  and  C_13
REMARK    7  A    between atoms: N_18  and  C_19
REMARK    8  A    between atoms: C_19  and  C_20
REMARK    9  A    between atoms: C_23  and  C_24
REMARK                            x       y       z     vdW  Elec       q    Type
REMARK                         _______ _______ _______ _____ _____    ______ ____
ROOT
ATOM      1  C   UNL     1      -0.916  11.697  21.816  0.00  0.00    +0.000 C 
ATOM      2  N   UNL     1      -0.085  11.051  22.580  0.00  0.00    +0.000 NA
ATOM      3  C   UNL     1       0.582   9.786  22.525  0.00  0.00    +0.000 C 
ATOM      4  C   UNL     1      -0.132   8.916  21.551  0.00  0.00    +0.000 C 
ATOM      5  O   UNL     1      -1.156   8.296  21.848  0.00  0.00    +0.000 OA
ATOM      6  N   UNL     1       0.232   9.156  20.258  0.00  0.00    +0.000 N 
ATOM      7  C   UNL     1      -0.609  10.079  19.614  0.00  0.00    +0.000 A 
ATOM      8  C   UNL     1      -0.836   9.672  18.264  0.00  0.00    +0.000 A 
ATOM      9  C   UNL     1      -1.559  10.454  17.405  0.00  0.00    +0.000 A 
ATOM     10  C   UNL     1      -2.040  11.656  17.902  0.00  0.00    +0.000 A 
ATOM     11  C   UNL     1      -1.851  12.066  19.278  0.00  0.00    +0.000 A 
ATOM     12  C   UNL     1      -1.162  11.281  20.230  0.00  0.00    +0.000 A 
ENDROOT
BRANCH   1  18
ATOM     13  C   UNL     1      -1.075  13.977  23.365  0.00  0.00    +0.000 A 
ATOM     14  C   UNL     1      -1.811  14.677  24.381  0.00  0.00    +0.000 A 
ATOM     15  C   UNL     1      -3.137  14.389  24.703  0.00  0.00    +0.000 A 
ATOM     16  C   UNL     1      -3.757  13.324  24.081  0.00  0.00    +0.000 A 
ATOM     17  C   UNL     1      -2.952  12.533  23.201  0.00  0.00    +0.000 A 
ATOM     18  C   UNL     1      -1.566  12.805  22.800  0.00  0.00    +0.000 A 
BRANCH  13  20
ATOM     19  C   UNL     1      -0.151  15.967  22.666  0.00  0.00    +0.000 C 
ATOM     20  O   UNL     1       0.075  14.566  22.916  0.00  0.00    +0.000 OA
ENDBRANCH  13  20
BRANCH  16  21
ATOM     21  C   UNL     1      -5.272  13.157  24.161  0.00  0.00    +0.000 C 
BRANCH  21  22
ATOM     22  C   UNL     1      -6.093  13.214  22.883  0.00  0.00    +0.000 C 
ATOM     23  O   UNL     1      -6.479  14.252  22.358  0.00  0.00    +0.000 OA
BRANCH  22  24
ATOM     24  O   UNL     1      -6.313  12.032  22.294  0.00  0.00    +0.000 OA
ATOM     25  H   UNL     1      -5.698  11.325  22.572  0.00  0.00    +0.000 HD
ENDBRANCH  22  24
ENDBRANCH  21  22
ENDBRANCH  16  21
ENDBRANCH   1  18
BRANCH   6  26
ATOM     26  C   UNL     1       1.627   9.192  19.779  0.00  0.00    +0.000 C 
BRANCH  26  27
ATOM     27  C   UNL     1       2.181   7.827  19.438  0.00  0.00    +0.000 A 
ATOM     28  C   UNL     1       2.037   6.746  20.323  0.00  0.00    +0.000 A 
ATOM     29  C   UNL     1       2.281   5.442  19.885  0.00  0.00    +0.000 A 
ATOM     30  C   UNL     1       2.679   5.208  18.560  0.00  0.00    +0.000 A 
ATOM     31  C   UNL     1       2.977   6.301  17.737  0.00  0.00    +0.000 A 
ATOM     32  C   UNL     1       2.731   7.600  18.173  0.00  0.00    +0.000 A 
BRANCH  30  33
ATOM     33  C   UNL     1       2.687   3.821  17.971  0.00  0.00    +0.000 C 
ATOM     34  F   UNL     1       3.538   2.963  18.599  0.00  0.00    +0.000 F 
ATOM     35  F   UNL     1       1.455   3.237  18.051  0.00  0.00    +0.000 F 
ATOM     36  F   UNL     1       3.024   3.798  16.654  0.00  0.00    +0.000 F 
ENDBRANCH  30  33
ENDBRANCH  26  27
ENDBRANCH   6  26
TORSDOF 8
ENDMDL
MODEL 6
REMARK VINA RESULT:      -8.0      5.535      9.409
REMARK  Name = 
REMARK  9 active torsions:
REMARK  status: ('A' for Active; 'I' for Inactive)
REMARK    1  A    between atoms: C_1  and  O_2
REMARK    2  A    between atoms: O_2  and  C_3
REMARK    3  A    between atoms: C_6  and  C_7
REMARK    4  A    between atoms: C_7  and  C_8
REMARK    5  A    between atoms: C_8  and  O_10
REMARK    6  A    between atoms: C_12  and  C_13
REMARK    7  A    between atoms: N_18  and  C_19
REMARK    8  A    between atoms: C_19  and  C_20
REMARK    9  A    between atoms: C_23  and  C_24
REMARK                            x       y       z     vdW  Elec       q    Type
REMARK                         _______ _______ _______ _____ _____    ______ ____
ROOT
ATOM      1  C   UNL     1       1.852   8.376  19.300  0.00  0.00    +0.000 C 
ATOM      2  N   UNL     1       2.207   9.121  18.294  0.00  0.00    +0.000 NA
ATOM      3  C   UNL     1       1.851  10.420  17.809  0.00  0.00    +0.000 C 
ATOM      4  C   UNL     1       0.545  10.809  18.406  0.00  0.00    +0.000 C 
ATOM      5  O   UNL     1      -0.531  10.411  17.954  0.00  0.00    +0.000 OA
ATOM      6  N   UNL     1       0.668  11.321  19.666  0.00  0.00    +0.000 N 
ATOM      7  C   UNL     1       0.514  10.350  20.670  0.00  0.00    +0.000 A 
ATOM      8  C   UNL     1      -0.225  10.894  21.763  0.00  0.00    +0.000 A 
ATOM      9  C   UNL     1      -0.435  10.165  22.903  0.00  0.00    +0.000 A 
ATOM     10  C   UNL     1       0.115   8.893  22.946  0.00  0.00    +0.000 A 
ATOM     11  C   UNL     1       0.833   8.313  21.832  0.00  0.00    +0.000 A 
ATOM     12  C   UNL     1       1.039   8.989  20.608  0.00  0.00    +0.000 A 
ENDROOT
BRANCH   1  18
ATOM     13  C   UNL     1       3.338   6.424  18.034  0.00  0.00    +0.000 A 
ATOM     14  C   UNL     1       3.414   5.038  17.665  0.00  0.00    +0.000 A 
ATOM     15  C   UNL     1       2.659   4.038  18.277  0.00  0.00    +0.000 A 
ATOM     16  C   UNL     1       1.727   4.398  19.229  0.00  0.00    +0.000 A 
ATOM     17  C   UNL     1       1.545   5.799  19.457  0.00  0.00    +0.000 A 
ATOM     18  C   UNL     1       2.329   6.891  18.869  0.00  0.00    +0.000 A 
BRANCH  13  20
ATOM     19  C   UNL     1       5.557   6.466  17.418  0.00  0.00    +0.000 C 
ATOM     20  O   UNL     1       4.354   7.236  17.608  0.00  0.00    +0.000 OA
ENDBRANCH  13  20
BRANCH  16  21
ATOM     21  C   UNL     1       1.103   3.342  20.138  0.00  0.00    +0.000 C 
BRANCH  21  22
ATOM     22  C   UNL     1       1.887   2.846  21.343  0.00  0.00    +0.000 C 
ATOM     23  O   UNL     1       1.386   2.585  22.429  0.00  0.00    +0.000 OA
BRANCH  22  24
ATOM     24  O   UNL     1       3.189   2.626  21.124  0.00  0.00    +0.000 OA
ATOM     25  H   UNL     1       3.616   3.288  20.545  0.00  0.00    +0.000 HD
ENDBRANCH  22  24
ENDBRANCH  21  22
ENDBRANCH  16  21
ENDBRANCH   1  18
BRANCH   6  26
ATOM     26  C   UNL     1       1.591  12.412  20.034  0.00  0.00    +0.000 C 
BRANCH  26  27
ATOM     27  C   UNL     1       1.318  13.704  19.296  0.00  0.00    +0.000 A 
ATOM     28  C   UNL     1       0.038  14.279  19.293  0.00  0.00    +0.000 A 
ATOM     29  C   UNL     1      -0.138  15.599  18.871  0.00  0.00    +0.000 A 
ATOM     30  C   UNL     1       0.964  16.353  18.441  0.00  0.00    +0.000 A 
ATOM     31  C   UNL     1       2.205  15.720  18.295  0.00  0.00    +0.000 A 
ATOM     32  C   UNL     1       2.380  14.406  18.717  0.00  0.00    +0.000 A 
BRANCH  30  33
ATOM     33  C   UNL     1       0.871  17.844  18.241  0.00  0.00    +0.000 C 
ATOM     34  F   UNL     1       1.518  18.289  17.129  0.00  0.00    +0.000 F 
ATOM     35  F   UNL     1      -0.425  18.248  18.096  0.00  0.00    +0.000 F 
ATOM     36  F   UNL     1       1.369  18.558  19.285  0.00  0.00    +0.000 F 
ENDBRANCH  30  33
ENDBRANCH  26  27
ENDBRANCH   6  26
TORSDOF 8
ENDMDL
MODEL 7
REMARK VINA RESULT:      -8.0      5.553      9.374
REMARK  Name = 
REMARK  9 active torsions:
REMARK  status: ('A' for Active; 'I' for Inactive)
REMARK    1  A    between atoms: C_1  and  O_2
REMARK    2  A    between atoms: O_2  and  C_3
REMARK    3  A    between atoms: C_6  and  C_7
REMARK    4  A    between atoms: C_7  and  C_8
REMARK    5  A    between atoms: C_8  and  O_10
REMARK    6  A    between atoms: C_12  and  C_13
REMARK    7  A    between atoms: N_18  and  C_19
REMARK    8  A    between atoms: C_19  and  C_20
REMARK    9  A    between atoms: C_23  and  C_24
REMARK                            x       y       z     vdW  Elec       q    Type
REMARK                         _______ _______ _______ _____ _____    ______ ____
ROOT
ATOM      1  C   UNL     1       1.920   8.495  19.493  0.00  0.00    +0.000 C 
ATOM      2  N   UNL     1       2.287   9.216  18.475  0.00  0.00    +0.000 NA
ATOM      3  C   UNL     1       1.900  10.480  17.925  0.00  0.00    +0.000 C 
ATOM      4  C   UNL     1       0.554  10.835  18.453  0.00  0.00    +0.000 C 
ATOM      5  O   UNL     1      -0.484  10.375  17.972  0.00  0.00    +0.000 OA
ATOM      6  N   UNL     1       0.602  11.398  19.695  0.00  0.00    +0.000 N 
ATOM      7  C   UNL     1       0.445  10.460  20.729  0.00  0.00    +0.000 A 
ATOM      8  C   UNL     1      -0.362  11.012  21.769  0.00  0.00    +0.000 A 
ATOM      9  C   UNL     1      -0.591  10.318  22.927  0.00  0.00    +0.000 A 
ATOM     10  C   UNL     1       0.008   9.073  23.042  0.00  0.00    +0.000 A 
ATOM     11  C   UNL     1       0.798   8.482  21.982  0.00  0.00    +0.000 A 
ATOM     12  C   UNL     1       1.027   9.121  20.742  0.00  0.00    +0.000 A 
ENDROOT
BRANCH   1  18
ATOM     13  C   UNL     1       3.177   6.501  18.056  0.00  0.00    +0.000 A 
ATOM     14  C   UNL     1       3.371   5.085  17.903  0.00  0.00    +0.000 A 
ATOM     15  C   UNL     1       3.095   4.160  18.909  0.00  0.00    +0.000 A 
ATOM     16  C   UNL     1       2.527   4.605  20.085  0.00  0.00    +0.000 A 
ATOM     17  C   UNL     1       2.182   5.992  20.150  0.00  0.00    +0.000 A 
ATOM     18  C   UNL     1       2.475   7.016  19.141  0.00  0.00    +0.000 A 
BRANCH  13  20
ATOM     19  C   UNL     1       5.167   6.916  16.977  0.00  0.00    +0.000 C 
ATOM     20  O   UNL     1       3.793   7.313  17.144  0.00  0.00    +0.000 OA
ENDBRANCH  13  20
BRANCH  16  21
ATOM     21  C   UNL     1       2.491   3.703  21.316  0.00  0.00    +0.000 C 
BRANCH  21  22
ATOM     22  C   UNL     1       1.304   2.775  21.520  0.00  0.00    +0.000 C 
ATOM     23  O   UNL     1       1.119   2.107  22.529  0.00  0.00    +0.000 OA
BRANCH  22  24
ATOM     24  O   UNL     1       0.397   2.786  20.536  0.00  0.00    +0.000 OA
ATOM     25  H   UNL     1       0.404   3.599  19.992  0.00  0.00    +0.000 HD
ENDBRANCH  22  24
ENDBRANCH  21  22
ENDBRANCH  16  21
ENDBRANCH   1  18
BRANCH   6  26
ATOM     26  C   UNL     1       1.462  12.540  20.058  0.00  0.00    +0.000 C 
BRANCH  26  27
ATOM     27  C   UNL     1       1.122  13.811  19.312  0.00  0.00    +0.000 A 
ATOM     28  C   UNL     1      -0.194  14.300  19.279  0.00  0.00    +0.000 A 
ATOM     29  C   UNL     1      -0.447  15.605  18.850  0.00  0.00    +0.000 A 
ATOM     30  C   UNL     1       0.612  16.430  18.443  0.00  0.00    +0.000 A 
ATOM     31  C   UNL     1       1.895  15.880  18.325  0.00  0.00    +0.000 A 
ATOM     32  C   UNL     1       2.147  14.581  18.755  0.00  0.00    +0.000 A 
BRANCH  30  33
ATOM     33  C   UNL     1       0.425  17.911  18.237  0.00  0.00    +0.000 C 
ATOM     34  F   UNL     1      -0.764  18.384  18.702  0.00  0.00    +0.000 F 
ATOM     35  F   UNL     1       1.385  18.630  18.891  0.00  0.00    +0.000 F 
ATOM     36  F   UNL     1       0.502  18.287  16.933  0.00  0.00    +0.000 F 
ENDBRANCH  30  33
ENDBRANCH  26  27
ENDBRANCH   6  26
TORSDOF 8
ENDMDL
MODEL 8
REMARK VINA RESULT:      -7.9      2.958      5.229
REMARK  Name = 
REMARK  9 active torsions:
REMARK  status: ('A' for Active; 'I' for Inactive)
REMARK    1  A    between atoms: C_1  and  O_2
REMARK    2  A    between atoms: O_2  and  C_3
REMARK    3  A    between atoms: C_6  and  C_7
REMARK    4  A    between atoms: C_7  and  C_8
REMARK    5  A    between atoms: C_8  and  O_10
REMARK    6  A    between atoms: C_12  and  C_13
REMARK    7  A    between atoms: N_18  and  C_19
REMARK    8  A    between atoms: C_19  and  C_20
REMARK    9  A    between atoms: C_23  and  C_24
REMARK                            x       y       z     vdW  Elec       q    Type
REMARK                         _______ _______ _______ _____ _____    ______ ____
ROOT
ATOM      1  C   UNL     1      -0.771  14.093  20.051  0.00  0.00    +0.000 C 
ATOM      2  N   UNL     1      -0.029  13.942  18.993  0.00  0.00    +0.000 NA
ATOM      3  C   UNL     1       0.994  13.027  18.584  0.00  0.00    +0.000 C 
ATOM      4  C   UNL     1       1.535  12.350  19.794  0.00  0.00    +0.000 C 
ATOM      5  O   UNL     1       2.380  12.875  20.522  0.00  0.00    +0.000 OA
ATOM      6  N   UNL     1       0.766  11.297  20.201  0.00  0.00    +0.000 N 
ATOM      7  C   UNL     1      -0.181  11.654  21.175  0.00  0.00    +0.000 A 
ATOM      8  C   UNL     1      -0.283  10.621  22.156  0.00  0.00    +0.000 A 
ATOM      9  C   UNL     1      -1.204  10.699  23.166  0.00  0.00    +0.000 A 
ATOM     10  C   UNL     1      -2.031  11.811  23.179  0.00  0.00    +0.000 A 
ATOM     11  C   UNL     1      -1.915  12.885  22.215  0.00  0.00    +0.000 A 
ATOM     12  C   UNL     1      -0.952  12.893  21.180  0.00  0.00    +0.000 A 
ENDROOT
BRANCH   1  18
ATOM     13  C   UNL     1      -2.128  16.397  20.740  0.00  0.00    +0.000 A 
ATOM     14  C   UNL     1      -2.606  17.676  20.293  0.00  0.00    +0.000 A 
ATOM     15  C   UNL     1      -2.109  18.329  19.165  0.00  0.00    +0.000 A 
ATOM     16  C   UNL     1      -1.171  17.686  18.383  0.00  0.00    +0.000 A 
ATOM     17  C   UNL     1      -0.837  16.343  18.748  0.00  0.00    +0.000 A 
ATOM     18  C   UNL     1      -1.301  15.618  19.937  0.00  0.00    +0.000 A 
BRANCH  13  20
ATOM     19  C   UNL     1      -2.086  17.080  22.938  0.00  0.00    +0.000 C 
ATOM     20  O   UNL     1      -2.443  16.030  22.019  0.00  0.00    +0.000 OA
ENDBRANCH  13  20
BRANCH  16  21
ATOM     21  C   UNL     1      -0.378  18.460  17.333  0.00  0.00    +0.000 C 
BRANCH  21  22
ATOM     22  C   UNL     1       1.140  18.382  17.346  0.00  0.00    +0.000 C 
ATOM     23  O   UNL     1       1.827  18.183  16.352  0.00  0.00    +0.000 OA
BRANCH  22  24
ATOM     24  O   UNL     1       1.714  18.631  18.530  0.00  0.00    +0.000 OA
ATOM     25  H   UNL     1       2.624  18.283  18.616  0.00  0.00    +0.000 HD
ENDBRANCH  22  24
ENDBRANCH  21  22
ENDBRANCH  16  21
ENDBRANCH   1  18
BRANCH   6  26
ATOM     26  C   UNL     1       0.325  10.200  19.319  0.00  0.00    +0.000 C 
BRANCH  26  27
ATOM     27  C   UNL     1       1.377   9.134  19.112  0.00  0.00    +0.000 A 
ATOM     28  C   UNL     1       1.575   8.118  20.062  0.00  0.00    +0.000 A 
ATOM     29  C   UNL     1       2.326   6.987  19.734  0.00  0.00    +0.000 A 
ATOM     30  C   UNL     1       2.892   6.864  18.457  0.00  0.00    +0.000 A 
ATOM     31  C   UNL     1       2.825   7.951  17.576  0.00  0.00    +0.000 A 
ATOM     32  C   UNL     1       2.076   9.077  17.903  0.00  0.00    +0.000 A 
BRANCH  30  33
ATOM     33  C   UNL     1       3.469   5.559  17.971  0.00  0.00    +0.000 C 
ATOM     34  F   UNL     1       4.100   4.843  18.942  0.00  0.00    +0.000 F 
ATOM     35  F   UNL     1       2.496   4.734  17.483  0.00  0.00    +0.000 F 
ATOM     36  F   UNL     1       4.367   5.712  16.962  0.00  0.00    +0.000 F 
ENDBRANCH  30  33
ENDBRANCH  26  27
ENDBRANCH   6  26
TORSDOF 8
ENDMDL
MODEL 9
REMARK VINA RESULT:      -7.9      1.142      1.637
REMARK  Name = 
REMARK  9 active torsions:
REMARK  status: ('A' for Active; 'I' for Inactive)
REMARK    1  A    between atoms: C_1  and  O_2
REMARK    2  A    between atoms: O_2  and  C_3
REMARK    3  A    between atoms: C_6  and  C_7
REMARK    4  A    between atoms: C_7  and  C_8
REMARK    5  A    between atoms: C_8  and  O_10
REMARK    6  A    between atoms: C_12  and  C_13
REMARK    7  A    between atoms: N_18  and  C_19
REMARK    8  A    between atoms: C_19  and  C_20
REMARK    9  A    between atoms: C_23  and  C_24
REMARK                            x       y       z     vdW  Elec       q    Type
REMARK                         _______ _______ _______ _____ _____    ______ ____
ROOT
ATOM      1  C   UNL     1      -0.232  12.057  21.167  0.00  0.00    +0.000 C 
ATOM      2  N   UNL     1       0.693  11.437  21.839  0.00  0.00    +0.000 NA
ATOM      3  C   UNL     1       1.256  10.121  21.827  0.00  0.00    +0.000 C 
ATOM      4  C   UNL     1       0.310   9.206  21.131  0.00  0.00    +0.000 C 
ATOM      5  O   UNL     1      -0.670   8.717  21.696  0.00  0.00    +0.000 OA
ATOM      6  N   UNL     1       0.424   9.260  19.771  0.00  0.00    +0.000 N 
ATOM      7  C   UNL     1      -0.470  10.169  19.182  0.00  0.00    +0.000 A 
ATOM      8  C   UNL     1      -0.985   9.626  17.966  0.00  0.00    +0.000 A 
ATOM      9  C   UNL     1      -1.815  10.361  17.162  0.00  0.00    +0.000 A 
ATOM     10  C   UNL     1      -2.112  11.650  17.578  0.00  0.00    +0.000 A 
ATOM     11  C   UNL     1      -1.629  12.202  18.826  0.00  0.00    +0.000 A 
ATOM     12  C   UNL     1      -0.814  11.479  19.726  0.00  0.00    +0.000 A 
ENDROOT
BRANCH   1  18
ATOM     13  C   UNL     1       0.012  14.553  22.323  0.00  0.00    +0.000 A 
ATOM     14  C   UNL     1      -0.432  15.427  23.373  0.00  0.00    +0.000 A 
ATOM     15  C   UNL     1      -1.622  15.239  24.076  0.00  0.00    +0.000 A 
ATOM     16  C   UNL     1      -2.378  14.113  23.816  0.00  0.00    +0.000 A 
ATOM     17  C   UNL     1      -1.830  13.168  22.891  0.00  0.00    +0.000 A 
ATOM     18  C   UNL     1      -0.604  13.326  22.100  0.00  0.00    +0.000 A 
BRANCH  13  20
ATOM     19  C   UNL     1       1.909  15.856  22.241  0.00  0.00    +0.000 C 
ATOM     20  O   UNL     1       0.996  15.025  21.498  0.00  0.00    +0.000 OA
ENDBRANCH  13  20
BRANCH  16  21
ATOM     21  C   UNL     1      -3.815  14.014  24.320  0.00  0.00    +0.000 C 
BRANCH  21  22
ATOM     22  C   UNL     1      -4.582  12.717  24.119  0.00  0.00    +0.000 C 
ATOM     23  O   UNL     1      -4.739  11.869  24.988  0.00  0.00    +0.000 OA
BRANCH  22  24
ATOM     24  O   UNL     1      -5.167  12.580  22.923  0.00  0.00    +0.000 OA
ATOM     25  H   UNL     1      -4.557  12.680  22.164  0.00  0.00    +0.000 HD
ENDBRANCH  22  24
ENDBRANCH  21  22
ENDBRANCH  16  21
ENDBRANCH   1  18
BRANCH   6  26
ATOM     26  C   UNL     1       1.696   9.118  19.037  0.00  0.00    +0.000 C 
BRANCH  26  27
ATOM     27  C   UNL     1       2.238   7.706  19.041  0.00  0.00    +0.000 A 
ATOM     28  C   UNL     1       1.941   6.819  20.088  0.00  0.00    +0.000 A 
ATOM     29  C   UNL     1       2.191   5.452  19.944  0.00  0.00    +0.000 A 
ATOM     30  C   UNL     1       2.747   4.961  18.754  0.00  0.00    +0.000 A 
ATOM     31  C   UNL     1       3.188   5.870  17.783  0.00  0.00    +0.000 A 
ATOM     32  C   UNL     1       2.937   7.231  17.927  0.00  0.00    +0.000 A 
BRANCH  30  33
ATOM     33  C   UNL     1       2.779   3.486  18.447  0.00  0.00    +0.000 C 
ATOM     34  F   UNL     1       1.658   3.030  17.823  0.00  0.00    +0.000 F 
ATOM     35  F   UNL     1       3.814   3.172  17.613  0.00  0.00    +0.000 F 
ATOM     36  F   UNL     1       2.943   2.711  19.552  0.00  0.00    +0.000 F 
ENDBRANCH  30  33
ENDBRANCH  26  27
ENDBRANCH   6  26
TORSDOF 8
ENDMDL
