MODEL 1
REMARK VINA RESULT:      -5.7      0.000      0.000
REMARK  Name = 
REMARK  0 active torsions:
REMARK  status: ('A' for Active; 'I' for Inactive)
REMARK                            x       y       z     vdW  Elec       q    Type
REMARK                         _______ _______ _______ _____ _____    ______ ____
ROOT
ATOM      1  F   UNL     1       8.115   8.409  17.185  0.00  0.00    +0.000 F 
ATOM      2  C   UNL     1       7.470   7.343  17.677  0.00  0.00    +0.000 A 
ATOM      3  C   UNL     1       8.017   6.641  18.738  0.00  0.00    +0.000 A 
ATOM      4  C   UNL     1       7.339   5.527  19.244  0.00  0.00    +0.000 A 
ATOM      5  C   UNL     1       6.132   5.101  18.702  0.00  0.00    +0.000 A 
ATOM      6  N   UNL     1       5.525   4.017  19.212  0.00  0.00    +0.000 NA
ATOM      7  C   UNL     1       4.358   3.621  18.655  0.00  0.00    +0.000 A 
ATOM      8  C   UNL     1       3.749   4.267  17.597  0.00  0.00    +0.000 A 
ATOM      9  C   UNL     1       4.373   5.393  17.074  0.00  0.00    +0.000 A 
ATOM     10  C   UNL     1       5.587   5.831  17.619  0.00  0.00    +0.000 A 
ATOM     11  C   UNL     1       6.261   6.955  17.114  0.00  0.00    +0.000 A 
ENDROOT
TORSDOF 0
ENDMDL
MODEL 2
REMARK VINA RESULT:      -5.6      3.515      5.153
REMARK  Name = 
REMARK  0 active torsions:
REMARK  status: ('A' for Active; 'I' for Inactive)
REMARK                            x       y       z     vdW  Elec       q    Type
REMARK                         _______ _______ _______ _____ _____    ______ ____
ROOT
ATOM      1  F   UNL     1       0.483   1.887  18.436  0.00  0.00    +0.000 F 
ATOM      2  C   UNL     1       1.707   2.403  18.611  0.00  0.00    +0.000 A 
ATOM      3  C   UNL     1       2.268   2.422  19.877  0.00  0.00    +0.000 A 
ATOM      4  C   UNL     1       3.545   2.965  20.052  0.00  0.00    +0.000 A 
ATOM      5  C   UNL     1       4.263   3.496  18.987  0.00  0.00    +0.000 A 
ATOM      6  N   UNL     1       5.479   4.020  19.207  0.00  0.00    +0.000 NA
ATOM      7  C   UNL     1       6.148   4.539  18.153  0.00  0.00    +0.000 A 
ATOM      8  C   UNL     1       5.657   4.558  16.861  0.00  0.00    +0.000 A 
ATOM      9  C   UNL     1       4.402   4.009  16.632  0.00  0.00    +0.000 A 
ATOM     10  C   UNL     1       3.675   3.467  17.701  0.00  0.00    +0.000 A 
ATOM     11  C   UNL     1       2.396   2.915  17.519  0.00  0.00    +0.000 A 
ENDROOT
TORSDOF 0
ENDMDL
MODEL 3
REMARK VINA RESULT:      -5.6      3.333      5.077
REMARK  Name = 
REMARK  0 active torsions:
REMARK  status: ('A' for Active; 'I' for Inactive)
REMARK                            x       y       z     vdW  Elec       q    Type
REMARK                         _______ _______ _______ _____ _____    ______ ____
ROOT
ATOM      1  F   UNL     1       0.273   2.387  18.468  0.00  0.00    +0.000 F 
ATOM      2  C   UNL     1       1.538   2.800  18.620  0.00  0.00    +0.000 A 
ATOM      3  C   UNL     1       2.420   2.044  19.375  0.00  0.00    +0.000 A 
ATOM      4  C   UNL     1       3.738   2.485  19.532  0.00  0.00    +0.000 A 
ATOM      5  C   UNL     1       4.184   3.669  18.957  0.00  0.00    +0.000 A 
ATOM      6  N   UNL     1       5.455   4.058  19.148  0.00  0.00    +0.000 NA
ATOM      7  C   UNL     1       5.855   5.221  18.585  0.00  0.00    +0.000 A 
ATOM      8  C   UNL     1       5.037   6.030  17.820  0.00  0.00    +0.000 A 
ATOM      9  C   UNL     1       3.724   5.623  17.616  0.00  0.00    +0.000 A 
ATOM     10  C   UNL     1       3.270   4.428  18.189  0.00  0.00    +0.000 A 
ATOM     11  C   UNL     1       1.947   3.984  18.021  0.00  0.00    +0.000 A 
ENDROOT
TORSDOF 0
ENDMDL
MODEL 4
REMARK VINA RESULT:      -5.6      3.782      5.277
REMARK  Name = 
REMARK  0 active torsions:
REMARK  status: ('A' for Active; 'I' for Inactive)
REMARK                            x       y       z     vdW  Elec       q    Type
REMARK                         _______ _______ _______ _____ _____    ______ ____
ROOT
ATOM      1  F   UNL     1       0.688   1.935  18.675  0.00  0.00    +0.000 F 
ATOM      2  C   UNL     1       1.664   2.762  18.281  0.00  0.00    +0.000 A 
ATOM      3  C   UNL     1       2.828   2.241  17.740  0.00  0.00    +0.000 A 
ATOM      4  C   UNL     1       3.844   3.112  17.335  0.00  0.00    +0.000 A 
ATOM      5  C   UNL     1       3.721   4.490  17.470  0.00  0.00    +0.000 A 
ATOM      6  N   UNL     1       4.730   5.285  17.080  0.00  0.00    +0.000 NA
ATOM      7  C   UNL     1       4.584   6.620  17.235  0.00  0.00    +0.000 A 
ATOM      8  C   UNL     1       3.456   7.216  17.766  0.00  0.00    +0.000 A 
ATOM      9  C   UNL     1       2.409   6.394  18.163  0.00  0.00    +0.000 A 
ATOM     10  C   UNL     1       2.525   5.005  18.024  0.00  0.00    +0.000 A 
ATOM     11  C   UNL     1       1.498   4.134  18.425  0.00  0.00    +0.000 A 
ENDROOT
TORSDOF 0
ENDMDL
MODEL 5
REMARK VINA RESULT:      -5.5      2.342      3.902
REMARK  Name = 
REMARK  0 active torsions:
REMARK  status: ('A' for Active; 'I' for Inactive)
REMARK                            x       y       z     vdW  Elec       q    Type
REMARK                         _______ _______ _______ _____ _____    ______ ____
ROOT
ATOM      1  F   UNL     1       1.824   4.842  17.467  0.00  0.00    +0.000 F 
ATOM      2  C   UNL     1       3.084   4.931  17.911  0.00  0.00    +0.000 A 
ATOM      3  C   UNL     1       3.509   4.103  18.937  0.00  0.00    +0.000 A 
ATOM      4  C   UNL     1       4.826   4.204  19.398  0.00  0.00    +0.000 A 
ATOM      5  C   UNL     1       5.719   5.122  18.857  0.00  0.00    +0.000 A 
ATOM      6  N   UNL     1       6.969   5.192  19.342  0.00  0.00    +0.000 NA
ATOM      7  C   UNL     1       7.809   6.104  18.803  0.00  0.00    +0.000 A 
ATOM      8  C   UNL     1       7.462   6.964  17.778  0.00  0.00    +0.000 A 
ATOM      9  C   UNL     1       6.171   6.886  17.271  0.00  0.00    +0.000 A 
ATOM     10  C   UNL     1       5.268   5.959  17.809  0.00  0.00    +0.000 A 
ATOM     11  C   UNL     1       3.948   5.855  17.338  0.00  0.00    +0.000 A 
ENDROOT
TORSDOF 0
ENDMDL
MODEL 6
REMARK VINA RESULT:      -5.5      3.704      5.388
REMARK  Name = 
REMARK  0 active torsions:
REMARK  status: ('A' for Active; 'I' for Inactive)
REMARK                            x       y       z     vdW  Elec       q    Type
REMARK                         _______ _______ _______ _____ _____    ______ ____
ROOT
ATOM      1  F   UNL     1       0.091   2.046  18.608  0.00  0.00    +0.000 F 
ATOM      2  C   UNL     1       1.120   2.875  18.823  0.00  0.00    +0.000 A 
ATOM      3  C   UNL     1       1.169   3.619  19.990  0.00  0.00    +0.000 A 
ATOM      4  C   UNL     1       2.245   4.486  20.206  0.00  0.00    +0.000 A 
ATOM      5  C   UNL     1       3.264   4.627  19.272  0.00  0.00    +0.000 A 
ATOM      6  N   UNL     1       4.270   5.483  19.516  0.00  0.00    +0.000 NA
ATOM      7  C   UNL     1       5.240   5.608  18.583  0.00  0.00    +0.000 A 
ATOM      8  C   UNL     1       5.263   4.902  17.394  0.00  0.00    +0.000 A 
ATOM      9  C   UNL     1       4.226   4.011  17.145  0.00  0.00    +0.000 A 
ATOM     10  C   UNL     1       3.199   3.860  18.085  0.00  0.00    +0.000 A 
ATOM     11  C   UNL     1       2.123   2.981  17.869  0.00  0.00    +0.000 A 
ENDROOT
TORSDOF 0
ENDMDL
MODEL 7
REMARK VINA RESULT:      -5.5      3.800      5.338
REMARK  Name = 
REMARK  0 active torsions:
REMARK  status: ('A' for Active; 'I' for Inactive)
REMARK                            x       y       z     vdW  Elec       q    Type
REMARK                         _______ _______ _______ _____ _____    ______ ____
ROOT
ATOM      1  F   UNL     1       0.264   2.847  19.693  0.00  0.00    +0.000 F 
ATOM      2  C   UNL     1       1.323   3.181  18.944  0.00  0.00    +0.000 A 
ATOM      3  C   UNL     1       2.020   2.195  18.265  0.00  0.00    +0.000 A 
ATOM      4  C   UNL     1       3.127   2.552  17.487  0.00  0.00    +0.000 A 
ATOM      5  C   UNL     1       3.551   3.872  17.385  0.00  0.00    +0.000 A 
ATOM      6  N   UNL     1       4.628   4.164  16.638  0.00  0.00    +0.000 NA
ATOM      7  C   UNL     1       5.022   5.455  16.569  0.00  0.00    +0.000 A 
ATOM      8  C   UNL     1       4.380   6.494  17.215  0.00  0.00    +0.000 A 
ATOM      9  C   UNL     1       3.261   6.193  17.982  0.00  0.00    +0.000 A 
ATOM     10  C   UNL     1       2.826   4.866  18.085  0.00  0.00    +0.000 A 
ATOM     11  C   UNL     1       1.709   4.512  18.860  0.00  0.00    +0.000 A 
ENDROOT
TORSDOF 0
ENDMDL
MODEL 8
REMARK VINA RESULT:      -5.4      2.954      3.923
REMARK  Name = 
REMARK  0 active torsions:
REMARK  status: ('A' for Active; 'I' for Inactive)
REMARK                            x       y       z     vdW  Elec       q    Type
REMARK                         _______ _______ _______ _____ _____    ______ ____
ROOT
ATOM      1  F   UNL     1       4.517   6.749  16.760  0.00  0.00    +0.000 F 
ATOM      2  C   UNL     1       4.005   5.666  17.359  0.00  0.00    +0.000 A 
ATOM      3  C   UNL     1       4.350   4.403  16.904  0.00  0.00    +0.000 A 
ATOM      4  C   UNL     1       3.808   3.277  17.533  0.00  0.00    +0.000 A 
ATOM      5  C   UNL     1       2.924   3.393  18.599  0.00  0.00    +0.000 A 
ATOM      6  N   UNL     1       2.419   2.283  19.161  0.00  0.00    +0.000 NA
ATOM      7  C   UNL     1       1.552   2.429  20.189  0.00  0.00    +0.000 A 
ATOM      8  C   UNL     1       1.160   3.652  20.699  0.00  0.00    +0.000 A 
ATOM      9  C   UNL     1       1.688   4.800  20.123  0.00  0.00    +0.000 A 
ATOM     10  C   UNL     1       2.584   4.690  19.051  0.00  0.00    +0.000 A 
ATOM     11  C   UNL     1       3.132   5.823  18.427  0.00  0.00    +0.000 A 
ENDROOT
TORSDOF 0
ENDMDL
MODEL 9
REMARK VINA RESULT:      -5.4      3.958      5.824
REMARK  Name = 
REMARK  0 active torsions:
REMARK  status: ('A' for Active; 'I' for Inactive)
REMARK                            x       y       z     vdW  Elec       q    Type
REMARK                         _______ _______ _______ _____ _____    ______ ____
ROOT
ATOM      1  F   UNL     1       1.032   2.552  21.979  0.00  0.00    +0.000 F 
ATOM      2  C   UNL     1       1.547   2.873  20.785  0.00  0.00    +0.000 A 
ATOM      3  C   UNL     1       0.735   2.863  19.663  0.00  0.00    +0.000 A 
ATOM      4  C   UNL     1       1.281   3.196  18.419  0.00  0.00    +0.000 A 
ATOM      5  C   UNL     1       2.624   3.528  18.278  0.00  0.00    +0.000 A 
ATOM      6  N   UNL     1       3.106   3.826  17.061  0.00  0.00    +0.000 NA
ATOM      7  C   UNL     1       4.419   4.133  16.955  0.00  0.00    +0.000 A 
ATOM      8  C   UNL     1       5.293   4.164  18.026  0.00  0.00    +0.000 A 
ATOM      9  C   UNL     1       4.792   3.863  19.286  0.00  0.00    +0.000 A 
ATOM     10  C   UNL     1       3.438   3.533  19.435  0.00  0.00    +0.000 A 
ATOM     11  C   UNL     1       2.891   3.208  20.688  0.00  0.00    +0.000 A 
ENDROOT
TORSDOF 0
ENDMDL
