MODEL 1
REMARK VINA RESULT:      -7.3      0.000      0.000
REMARK  Name = 
REMARK  7 active torsions:
REMARK  status: ('A' for Active; 'I' for Inactive)
REMARK    1  A    between atoms: C_1  and  C_2
REMARK    2  A    between atoms: C_4  and  C_5
REMARK    3  A    between atoms: C_5  and  N_6
REMARK    4  A    between atoms: C_10  and  C_11
REMARK    5  A    between atoms: C_11  and  N_12
REMARK    6  A    between atoms: N_12  and  C_13
REMARK    7  A    between atoms: C_14  and  C_16
REMARK                            x       y       z     vdW  Elec       q    Type
REMARK                         _______ _______ _______ _____ _____    ______ ____
ROOT
ATOM      1  N   UNL     1       5.268   4.458  18.034  0.00  0.00    +0.000 NA
ATOM      2  C   UNL     1       4.468   4.287  16.814  0.00  0.00    +0.000 C 
ATOM      3  C   UNL     1       3.021   3.899  17.140  0.00  0.00    +0.000 C 
ATOM      4  C   UNL     1       2.434   4.760  18.217  0.00  0.00    +0.000 C 
ATOM      5  C   UNL     1       3.204   5.506  19.036  0.00  0.00    +0.000 C 
ATOM      6  C   UNL     1       4.718   5.480  18.941  0.00  0.00    +0.000 C 
ENDROOT
BRANCH   1   7
ATOM      7  C   UNL     1       6.706   4.640  17.738  0.00  0.00    +0.000 C 
BRANCH   7  11
ATOM      8  C   UNL     1       8.590   9.350  18.454  0.00  0.00    +0.000 C 
ATOM      9  C   UNL     1       7.998   8.074  18.020  0.00  0.00    +0.000 A 
ATOM     10  C   UNL     1       7.950   6.810  18.549  0.00  0.00    +0.000 A 
ATOM     11  C   UNL     1       7.151   6.074  17.640  0.00  0.00    +0.000 A 
ATOM     12  N   UNL     1       6.808   6.831  16.587  0.00  0.00    +0.000 NA
ATOM     13  O   UNL     1       7.327   8.088  16.837  0.00  0.00    +0.000 OA
ENDBRANCH   7  11
ENDBRANCH   1   7
BRANCH   5  14
ATOM     14  C   UNL     1       2.592   6.554  19.939  0.00  0.00    +0.000 C 
BRANCH  14  15
ATOM     15  N   UNL     1       2.055   7.739  19.273  0.00  0.00    +0.000 N 
ATOM     16  C   UNL     1       2.633   8.174  18.005  0.00  0.00    +0.000 C 
ATOM     17  C   UNL     1       1.361   8.650  20.102  0.00  0.00    +0.000 C 
ATOM     18  O   UNL     1       1.255   8.440  21.311  0.00  0.00    +0.000 OA
BRANCH  17  19
ATOM     19  C   UNL     1       0.798   9.854  19.505  0.00  0.00    +0.000 A 
ATOM     20  C   UNL     1       1.245  11.164  19.528  0.00  0.00    +0.000 A 
ATOM     21  C   UNL     1       0.303  11.934  18.801  0.00  0.00    +0.000 A 
ATOM     22  C   UNL     1      -0.676  11.057  18.403  0.00  0.00    +0.000 A 
ATOM     23  O   UNL     1      -0.392   9.800  18.827  0.00  0.00    +0.000 OA
ENDBRANCH  17  19
ENDBRANCH  14  15
ENDBRANCH   5  14
TORSDOF 5
ENDMDL
MODEL 2
REMARK VINA RESULT:      -7.1      2.078      2.982
REMARK  Name = 
REMARK  7 active torsions:
REMARK  status: ('A' for Active; 'I' for Inactive)
REMARK    1  A    between atoms: C_1  and  C_2
REMARK    2  A    between atoms: C_4  and  C_5
REMARK    3  A    between atoms: C_5  and  N_6
REMARK    4  A    between atoms: C_10  and  C_11
REMARK    5  A    between atoms: C_11  and  N_12
REMARK    6  A    between atoms: N_12  and  C_13
REMARK    7  A    between atoms: C_14  and  C_16
REMARK                            x       y       z     vdW  Elec       q    Type
REMARK                         _______ _______ _______ _____ _____    ______ ____
ROOT
ATOM      1  N   UNL     1       5.102   4.805  18.449  0.00  0.00    +0.000 NA
ATOM      2  C   UNL     1       4.221   3.695  18.063  0.00  0.00    +0.000 C 
ATOM      3  C   UNL     1       2.845   3.811  18.730  0.00  0.00    +0.000 C 
ATOM      4  C   UNL     1       2.278   5.194  18.619  0.00  0.00    +0.000 C 
ATOM      5  C   UNL     1       3.046   6.260  18.313  0.00  0.00    +0.000 C 
ATOM      6  C   UNL     1       4.544   6.125  18.108  0.00  0.00    +0.000 C 
ENDROOT
BRANCH   1   7
ATOM      7  C   UNL     1       6.489   4.608  17.974  0.00  0.00    +0.000 C 
BRANCH   7  11
ATOM      8  C   UNL     1       6.511   3.867  12.904  0.00  0.00    +0.000 C 
ATOM      9  C   UNL     1       6.614   4.295  14.309  0.00  0.00    +0.000 A 
ATOM     10  C   UNL     1       6.087   3.840  15.491  0.00  0.00    +0.000 A 
ATOM     11  C   UNL     1       6.658   4.678  16.480  0.00  0.00    +0.000 A 
ATOM     12  N   UNL     1       7.417   5.630  15.918  0.00  0.00    +0.000 NA
ATOM     13  O   UNL     1       7.399   5.377  14.559  0.00  0.00    +0.000 OA
ENDBRANCH   7  11
ENDBRANCH   1   7
BRANCH   5  14
ATOM     14  C   UNL     1       2.423   7.592  17.956  0.00  0.00    +0.000 C 
BRANCH  14  15
ATOM     15  N   UNL     1       1.917   8.384  19.075  0.00  0.00    +0.000 N 
ATOM     16  C   UNL     1       1.896   7.802  20.413  0.00  0.00    +0.000 C 
ATOM     17  C   UNL     1       1.051   9.448  18.734  0.00  0.00    +0.000 C 
ATOM     18  O   UNL     1       0.743   9.652  17.559  0.00  0.00    +0.000 OA
BRANCH  17  19
ATOM     19  C   UNL     1       0.510  10.281  19.800  0.00  0.00    +0.000 A 
ATOM     20  C   UNL     1      -0.724  10.249  20.430  0.00  0.00    +0.000 A 
ATOM     21  C   UNL     1      -0.728  11.298  21.381  0.00  0.00    +0.000 A 
ATOM     22  C   UNL     1       0.487  11.927  21.257  0.00  0.00    +0.000 A 
ATOM     23  O   UNL     1       1.240  11.326  20.302  0.00  0.00    +0.000 OA
ENDBRANCH  17  19
ENDBRANCH  14  15
ENDBRANCH   5  14
TORSDOF 5
ENDMDL
MODEL 3
REMARK VINA RESULT:      -7.1      1.866      2.631
REMARK  Name = 
REMARK  7 active torsions:
REMARK  status: ('A' for Active; 'I' for Inactive)
REMARK    1  A    between atoms: C_1  and  C_2
REMARK    2  A    between atoms: C_4  and  C_5
REMARK    3  A    between atoms: C_5  and  N_6
REMARK    4  A    between atoms: C_10  and  C_11
REMARK    5  A    between atoms: C_11  and  N_12
REMARK    6  A    between atoms: N_12  and  C_13
REMARK    7  A    between atoms: C_14  and  C_16
REMARK                            x       y       z     vdW  Elec       q    Type
REMARK                         _______ _______ _______ _____ _____    ______ ____
ROOT
ATOM      1  N   UNL     1       4.889   4.479  18.141  0.00  0.00    +0.000 NA
ATOM      2  C   UNL     1       4.012   4.294  16.977  0.00  0.00    +0.000 C 
ATOM      3  C   UNL     1       2.571   3.986  17.403  0.00  0.00    +0.000 C 
ATOM      4  C   UNL     1       2.087   4.917  18.472  0.00  0.00    +0.000 C 
ATOM      5  C   UNL     1       2.934   5.662  19.212  0.00  0.00    +0.000 C 
ATOM      6  C   UNL     1       4.438   5.563  19.031  0.00  0.00    +0.000 C 
ENDROOT
BRANCH   1   7
ATOM      7  C   UNL     1       6.313   4.583  17.755  0.00  0.00    +0.000 C 
BRANCH   7  11
ATOM      8  C   UNL     1       6.611   3.815  12.699  0.00  0.00    +0.000 C 
ATOM      9  C   UNL     1       6.636   4.251  14.105  0.00  0.00    +0.000 A 
ATOM     10  C   UNL     1       6.050   3.799  15.260  0.00  0.00    +0.000 A 
ATOM     11  C   UNL     1       6.561   4.646  16.273  0.00  0.00    +0.000 A 
ATOM     12  N   UNL     1       7.341   5.601  15.746  0.00  0.00    +0.000 NA
ATOM     13  O   UNL     1       7.398   5.340  14.389  0.00  0.00    +0.000 OA
ENDBRANCH   7  11
ENDBRANCH   1   7
BRANCH   5  14
ATOM     14  C   UNL     1       2.422   6.774  20.100  0.00  0.00    +0.000 C 
BRANCH  14  15
ATOM     15  N   UNL     1       1.860   7.935  19.413  0.00  0.00    +0.000 N 
ATOM     16  C   UNL     1       2.413   8.344  18.126  0.00  0.00    +0.000 C 
ATOM     17  C   UNL     1       1.169   8.858  20.231  0.00  0.00    +0.000 C 
ATOM     18  O   UNL     1       1.085   8.678  21.446  0.00  0.00    +0.000 OA
BRANCH  17  19
ATOM     19  C   UNL     1       0.581  10.040  19.613  0.00  0.00    +0.000 A 
ATOM     20  C   UNL     1      -0.614  10.199  18.931  0.00  0.00    +0.000 A 
ATOM     21  C   UNL     1      -0.679  11.555  18.525  0.00  0.00    +0.000 A 
ATOM     22  C   UNL     1       0.489  12.136  18.956  0.00  0.00    +0.000 A 
ATOM     23  O   UNL     1       1.260  11.230  19.609  0.00  0.00    +0.000 OA
ENDBRANCH  17  19
ENDBRANCH  14  15
ENDBRANCH   5  14
TORSDOF 5
ENDMDL
MODEL 4
REMARK VINA RESULT:      -6.9      1.205      1.437
REMARK  Name = 
REMARK  7 active torsions:
REMARK  status: ('A' for Active; 'I' for Inactive)
REMARK    1  A    between atoms: C_1  and  C_2
REMARK    2  A    between atoms: C_4  and  C_5
REMARK    3  A    between atoms: C_5  and  N_6
REMARK    4  A    between atoms: C_10  and  C_11
REMARK    5  A    between atoms: C_11  and  N_12
REMARK    6  A    between atoms: N_12  and  C_13
REMARK    7  A    between atoms: C_14  and  C_16
REMARK                            x       y       z     vdW  Elec       q    Type
REMARK                         _______ _______ _______ _____ _____    ______ ____
ROOT
ATOM      1  N   UNL     1       4.264   4.197  18.181  0.00  0.00    +0.000 NA
ATOM      2  C   UNL     1       3.150   3.888  17.275  0.00  0.00    +0.000 C 
ATOM      3  C   UNL     1       1.841   3.675  18.045  0.00  0.00    +0.000 C 
ATOM      4  C   UNL     1       1.605   4.748  19.065  0.00  0.00    +0.000 C 
ATOM      5  C   UNL     1       2.594   5.558  19.495  0.00  0.00    +0.000 C 
ATOM      6  C   UNL     1       4.020   5.397  19.000  0.00  0.00    +0.000 C 
ENDROOT
BRANCH   1   7
ATOM      7  C   UNL     1       5.566   4.212  17.480  0.00  0.00    +0.000 C 
BRANCH   7  11
ATOM      8  C   UNL     1       8.246   8.563  17.850  0.00  0.00    +0.000 C 
ATOM      9  C   UNL     1       7.580   7.255  17.959  0.00  0.00    +0.000 A 
ATOM     10  C   UNL     1       6.556   6.640  17.284  0.00  0.00    +0.000 A 
ATOM     11  C   UNL     1       6.473   5.350  17.863  0.00  0.00    +0.000 A 
ATOM     12  N   UNL     1       7.340   5.227  18.879  0.00  0.00    +0.000 NA
ATOM     13  O   UNL     1       8.042   6.417  18.926  0.00  0.00    +0.000 OA
ENDBRANCH   7  11
ENDBRANCH   1   7
BRANCH   5  14
ATOM     14  C   UNL     1       2.291   6.788  20.322  0.00  0.00    +0.000 C 
BRANCH  14  15
ATOM     15  N   UNL     1       1.746   7.931  19.593  0.00  0.00    +0.000 N 
ATOM     16  C   UNL     1       2.314   8.293  18.298  0.00  0.00    +0.000 C 
ATOM     17  C   UNL     1       1.058   8.888  20.375  0.00  0.00    +0.000 C 
ATOM     18  O   UNL     1       0.963   8.748  21.594  0.00  0.00    +0.000 OA
BRANCH  17  19
ATOM     19  C   UNL     1       0.488  10.055  19.714  0.00  0.00    +0.000 A 
ATOM     20  C   UNL     1      -0.692  10.200  19.003  0.00  0.00    +0.000 A 
ATOM     21  C   UNL     1      -0.744  11.545  18.561  0.00  0.00    +0.000 A 
ATOM     22  C   UNL     1       0.417  12.133  18.999  0.00  0.00    +0.000 A 
ATOM     23  O   UNL     1       1.172  11.242  19.691  0.00  0.00    +0.000 OA
ENDBRANCH  17  19
ENDBRANCH  14  15
ENDBRANCH   5  14
TORSDOF 5
ENDMDL
MODEL 5
REMARK VINA RESULT:      -6.8      1.266      1.793
REMARK  Name = 
REMARK  7 active torsions:
REMARK  status: ('A' for Active; 'I' for Inactive)
REMARK    1  A    between atoms: C_1  and  C_2
REMARK    2  A    between atoms: C_4  and  C_5
REMARK    3  A    between atoms: C_5  and  N_6
REMARK    4  A    between atoms: C_10  and  C_11
REMARK    5  A    between atoms: C_11  and  N_12
REMARK    6  A    between atoms: N_12  and  C_13
REMARK    7  A    between atoms: C_14  and  C_16
REMARK                            x       y       z     vdW  Elec       q    Type
REMARK                         _______ _______ _______ _____ _____    ______ ____
ROOT
ATOM      1  N   UNL     1       4.890   4.588  18.143  0.00  0.00    +0.000 NA
ATOM      2  C   UNL     1       4.099   3.640  17.347  0.00  0.00    +0.000 C 
ATOM      3  C   UNL     1       2.626   3.642  17.773  0.00  0.00    +0.000 C 
ATOM      4  C   UNL     1       2.079   5.030  17.911  0.00  0.00    +0.000 C 
ATOM      5  C   UNL     1       2.882   6.109  18.016  0.00  0.00    +0.000 C 
ATOM      6  C   UNL     1       4.393   5.971  18.047  0.00  0.00    +0.000 C 
ENDROOT
BRANCH   1   7
ATOM      7  C   UNL     1       6.341   4.461  17.881  0.00  0.00    +0.000 C 
BRANCH   7  11
ATOM      8  C   UNL     1       8.680   8.991  18.383  0.00  0.00    +0.000 C 
ATOM      9  C   UNL     1       8.069   7.707  18.001  0.00  0.00    +0.000 A 
ATOM     10  C   UNL     1       7.562   6.641  18.699  0.00  0.00    +0.000 A 
ATOM     11  C   UNL     1       7.064   5.767  17.702  0.00  0.00    +0.000 A 
ATOM     12  N   UNL     1       7.332   6.243  16.476  0.00  0.00    +0.000 NA
ATOM     13  O   UNL     1       7.947   7.466  16.668  0.00  0.00    +0.000 OA
ENDBRANCH   7  11
ENDBRANCH   1   7
BRANCH   5  14
ATOM     14  C   UNL     1       2.324   7.510  17.897  0.00  0.00    +0.000 C 
BRANCH  14  15
ATOM     15  N   UNL     1       1.901   8.140  19.146  0.00  0.00    +0.000 N 
ATOM     16  C   UNL     1       1.958   7.378  20.389  0.00  0.00    +0.000 C 
ATOM     17  C   UNL     1       1.029   9.245  19.013  0.00  0.00    +0.000 C 
ATOM     18  O   UNL     1       0.649   9.612  17.901  0.00  0.00    +0.000 OA
BRANCH  17  19
ATOM     19  C   UNL     1       0.567   9.923  20.218  0.00  0.00    +0.000 A 
ATOM     20  C   UNL     1      -0.217   9.466  21.264  0.00  0.00    +0.000 A 
ATOM     21  C   UNL     1      -0.375  10.549  22.164  0.00  0.00    +0.000 A 
ATOM     22  C   UNL     1       0.294  11.609  21.602  0.00  0.00    +0.000 A 
ATOM     23  O   UNL     1       0.862  11.245  20.425  0.00  0.00    +0.000 OA
ENDBRANCH  17  19
ENDBRANCH  14  15
ENDBRANCH   5  14
TORSDOF 5
ENDMDL
MODEL 6
REMARK VINA RESULT:      -6.8      2.932      7.881
REMARK  Name = 
REMARK  7 active torsions:
REMARK  status: ('A' for Active; 'I' for Inactive)
REMARK    1  A    between atoms: C_1  and  C_2
REMARK    2  A    between atoms: C_4  and  C_5
REMARK    3  A    between atoms: C_5  and  N_6
REMARK    4  A    between atoms: C_10  and  C_11
REMARK    5  A    between atoms: C_11  and  N_12
REMARK    6  A    between atoms: N_12  and  C_13
REMARK    7  A    between atoms: C_14  and  C_16
REMARK                            x       y       z     vdW  Elec       q    Type
REMARK                         _______ _______ _______ _____ _____    ______ ____
ROOT
ATOM      1  N   UNL     1       0.920   9.157  20.809  0.00  0.00    +0.000 NA
ATOM      2  C   UNL     1       0.361   9.504  19.496  0.00  0.00    +0.000 C 
ATOM      3  C   UNL     1       1.419   9.409  18.391  0.00  0.00    +0.000 C 
ATOM      4  C   UNL     1       2.210   8.139  18.474  0.00  0.00    +0.000 C 
ATOM      5  C   UNL     1       2.234   7.382  19.590  0.00  0.00    +0.000 C 
ATOM      6  C   UNL     1       1.493   7.801  20.847  0.00  0.00    +0.000 C 
ENDROOT
BRANCH   1   7
ATOM      7  C   UNL     1      -0.029   9.429  21.910  0.00  0.00    +0.000 C 
BRANCH   7  11
ATOM      8  C   UNL     1      -1.725  14.042  23.359  0.00  0.00    +0.000 C 
ATOM      9  C   UNL     1      -1.031  12.835  22.878  0.00  0.00    +0.000 A 
ATOM     10  C   UNL     1      -1.277  11.489  22.966  0.00  0.00    +0.000 A 
ATOM     11  C   UNL     1      -0.238  10.888  22.215  0.00  0.00    +0.000 A 
ATOM     12  N   UNL     1       0.627  11.814  21.773  0.00  0.00    +0.000 NA
ATOM     13  O   UNL     1       0.117  13.034  22.177  0.00  0.00    +0.000 OA
ENDBRANCH   7  11
ENDBRANCH   1   7
BRANCH   5  14
ATOM     14  C   UNL     1       2.822   5.988  19.573  0.00  0.00    +0.000 C 
BRANCH  14  15
ATOM     15  N   UNL     1       3.280   5.501  18.274  0.00  0.00    +0.000 N 
ATOM     16  C   UNL     1       2.439   4.581  17.514  0.00  0.00    +0.000 C 
ATOM     17  C   UNL     1       4.676   5.555  18.054  0.00  0.00    +0.000 C 
ATOM     18  O   UNL     1       5.432   5.969  18.933  0.00  0.00    +0.000 OA
BRANCH  17  19
ATOM     19  C   UNL     1       5.204   5.087  16.779  0.00  0.00    +0.000 A 
ATOM     20  C   UNL     1       5.335   5.740  15.565  0.00  0.00    +0.000 A 
ATOM     21  C   UNL     1       5.892   4.808  14.654  0.00  0.00    +0.000 A 
ATOM     22  C   UNL     1       6.041   3.636  15.355  0.00  0.00    +0.000 A 
ATOM     23  O   UNL     1       5.623   3.790  16.637  0.00  0.00    +0.000 OA
ENDBRANCH  17  19
ENDBRANCH  14  15
ENDBRANCH   5  14
TORSDOF 5
ENDMDL
MODEL 7
REMARK VINA RESULT:      -6.7      1.363      2.038
REMARK  Name = 
REMARK  7 active torsions:
REMARK  status: ('A' for Active; 'I' for Inactive)
REMARK    1  A    between atoms: C_1  and  C_2
REMARK    2  A    between atoms: C_4  and  C_5
REMARK    3  A    between atoms: C_5  and  N_6
REMARK    4  A    between atoms: C_10  and  C_11
REMARK    5  A    between atoms: C_11  and  N_12
REMARK    6  A    between atoms: N_12  and  C_13
REMARK    7  A    between atoms: C_14  and  C_16
REMARK                            x       y       z     vdW  Elec       q    Type
REMARK                         _______ _______ _______ _____ _____    ______ ____
ROOT
ATOM      1  N   UNL     1       3.220   4.442  18.541  0.00  0.00    +0.000 NA
ATOM      2  C   UNL     1       1.890   3.836  18.390  0.00  0.00    +0.000 C 
ATOM      3  C   UNL     1       1.111   3.854  19.711  0.00  0.00    +0.000 C 
ATOM      4  C   UNL     1       1.172   5.192  20.385  0.00  0.00    +0.000 C 
ATOM      5  C   UNL     1       2.098   6.116  20.057  0.00  0.00    +0.000 C 
ATOM      6  C   UNL     1       3.164   5.835  19.014  0.00  0.00    +0.000 C 
ENDROOT
BRANCH   1   7
ATOM      7  C   UNL     1       4.056   4.259  17.334  0.00  0.00    +0.000 C 
BRANCH   7  11
ATOM      8  C   UNL     1       7.800   7.743  17.638  0.00  0.00    +0.000 C 
ATOM      9  C   UNL     1       6.710   6.808  17.313  0.00  0.00    +0.000 A 
ATOM     10  C   UNL     1       6.123   5.755  17.968  0.00  0.00    +0.000 A 
ATOM     11  C   UNL     1       5.078   5.340  17.108  0.00  0.00    +0.000 A 
ATOM     12  N   UNL     1       5.089   6.048  15.968  0.00  0.00    +0.000 NA
ATOM     13  O   UNL     1       6.104   6.977  16.108  0.00  0.00    +0.000 OA
ENDBRANCH   7  11
ENDBRANCH   1   7
BRANCH   5  14
ATOM     14  C   UNL     1       1.988   7.540  20.558  0.00  0.00    +0.000 C 
BRANCH  14  15
ATOM     15  N   UNL     1       1.320   8.483  19.665  0.00  0.00    +0.000 N 
ATOM     16  C   UNL     1       1.934   8.816  18.383  0.00  0.00    +0.000 C 
ATOM     17  C   UNL     1       0.401   9.366  20.278  0.00  0.00    +0.000 C 
ATOM     18  O   UNL     1       0.217   9.332  21.495  0.00  0.00    +0.000 OA
BRANCH  17  19
ATOM     19  C   UNL     1      -0.303  10.335  19.446  0.00  0.00    +0.000 A 
ATOM     20  C   UNL     1      -1.386  10.174  18.598  0.00  0.00    +0.000 A 
ATOM     21  C   UNL     1      -1.651  11.442  18.023  0.00  0.00    +0.000 A 
ATOM     22  C   UNL     1      -0.699  12.293  18.529  0.00  0.00    +0.000 A 
ATOM     23  O   UNL     1       0.124  11.635  19.384  0.00  0.00    +0.000 OA
ENDBRANCH  17  19
ENDBRANCH  14  15
ENDBRANCH   5  14
TORSDOF 5
ENDMDL
MODEL 8
REMARK VINA RESULT:      -6.6      2.472      7.257
REMARK  Name = 
REMARK  7 active torsions:
REMARK  status: ('A' for Active; 'I' for Inactive)
REMARK    1  A    between atoms: C_1  and  C_2
REMARK    2  A    between atoms: C_4  and  C_5
REMARK    3  A    between atoms: C_5  and  N_6
REMARK    4  A    between atoms: C_10  and  C_11
REMARK    5  A    between atoms: C_11  and  N_12
REMARK    6  A    between atoms: N_12  and  C_13
REMARK    7  A    between atoms: C_14  and  C_16
REMARK                            x       y       z     vdW  Elec       q    Type
REMARK                         _______ _______ _______ _____ _____    ______ ____
ROOT
ATOM      1  N   UNL     1       2.138   6.021  19.704  0.00  0.00    +0.000 NA
ATOM      2  C   UNL     1       1.899   4.573  19.655  0.00  0.00    +0.000 C 
ATOM      3  C   UNL     1       2.171   4.005  18.257  0.00  0.00    +0.000 C 
ATOM      4  C   UNL     1       3.469   4.495  17.691  0.00  0.00    +0.000 C 
ATOM      5  C   UNL     1       4.104   5.576  18.188  0.00  0.00    +0.000 C 
ATOM      6  C   UNL     1       3.514   6.388  19.326  0.00  0.00    +0.000 C 
ENDROOT
BRANCH   1   7
ATOM      7  C   UNL     1       1.697   6.617  20.984  0.00  0.00    +0.000 C 
BRANCH   7  11
ATOM      8  C   UNL     1       0.743  11.474  19.666  0.00  0.00    +0.000 C 
ATOM      9  C   UNL     1       0.981  10.156  20.276  0.00  0.00    +0.000 A 
ATOM     10  C   UNL     1       1.104   8.881  19.786  0.00  0.00    +0.000 A 
ATOM     11  C   UNL     1       1.399   8.090  20.923  0.00  0.00    +0.000 A 
ATOM     12  N   UNL     1       1.373   8.833  22.040  0.00  0.00    +0.000 NA
ATOM     13  O   UNL     1       1.127  10.130  21.628  0.00  0.00    +0.000 OA
ENDBRANCH   7  11
ENDBRANCH   1   7
BRANCH   5  14
ATOM     14  C   UNL     1       5.524   5.902  17.779  0.00  0.00    +0.000 C 
BRANCH  14  15
ATOM     15  N   UNL     1       6.047   5.160  16.634  0.00  0.00    +0.000 N 
ATOM     16  C   UNL     1       7.166   4.242  16.824  0.00  0.00    +0.000 C 
ATOM     17  C   UNL     1       5.776   5.717  15.363  0.00  0.00    +0.000 C 
ATOM     18  O   UNL     1       5.156   6.776  15.264  0.00  0.00    +0.000 OA
BRANCH  17  19
ATOM     19  C   UNL     1       6.267   5.029  14.176  0.00  0.00    +0.000 A 
ATOM     20  C   UNL     1       5.795   3.898  13.531  0.00  0.00    +0.000 A 
ATOM     21  C   UNL     1       6.662   3.655  12.438  0.00  0.00    +0.000 A 
ATOM     22  C   UNL     1       7.627   4.630  12.495  0.00  0.00    +0.000 A 
ATOM     23  O   UNL     1       7.403   5.462  13.544  0.00  0.00    +0.000 OA
ENDBRANCH  17  19
ENDBRANCH  14  15
ENDBRANCH   5  14
TORSDOF 5
ENDMDL
MODEL 9
REMARK VINA RESULT:      -6.6      1.439      2.001
REMARK  Name = 
REMARK  7 active torsions:
REMARK  status: ('A' for Active; 'I' for Inactive)
REMARK    1  A    between atoms: C_1  and  C_2
REMARK    2  A    between atoms: C_4  and  C_5
REMARK    3  A    between atoms: C_5  and  N_6
REMARK    4  A    between atoms: C_10  and  C_11
REMARK    5  A    between atoms: C_11  and  N_12
REMARK    6  A    between atoms: N_12  and  C_13
REMARK    7  A    between atoms: C_14  and  C_16
REMARK                            x       y       z     vdW  Elec       q    Type
REMARK                         _______ _______ _______ _____ _____    ______ ____
ROOT
ATOM      1  N   UNL     1       3.389   4.487  19.006  0.00  0.00    +0.000 NA
ATOM      2  C   UNL     1       2.101   3.894  18.624  0.00  0.00    +0.000 C 
ATOM      3  C   UNL     1       1.104   3.917  19.789  0.00  0.00    +0.000 C 
ATOM      4  C   UNL     1       1.059   5.252  20.468  0.00  0.00    +0.000 C 
ATOM      5  C   UNL     1       2.035   6.169  20.310  0.00  0.00    +0.000 C 
ATOM      6  C   UNL     1       3.264   5.881  19.468  0.00  0.00    +0.000 C 
ENDROOT
BRANCH   1   7
ATOM      7  C   UNL     1       4.421   4.300  17.962  0.00  0.00    +0.000 C 
BRANCH   7  11
ATOM      8  C   UNL     1       7.944   7.996  17.545  0.00  0.00    +0.000 C 
ATOM      9  C   UNL     1       7.071   6.850  17.850  0.00  0.00    +0.000 A 
ATOM     10  C   UNL     1       5.809   6.477  17.465  0.00  0.00    +0.000 A 
ATOM     11  C   UNL     1       5.608   5.217  18.079  0.00  0.00    +0.000 A 
ATOM     12  N   UNL     1       6.655   4.892  18.853  0.00  0.00    +0.000 NA
ATOM     13  O   UNL     1       7.576   5.910  18.694  0.00  0.00    +0.000 OA
ENDBRANCH   7  11
ENDBRANCH   1   7
BRANCH   5  14
ATOM     14  C   UNL     1       1.852   7.592  20.790  0.00  0.00    +0.000 C 
BRANCH  14  15
ATOM     15  N   UNL     1       1.224   8.511  19.843  0.00  0.00    +0.000 N 
ATOM     16  C   UNL     1       1.841   8.730  18.539  0.00  0.00    +0.000 C 
ATOM     17  C   UNL     1       0.358   9.478  20.406  0.00  0.00    +0.000 C 
ATOM     18  O   UNL     1       0.186   9.529  21.624  0.00  0.00    +0.000 OA
BRANCH  17  19
ATOM     19  C   UNL     1      -0.304  10.427  19.520  0.00  0.00    +0.000 A 
ATOM     20  C   UNL     1      -0.040  11.764  19.275  0.00  0.00    +0.000 A 
ATOM     21  C   UNL     1      -1.005  12.209  18.338  0.00  0.00    +0.000 A 
ATOM     22  C   UNL     1      -1.817  11.130  18.089  0.00  0.00    +0.000 A 
ATOM     23  O   UNL     1      -1.408  10.050  18.801  0.00  0.00    +0.000 OA
ENDBRANCH  17  19
ENDBRANCH  14  15
ENDBRANCH   5  14
TORSDOF 5
ENDMDL
