MODEL 1
REMARK VINA RESULT:     -10.1      0.000      0.000
REMARK  Name = 
REMARK  4 active torsions:
REMARK  status: ('A' for Active; 'I' for Inactive)
REMARK    1  A    between atoms: C_2  and  C_3
REMARK    2  A    between atoms: C_2  and  C_12
REMARK    3  A    between atoms: N_16  and  C_17
REMARK    4  A    between atoms: C_17  and  C_18
REMARK                            x       y       z     vdW  Elec       q    Type
REMARK                         _______ _______ _______ _____ _____    ______ ____
ROOT
ATOM      1  C   UNL     1       5.684   4.552  18.574  0.00  0.00    +0.000 A 
ATOM      2  C   UNL     1       4.860   5.603  18.953  0.00  0.00    +0.000 A 
ATOM      3  C   UNL     1       3.706   5.059  19.591  0.00  0.00    +0.000 A 
ATOM      4  C   UNL     1       2.508   5.560  20.133  0.00  0.00    +0.000 A 
ATOM      5  N   UNL     1       2.207   6.916  20.095  0.00  0.00    +0.000 N 
ATOM      6  N   UNL     1       1.633   4.665  20.658  0.00  0.00    +0.000 NA
ATOM      7  C   UNL     1       1.942   3.353  20.624  0.00  0.00    +0.000 A 
ATOM      8  N   UNL     1       3.053   2.775  20.139  0.00  0.00    +0.000 NA
ATOM      9  C   UNL     1       3.891   3.691  19.635  0.00  0.00    +0.000 A 
ATOM     10  N   UNL     1       5.093   3.404  19.063  0.00  0.00    +0.000 N 
ATOM     11  H   UNL     1       3.023   7.496  19.943  0.00  0.00    +0.000 HD
ATOM     12  H   UNL     1       5.462   2.467  18.978  0.00  0.00    +0.000 HD
ENDROOT
BRANCH   1  14
ATOM     13  O   UNL     1       8.026   4.761  18.394  0.00  0.00    +0.000 OA
ATOM     14  C   UNL     1       6.940   4.603  17.847  0.00  0.00    +0.000 C 
BRANCH  14  15
ATOM     15  C   UNL     1       6.811   4.441  16.411  0.00  0.00    +0.000 A 
ATOM     16  C   UNL     1       5.918   3.696  15.656  0.00  0.00    +0.000 A 
ATOM     17  C   UNL     1       6.206   3.896  14.284  0.00  0.00    +0.000 A 
ATOM     18  C   UNL     1       5.641   3.406  13.094  0.00  0.00    +0.000 A 
ATOM     19  C   UNL     1       6.168   3.825  11.869  0.00  0.00    +0.000 A 
ATOM     20  C   UNL     1       7.244   4.709  11.826  0.00  0.00    +0.000 A 
ATOM     21  C   UNL     1       7.821   5.209  12.999  0.00  0.00    +0.000 A 
ATOM     22  C   UNL     1       7.275   4.787  14.216  0.00  0.00    +0.000 A 
ATOM     23  N   UNL     1       7.600   5.126  15.510  0.00  0.00    +0.000 N 
ATOM     24  H   UNL     1       8.321   5.786  15.775  0.00  0.00    +0.000 HD
ENDBRANCH  14  15
ENDBRANCH   1  14
BRANCH   5  25
ATOM     25  C   UNL     1       1.320   7.411  21.133  0.00  0.00    +0.000 C 
BRANCH  25  26
ATOM     26  C   UNL     1       0.903   8.824  20.779  0.00  0.00    +0.000 A 
ATOM     27  C   UNL     1       1.122   9.327  19.486  0.00  0.00    +0.000 A 
ATOM     28  C   UNL     1       0.766  10.635  19.160  0.00  0.00    +0.000 A 
ATOM     29  C   UNL     1       0.180  11.458  20.121  0.00  0.00    +0.000 A 
ATOM     30  C   UNL     1      -0.052  10.968  21.407  0.00  0.00    +0.000 A 
ATOM     31  C   UNL     1       0.308   9.660  21.735  0.00  0.00    +0.000 A 
ENDBRANCH  25  26
ENDBRANCH   5  25
TORSDOF 4
ENDMDL
MODEL 2
REMARK VINA RESULT:      -9.2      0.590      1.462
REMARK  Name = 
REMARK  4 active torsions:
REMARK  status: ('A' for Active; 'I' for Inactive)
REMARK    1  A    between atoms: C_2  and  C_3
REMARK    2  A    between atoms: C_2  and  C_12
REMARK    3  A    between atoms: N_16  and  C_17
REMARK    4  A    between atoms: C_17  and  C_18
REMARK                            x       y       z     vdW  Elec       q    Type
REMARK                         _______ _______ _______ _____ _____    ______ ____
ROOT
ATOM      1  C   UNL     1       5.525   4.531  18.550  0.00  0.00    +0.000 A 
ATOM      2  C   UNL     1       4.789   5.598  19.047  0.00  0.00    +0.000 A 
ATOM      3  C   UNL     1       3.525   5.104  19.485  0.00  0.00    +0.000 A 
ATOM      4  C   UNL     1       2.342   5.653  20.015  0.00  0.00    +0.000 A 
ATOM      5  N   UNL     1       2.198   7.022  20.200  0.00  0.00    +0.000 N 
ATOM      6  N   UNL     1       1.326   4.800  20.301  0.00  0.00    +0.000 NA
ATOM      7  C   UNL     1       1.490   3.484  20.054  0.00  0.00    +0.000 A 
ATOM      8  N   UNL     1       2.573   2.861  19.561  0.00  0.00    +0.000 NA
ATOM      9  C   UNL     1       3.552   3.736  19.296  0.00  0.00    +0.000 A 
ATOM     10  N   UNL     1       4.765   3.401  18.776  0.00  0.00    +0.000 N 
ATOM     11  H   UNL     1       3.085   7.512  20.218  0.00  0.00    +0.000 HD
ATOM     12  H   UNL     1       5.035   2.453  18.552  0.00  0.00    +0.000 HD
ENDROOT
BRANCH   1  14
ATOM     13  O   UNL     1       7.882   4.582  18.594  0.00  0.00    +0.000 OA
ATOM     14  C   UNL     1       6.844   4.546  17.943  0.00  0.00    +0.000 C 
BRANCH  14  15
ATOM     15  C   UNL     1       6.840   4.505  16.492  0.00  0.00    +0.000 A 
ATOM     16  C   UNL     1       7.603   5.194  15.562  0.00  0.00    +0.000 A 
ATOM     17  C   UNL     1       7.222   4.776  14.263  0.00  0.00    +0.000 A 
ATOM     18  C   UNL     1       7.645   5.127  12.970  0.00  0.00    +0.000 A 
ATOM     19  C   UNL     1       7.056   4.497  11.869  0.00  0.00    +0.000 A 
ATOM     20  C   UNL     1       6.058   3.542  12.049  0.00  0.00    +0.000 A 
ATOM     21  C   UNL     1       5.623   3.179  13.328  0.00  0.00    +0.000 A 
ATOM     22  C   UNL     1       6.229   3.811  14.420  0.00  0.00    +0.000 A 
ATOM     23  N   UNL     1       6.041   3.642  15.773  0.00  0.00    +0.000 N 
ATOM     24  H   UNL     1       5.401   2.978  16.192  0.00  0.00    +0.000 HD
ENDBRANCH  14  15
ENDBRANCH   1  14
BRANCH   5  25
ATOM     25  C   UNL     1       1.275   7.442  21.238  0.00  0.00    +0.000 C 
BRANCH  25  26
ATOM     26  C   UNL     1       0.761   8.827  20.899  0.00  0.00    +0.000 A 
ATOM     27  C   UNL     1       0.051   9.574  21.852  0.00  0.00    +0.000 A 
ATOM     28  C   UNL     1      -0.448  10.838  21.538  0.00  0.00    +0.000 A 
ATOM     29  C   UNL     1      -0.240  11.374  20.269  0.00  0.00    +0.000 A 
ATOM     30  C   UNL     1       0.472  10.647  19.316  0.00  0.00    +0.000 A 
ATOM     31  C   UNL     1       0.968   9.379  19.627  0.00  0.00    +0.000 A 
ENDBRANCH  25  26
ENDBRANCH   5  25
TORSDOF 4
ENDMDL
MODEL 3
REMARK VINA RESULT:      -8.8      0.889      1.280
REMARK  Name = 
REMARK  4 active torsions:
REMARK  status: ('A' for Active; 'I' for Inactive)
REMARK    1  A    between atoms: C_2  and  C_3
REMARK    2  A    between atoms: C_2  and  C_12
REMARK    3  A    between atoms: N_16  and  C_17
REMARK    4  A    between atoms: C_17  and  C_18
REMARK                            x       y       z     vdW  Elec       q    Type
REMARK                         _______ _______ _______ _____ _____    ______ ____
ROOT
ATOM      1  C   UNL     1       5.531   5.682  18.104  0.00  0.00    +0.000 A 
ATOM      2  C   UNL     1       4.577   6.560  18.602  0.00  0.00    +0.000 A 
ATOM      3  C   UNL     1       3.657   5.817  19.399  0.00  0.00    +0.000 A 
ATOM      4  C   UNL     1       2.475   6.087  20.112  0.00  0.00    +0.000 A 
ATOM      5  N   UNL     1       1.909   7.355  20.123  0.00  0.00    +0.000 N 
ATOM      6  N   UNL     1       1.879   5.051  20.756  0.00  0.00    +0.000 NA
ATOM      7  C   UNL     1       2.433   3.825  20.673  0.00  0.00    +0.000 A 
ATOM      8  N   UNL     1       3.556   3.464  20.030  0.00  0.00    +0.000 NA
ATOM      9  C   UNL     1       4.114   4.513  19.412  0.00  0.00    +0.000 A 
ATOM     10  N   UNL     1       5.255   4.454  18.670  0.00  0.00    +0.000 N 
ATOM     11  H   UNL     1       2.564   8.081  19.855  0.00  0.00    +0.000 HD
ATOM     12  H   UNL     1       5.786   3.605  18.529  0.00  0.00    +0.000 HD
ENDROOT
BRANCH   1  14
ATOM     13  O   UNL     1       7.599   6.647  17.514  0.00  0.00    +0.000 OA
ATOM     14  C   UNL     1       6.633   5.959  17.202  0.00  0.00    +0.000 C 
BRANCH  14  15
ATOM     15  C   UNL     1       6.509   5.348  15.892  0.00  0.00    +0.000 A 
ATOM     16  C   UNL     1       5.522   4.532  15.360  0.00  0.00    +0.000 A 
ATOM     17  C   UNL     1       5.866   4.217  14.022  0.00  0.00    +0.000 A 
ATOM     18  C   UNL     1       5.253   3.445  13.021  0.00  0.00    +0.000 A 
ATOM     19  C   UNL     1       5.865   3.349  11.767  0.00  0.00    +0.000 A 
ATOM     20  C   UNL     1       7.070   4.001  11.516  0.00  0.00    +0.000 A 
ATOM     21  C   UNL     1       7.697   4.774  12.499  0.00  0.00    +0.000 A 
ATOM     22  C   UNL     1       7.066   4.868  13.745  0.00  0.00    +0.000 A 
ATOM     23  N   UNL     1       7.416   5.569  14.877  0.00  0.00    +0.000 N 
ATOM     24  H   UNL     1       8.229   6.167  14.963  0.00  0.00    +0.000 HD
ENDBRANCH  14  15
ENDBRANCH   1  14
BRANCH   5  25
ATOM     25  C   UNL     1       1.100   7.694  21.280  0.00  0.00    +0.000 C 
BRANCH  25  26
ATOM     26  C   UNL     1       0.557   9.097  21.098  0.00  0.00    +0.000 A 
ATOM     27  C   UNL     1      -0.058   9.765  22.170  0.00  0.00    +0.000 A 
ATOM     28  C   UNL     1      -0.584  11.046  22.003  0.00  0.00    +0.000 A 
ATOM     29  C   UNL     1      -0.497  11.679  20.764  0.00  0.00    +0.000 A 
ATOM     30  C   UNL     1       0.120  11.031  19.694  0.00  0.00    +0.000 A 
ATOM     31  C   UNL     1       0.643   9.747  19.859  0.00  0.00    +0.000 A 
ENDBRANCH  25  26
ENDBRANCH   5  25
TORSDOF 4
ENDMDL
MODEL 4
REMARK VINA RESULT:      -8.7      1.846      8.802
REMARK  Name = 
REMARK  4 active torsions:
REMARK  status: ('A' for Active; 'I' for Inactive)
REMARK    1  A    between atoms: C_2  and  C_3
REMARK    2  A    between atoms: C_2  and  C_12
REMARK    3  A    between atoms: N_16  and  C_17
REMARK    4  A    between atoms: C_17  and  C_18
REMARK                            x       y       z     vdW  Elec       q    Type
REMARK                         _______ _______ _______ _____ _____    ______ ____
ROOT
ATOM      1  C   UNL     1       3.698   5.072  18.535  0.00  0.00    +0.000 A 
ATOM      2  C   UNL     1       4.060   5.007  17.196  0.00  0.00    +0.000 A 
ATOM      3  C   UNL     1       5.477   4.862  17.122  0.00  0.00    +0.000 A 
ATOM      4  C   UNL     1       6.444   4.798  16.102  0.00  0.00    +0.000 A 
ATOM      5  N   UNL     1       6.095   4.916  14.763  0.00  0.00    +0.000 N 
ATOM      6  N   UNL     1       7.743   4.661  16.475  0.00  0.00    +0.000 NA
ATOM      7  C   UNL     1       8.042   4.606  17.789  0.00  0.00    +0.000 A 
ATOM      8  N   UNL     1       7.200   4.650  18.834  0.00  0.00    +0.000 NA
ATOM      9  C   UNL     1       5.931   4.782  18.424  0.00  0.00    +0.000 A 
ATOM     10  N   UNL     1       4.857   4.866  19.257  0.00  0.00    +0.000 N 
ATOM     11  H   UNL     1       5.111   4.737  14.596  0.00  0.00    +0.000 HD
ATOM     12  H   UNL     1       4.926   4.828  20.265  0.00  0.00    +0.000 HD
ENDROOT
BRANCH   1  14
ATOM     13  O   UNL     1       1.616   4.351  19.373  0.00  0.00    +0.000 OA
ATOM     14  C   UNL     1       2.379   5.272  19.108  0.00  0.00    +0.000 C 
BRANCH  14  15
ATOM     15  C   UNL     1       2.034   6.660  19.353  0.00  0.00    +0.000 A 
ATOM     16  C   UNL     1       1.914   7.734  18.484  0.00  0.00    +0.000 A 
ATOM     17  C   UNL     1       1.533   8.878  19.226  0.00  0.00    +0.000 A 
ATOM     18  C   UNL     1       1.273  10.215  18.879  0.00  0.00    +0.000 A 
ATOM     19  C   UNL     1       0.893  11.115  19.881  0.00  0.00    +0.000 A 
ATOM     20  C   UNL     1       0.782  10.695  21.205  0.00  0.00    +0.000 A 
ATOM     21  C   UNL     1       1.036   9.369  21.571  0.00  0.00    +0.000 A 
ATOM     22  C   UNL     1       1.406   8.480  20.555  0.00  0.00    +0.000 A 
ATOM     23  N   UNL     1       1.680   7.132  20.600  0.00  0.00    +0.000 N 
ATOM     24  H   UNL     1       1.635   6.556  21.432  0.00  0.00    +0.000 HD
ENDBRANCH  14  15
ENDBRANCH   1  14
BRANCH   5  25
ATOM     25  C   UNL     1       6.978   4.276  13.804  0.00  0.00    +0.000 C 
BRANCH  25  26
ATOM     26  C   UNL     1       6.133   3.567  12.766  0.00  0.00    +0.000 A 
ATOM     27  C   UNL     1       4.829   4.009  12.489  0.00  0.00    +0.000 A 
ATOM     28  C   UNL     1       4.035   3.345  11.554  0.00  0.00    +0.000 A 
ATOM     29  C   UNL     1       4.536   2.233  10.879  0.00  0.00    +0.000 A 
ATOM     30  C   UNL     1       5.833   1.789  11.138  0.00  0.00    +0.000 A 
ATOM     31  C   UNL     1       6.626   2.450  12.077  0.00  0.00    +0.000 A 
ENDBRANCH  25  26
ENDBRANCH   5  25
TORSDOF 4
ENDMDL
MODEL 5
REMARK VINA RESULT:      -8.7      5.318      8.422
REMARK  Name = 
REMARK  4 active torsions:
REMARK  status: ('A' for Active; 'I' for Inactive)
REMARK    1  A    between atoms: C_2  and  C_3
REMARK    2  A    between atoms: C_2  and  C_12
REMARK    3  A    between atoms: N_16  and  C_17
REMARK    4  A    between atoms: C_17  and  C_18
REMARK                            x       y       z     vdW  Elec       q    Type
REMARK                         _______ _______ _______ _____ _____    ______ ____
ROOT
ATOM      1  C   UNL     1      -0.540  10.283  18.777  0.00  0.00    +0.000 A 
ATOM      2  C   UNL     1      -1.729  10.919  19.111  0.00  0.00    +0.000 A 
ATOM      3  C   UNL     1      -2.555  10.962  17.948  0.00  0.00    +0.000 A 
ATOM      4  C   UNL     1      -3.810  11.498  17.608  0.00  0.00    +0.000 A 
ATOM      5  N   UNL     1      -4.560  12.226  18.524  0.00  0.00    +0.000 N 
ATOM      6  N   UNL     1      -4.247  11.317  16.336  0.00  0.00    +0.000 NA
ATOM      7  C   UNL     1      -3.462  10.652  15.465  0.00  0.00    +0.000 A 
ATOM      8  N   UNL     1      -2.259  10.097  15.688  0.00  0.00    +0.000 NA
ATOM      9  C   UNL     1      -1.867  10.295  16.954  0.00  0.00    +0.000 A 
ATOM     10  N   UNL     1      -0.685   9.858  17.472  0.00  0.00    +0.000 N 
ATOM     11  H   UNL     1      -4.277  12.061  19.483  0.00  0.00    +0.000 HD
ATOM     12  H   UNL     1      -0.001   9.336  16.941  0.00  0.00    +0.000 HD
ENDROOT
BRANCH   1  14
ATOM     13  O   UNL     1       0.961  10.802  20.519  0.00  0.00    +0.000 OA
ATOM     14  C   UNL     1       0.627  10.052  19.608  0.00  0.00    +0.000 C 
BRANCH  14  15
ATOM     15  C   UNL     1       1.371   8.850  19.282  0.00  0.00    +0.000 A 
ATOM     16  C   UNL     1       2.136   8.528  18.170  0.00  0.00    +0.000 A 
ATOM     17  C   UNL     1       2.672   7.229  18.349  0.00  0.00    +0.000 A 
ATOM     18  C   UNL     1       3.499   6.408  17.565  0.00  0.00    +0.000 A 
ATOM     19  C   UNL     1       3.866   5.149  18.054  0.00  0.00    +0.000 A 
ATOM     20  C   UNL     1       3.409   4.712  19.295  0.00  0.00    +0.000 A 
ATOM     21  C   UNL     1       2.584   5.514  20.091  0.00  0.00    +0.000 A 
ATOM     22  C   UNL     1       2.235   6.774  19.591  0.00  0.00    +0.000 A 
ATOM     23  N   UNL     1       1.481   7.783  20.148  0.00  0.00    +0.000 N 
ATOM     24  H   UNL     1       1.057   7.752  21.067  0.00  0.00    +0.000 HD
ENDBRANCH  14  15
ENDBRANCH   1  14
BRANCH   5  25
ATOM     25  C   UNL     1      -5.999  12.226  18.329  0.00  0.00    +0.000 C 
BRANCH  25  26
ATOM     26  C   UNL     1      -6.605  11.139  19.193  0.00  0.00    +0.000 A 
ATOM     27  C   UNL     1      -7.378  11.474  20.317  0.00  0.00    +0.000 A 
ATOM     28  C   UNL     1      -7.917  10.479  21.133  0.00  0.00    +0.000 A 
ATOM     29  C   UNL     1      -7.695   9.137  20.834  0.00  0.00    +0.000 A 
ATOM     30  C   UNL     1      -6.938   8.790  19.715  0.00  0.00    +0.000 A 
ATOM     31  C   UNL     1      -6.394   9.785  18.900  0.00  0.00    +0.000 A 
ENDBRANCH  25  26
ENDBRANCH   5  25
TORSDOF 4
ENDMDL
MODEL 6
REMARK VINA RESULT:      -8.6      5.479      8.587
REMARK  Name = 
REMARK  4 active torsions:
REMARK  status: ('A' for Active; 'I' for Inactive)
REMARK    1  A    between atoms: C_2  and  C_3
REMARK    2  A    between atoms: C_2  and  C_12
REMARK    3  A    between atoms: N_16  and  C_17
REMARK    4  A    between atoms: C_17  and  C_18
REMARK                            x       y       z     vdW  Elec       q    Type
REMARK                         _______ _______ _______ _____ _____    ______ ____
ROOT
ATOM      1  C   UNL     1      -0.696  10.548  18.646  0.00  0.00    +0.000 A 
ATOM      2  C   UNL     1      -1.887  11.190  18.961  0.00  0.00    +0.000 A 
ATOM      3  C   UNL     1      -2.754  11.104  17.832  0.00  0.00    +0.000 A 
ATOM      4  C   UNL     1      -4.033  11.579  17.489  0.00  0.00    +0.000 A 
ATOM      5  N   UNL     1      -4.766  12.378  18.357  0.00  0.00    +0.000 N 
ATOM      6  N   UNL     1      -4.511  11.267  16.257  0.00  0.00    +0.000 NA
ATOM      7  C   UNL     1      -3.742  10.535  15.426  0.00  0.00    +0.000 A 
ATOM      8  N   UNL     1      -2.519  10.029  15.656  0.00  0.00    +0.000 NA
ATOM      9  C   UNL     1      -2.087  10.356  16.881  0.00  0.00    +0.000 A 
ATOM     10  N   UNL     1      -0.878   9.996  17.394  0.00  0.00    +0.000 N 
ATOM     11  H   UNL     1      -4.446  12.314  19.317  0.00  0.00    +0.000 HD
ATOM     12  H   UNL     1      -0.201   9.438  16.890  0.00  0.00    +0.000 HD
ENDROOT
BRANCH   1  14
ATOM     13  O   UNL     1       0.784  11.191  20.365  0.00  0.00    +0.000 OA
ATOM     14  C   UNL     1       0.505  10.423  19.450  0.00  0.00    +0.000 C 
BRANCH  14  15
ATOM     15  C   UNL     1       1.355   9.303  19.093  0.00  0.00    +0.000 A 
ATOM     16  C   UNL     1       2.188   9.106  18.002  0.00  0.00    +0.000 A 
ATOM     17  C   UNL     1       2.818   7.844  18.134  0.00  0.00    +0.000 A 
ATOM     18  C   UNL     1       3.740   7.136  17.345  0.00  0.00    +0.000 A 
ATOM     19  C   UNL     1       4.185   5.883  17.780  0.00  0.00    +0.000 A 
ATOM     20  C   UNL     1       3.714   5.341  18.974  0.00  0.00    +0.000 A 
ATOM     21  C   UNL     1       2.796   6.030  19.774  0.00  0.00    +0.000 A 
ATOM     22  C   UNL     1       2.369   7.286  19.328  0.00  0.00    +0.000 A 
ATOM     23  N   UNL     1       1.514   8.199  19.904  0.00  0.00    +0.000 N 
ATOM     24  H   UNL     1       1.056   8.082  20.800  0.00  0.00    +0.000 HD
ENDBRANCH  14  15
ENDBRANCH   1  14
BRANCH   5  25
ATOM     25  C   UNL     1      -6.211  12.331  18.218  0.00  0.00    +0.000 C 
BRANCH  25  26
ATOM     26  C   UNL     1      -6.823  12.111  19.586  0.00  0.00    +0.000 A 
ATOM     27  C   UNL     1      -6.832  13.147  20.535  0.00  0.00    +0.000 A 
ATOM     28  C   UNL     1      -7.369  12.944  21.806  0.00  0.00    +0.000 A 
ATOM     29  C   UNL     1      -7.910  11.705  22.144  0.00  0.00    +0.000 A 
ATOM     30  C   UNL     1      -7.916  10.670  21.209  0.00  0.00    +0.000 A 
ATOM     31  C   UNL     1      -7.374  10.871  19.937  0.00  0.00    +0.000 A 
ENDBRANCH  25  26
ENDBRANCH   5  25
TORSDOF 4
ENDMDL
MODEL 7
REMARK VINA RESULT:      -8.6      2.891      9.074
REMARK  Name = 
REMARK  4 active torsions:
REMARK  status: ('A' for Active; 'I' for Inactive)
REMARK    1  A    between atoms: C_2  and  C_3
REMARK    2  A    between atoms: C_2  and  C_12
REMARK    3  A    between atoms: N_16  and  C_17
REMARK    4  A    between atoms: C_17  and  C_18
REMARK                            x       y       z     vdW  Elec       q    Type
REMARK                         _______ _______ _______ _____ _____    ______ ____
ROOT
ATOM      1  C   UNL     1       2.199   8.868  18.318  0.00  0.00    +0.000 A 
ATOM      2  C   UNL     1       2.997   8.083  17.496  0.00  0.00    +0.000 A 
ATOM      3  C   UNL     1       3.158   6.808  18.114  0.00  0.00    +0.000 A 
ATOM      4  C   UNL     1       3.867   5.623  17.840  0.00  0.00    +0.000 A 
ATOM      5  N   UNL     1       4.693   5.513  16.729  0.00  0.00    +0.000 N 
ATOM      6  N   UNL     1       3.750   4.602  18.726  0.00  0.00    +0.000 NA
ATOM      7  C   UNL     1       2.980   4.772  19.820  0.00  0.00    +0.000 A 
ATOM      8  N   UNL     1       2.260   5.852  20.169  0.00  0.00    +0.000 NA
ATOM      9  C   UNL     1       2.400   6.833  19.268  0.00  0.00    +0.000 A 
ATOM     10  N   UNL     1       1.800   8.053  19.358  0.00  0.00    +0.000 N 
ATOM     11  H   UNL     1       4.490   6.206  16.017  0.00  0.00    +0.000 HD
ATOM     12  H   UNL     1       1.186   8.319  20.116  0.00  0.00    +0.000 HD
ENDROOT
BRANCH   1  14
ATOM     13  O   UNL     1       2.607  11.159  17.936  0.00  0.00    +0.000 OA
ATOM     14  C   UNL     1       1.805  10.254  18.142  0.00  0.00    +0.000 C 
BRANCH  14  15
ATOM     15  C   UNL     1       0.375  10.488  18.220  0.00  0.00    +0.000 A 
ATOM     16  C   UNL     1      -0.355  11.414  18.949  0.00  0.00    +0.000 A 
ATOM     17  C   UNL     1      -1.730  11.240  18.656  0.00  0.00    +0.000 A 
ATOM     18  C   UNL     1      -2.902  11.881  19.093  0.00  0.00    +0.000 A 
ATOM     19  C   UNL     1      -4.135  11.463  18.581  0.00  0.00    +0.000 A 
ATOM     20  C   UNL     1      -4.203  10.421  17.659  0.00  0.00    +0.000 A 
ATOM     21  C   UNL     1      -3.048   9.770  17.211  0.00  0.00    +0.000 A 
ATOM     22  C   UNL     1      -1.822  10.207  17.726  0.00  0.00    +0.000 A 
ATOM     23  N   UNL     1      -0.537   9.793  17.454  0.00  0.00    +0.000 N 
ATOM     24  H   UNL     1      -0.286   9.074  16.787  0.00  0.00    +0.000 HD
ENDBRANCH  14  15
ENDBRANCH   1  14
BRANCH   5  25
ATOM     25  C   UNL     1       4.897   4.176  16.203  0.00  0.00    +0.000 C 
BRANCH  25  26
ATOM     26  C   UNL     1       5.666   4.279  14.902  0.00  0.00    +0.000 A 
ATOM     27  C   UNL     1       5.231   3.581  13.763  0.00  0.00    +0.000 A 
ATOM     28  C   UNL     1       5.949   3.649  12.569  0.00  0.00    +0.000 A 
ATOM     29  C   UNL     1       7.107   4.421  12.495  0.00  0.00    +0.000 A 
ATOM     30  C   UNL     1       7.545   5.127  13.616  0.00  0.00    +0.000 A 
ATOM     31  C   UNL     1       6.830   5.055  14.813  0.00  0.00    +0.000 A 
ENDBRANCH  25  26
ENDBRANCH   5  25
TORSDOF 4
ENDMDL
MODEL 8
REMARK VINA RESULT:      -8.6      2.104      9.244
REMARK  Name = 
REMARK  4 active torsions:
REMARK  status: ('A' for Active; 'I' for Inactive)
REMARK    1  A    between atoms: C_2  and  C_3
REMARK    2  A    between atoms: C_2  and  C_12
REMARK    3  A    between atoms: N_16  and  C_17
REMARK    4  A    between atoms: C_17  and  C_18
REMARK                            x       y       z     vdW  Elec       q    Type
REMARK                         _______ _______ _______ _____ _____    ______ ____
ROOT
ATOM      1  C   UNL     1       2.528   7.815  18.327  0.00  0.00    +0.000 A 
ATOM      2  C   UNL     1       3.435   7.236  17.449  0.00  0.00    +0.000 A 
ATOM      3  C   UNL     1       3.797   5.955  17.961  0.00  0.00    +0.000 A 
ATOM      4  C   UNL     1       4.682   4.924  17.596  0.00  0.00    +0.000 A 
ATOM      5  N   UNL     1       5.510   5.037  16.486  0.00  0.00    +0.000 N 
ATOM      6  N   UNL     1       4.733   3.827  18.394  0.00  0.00    +0.000 NA
ATOM      7  C   UNL     1       3.951   3.783  19.492  0.00  0.00    +0.000 A 
ATOM      8  N   UNL     1       3.072   4.703  19.923  0.00  0.00    +0.000 NA
ATOM      9  C   UNL     1       3.051   5.766  19.108  0.00  0.00    +0.000 A 
ATOM     10  N   UNL     1       2.267   6.864  19.293  0.00  0.00    +0.000 N 
ATOM     11  H   UNL     1       5.196   5.746  15.832  0.00  0.00    +0.000 HD
ATOM     12  H   UNL     1       1.623   6.967  20.065  0.00  0.00    +0.000 HD
ENDROOT
BRANCH   1  14
ATOM     13  O   UNL     1       2.029   9.875  17.293  0.00  0.00    +0.000 OA
ATOM     14  C   UNL     1       1.919   9.131  18.262  0.00  0.00    +0.000 C 
BRANCH  14  15
ATOM     15  C   UNL     1       1.156   9.501  19.439  0.00  0.00    +0.000 A 
ATOM     16  C   UNL     1       1.065   8.905  20.688  0.00  0.00    +0.000 A 
ATOM     17  C   UNL     1       0.193   9.674  21.496  0.00  0.00    +0.000 A 
ATOM     18  C   UNL     1      -0.263   9.549  22.820  0.00  0.00    +0.000 A 
ATOM     19  C   UNL     1      -1.133  10.517  23.332  0.00  0.00    +0.000 A 
ATOM     20  C   UNL     1      -1.550  11.584  22.540  0.00  0.00    +0.000 A 
ATOM     21  C   UNL     1      -1.109  11.726  21.220  0.00  0.00    +0.000 A 
ATOM     22  C   UNL     1      -0.231  10.755  20.726  0.00  0.00    +0.000 A 
ATOM     23  N   UNL     1       0.390  10.646  19.502  0.00  0.00    +0.000 N 
ATOM     24  H   UNL     1       0.299  11.310  18.743  0.00  0.00    +0.000 HD
ENDBRANCH  14  15
ENDBRANCH   1  14
BRANCH   5  25
ATOM     25  C   UNL     1       5.919   3.796  15.854  0.00  0.00    +0.000 C 
BRANCH  25  26
ATOM     26  C   UNL     1       6.416   4.106  14.456  0.00  0.00    +0.000 A 
ATOM     27  C   UNL     1       5.907   3.407  13.350  0.00  0.00    +0.000 A 
ATOM     28  C   UNL     1       6.379   3.667  12.063  0.00  0.00    +0.000 A 
ATOM     29  C   UNL     1       7.362   4.634  11.865  0.00  0.00    +0.000 A 
ATOM     30  C   UNL     1       7.870   5.343  12.953  0.00  0.00    +0.000 A 
ATOM     31  C   UNL     1       7.402   5.080  14.242  0.00  0.00    +0.000 A 
ENDBRANCH  25  26
ENDBRANCH   5  25
TORSDOF 4
ENDMDL
MODEL 9
REMARK VINA RESULT:      -8.5      2.921      9.078
REMARK  Name = 
REMARK  4 active torsions:
REMARK  status: ('A' for Active; 'I' for Inactive)
REMARK    1  A    between atoms: C_2  and  C_3
REMARK    2  A    between atoms: C_2  and  C_12
REMARK    3  A    between atoms: N_16  and  C_17
REMARK    4  A    between atoms: C_17  and  C_18
REMARK                            x       y       z     vdW  Elec       q    Type
REMARK                         _______ _______ _______ _____ _____    ______ ____
ROOT
ATOM      1  C   UNL     1       2.222   8.767  18.290  0.00  0.00    +0.000 A 
ATOM      2  C   UNL     1       3.010   8.002  17.440  0.00  0.00    +0.000 A 
ATOM      3  C   UNL     1       3.240   6.738  18.060  0.00  0.00    +0.000 A 
ATOM      4  C   UNL     1       3.977   5.576  17.765  0.00  0.00    +0.000 A 
ATOM      5  N   UNL     1       4.757   5.484  16.619  0.00  0.00    +0.000 N 
ATOM      6  N   UNL     1       3.933   4.559  18.663  0.00  0.00    +0.000 NA
ATOM      7  C   UNL     1       3.206   4.713  19.788  0.00  0.00    +0.000 A 
ATOM      8  N   UNL     1       2.466   5.771  20.160  0.00  0.00    +0.000 NA
ATOM      9  C   UNL     1       2.533   6.749  19.246  0.00  0.00    +0.000 A 
ATOM     10  N   UNL     1       1.897   7.948  19.353  0.00  0.00    +0.000 N 
ATOM     11  H   UNL     1       4.499   6.162  15.912  0.00  0.00    +0.000 HD
ATOM     12  H   UNL     1       1.307   8.201  20.135  0.00  0.00    +0.000 HD
ENDROOT
BRANCH   1  14
ATOM     13  O   UNL     1       2.542  11.085  18.005  0.00  0.00    +0.000 OA
ATOM     14  C   UNL     1       1.774  10.137  18.121  0.00  0.00    +0.000 C 
BRANCH  14  15
ATOM     15  C   UNL     1       0.332  10.299  18.089  0.00  0.00    +0.000 A 
ATOM     16  C   UNL     1      -0.655   9.541  17.478  0.00  0.00    +0.000 A 
ATOM     17  C   UNL     1      -1.915  10.117  17.768  0.00  0.00    +0.000 A 
ATOM     18  C   UNL     1      -3.236   9.784  17.421  0.00  0.00    +0.000 A 
ATOM     19  C   UNL     1      -4.284  10.576  17.900  0.00  0.00    +0.000 A 
ATOM     20  C   UNL     1      -4.025  11.686  18.701  0.00  0.00    +0.000 A 
ATOM     21  C   UNL     1      -2.718  12.035  19.058  0.00  0.00    +0.000 A 
ATOM     22  C   UNL     1      -1.681  11.226  18.579  0.00  0.00    +0.000 A 
ATOM     23  N   UNL     1      -0.321  11.295  18.785  0.00  0.00    +0.000 N 
ATOM     24  H   UNL     1       0.145  11.982  19.364  0.00  0.00    +0.000 HD
ENDBRANCH  14  15
ENDBRANCH   1  14
BRANCH   5  25
ATOM     25  C   UNL     1       4.984   4.149  16.095  0.00  0.00    +0.000 C 
BRANCH  25  26
ATOM     26  C   UNL     1       5.752   4.263  14.795  0.00  0.00    +0.000 A 
ATOM     27  C   UNL     1       5.305   3.593  13.644  0.00  0.00    +0.000 A 
ATOM     28  C   UNL     1       6.021   3.671  12.450  0.00  0.00    +0.000 A 
ATOM     29  C   UNL     1       7.192   4.425  12.388  0.00  0.00    +0.000 A 
ATOM     30  C   UNL     1       7.642   5.103  13.521  0.00  0.00    +0.000 A 
ATOM     31  C   UNL     1       6.928   5.022  14.718  0.00  0.00    +0.000 A 
ENDBRANCH  25  26
ENDBRANCH   5  25
TORSDOF 4
ENDMDL
