MODEL 1
REMARK VINA RESULT:      -7.0      0.000      0.000
REMARK  Name = 
REMARK  10 active torsions:
REMARK  status: ('A' for Active; 'I' for Inactive)
REMARK    1  A    between atoms: C_1  and  C_2
REMARK    2  A    between atoms: C_2  and  C_3
REMARK    3  A    between atoms: C_3  and  C_4
REMARK    4  A    between atoms: C_4  and  C_5
REMARK    5  A    between atoms: P_13  and  O_15
REMARK    6  A    between atoms: O_15  and  C_16
REMARK    7  A    between atoms: C_19  and  C_20
REMARK    8  A    between atoms: C_22  and  C_23
REMARK    9  A    between atoms: C_23  and  C_24
REMARK   10  A    between atoms: C_23  and  C_25
REMARK                            x       y       z     vdW  Elec       q    Type
REMARK                         _______ _______ _______ _____ _____    ______ ____
ROOT
ATOM      1  C   UNL     1      -0.503  10.464  19.882  0.00  0.00    +0.000 A 
ATOM      2  C   UNL     1      -0.258   9.813  21.099  0.00  0.00    +0.000 A 
ATOM      3  C   UNL     1       0.757   8.860  21.199  0.00  0.00    +0.000 A 
ATOM      4  C   UNL     1       1.509   8.540  20.070  0.00  0.00    +0.000 A 
ATOM      5  C   UNL     1       1.342   9.227  18.867  0.00  0.00    +0.000 A 
ATOM      6  C   UNL     1       0.325  10.184  18.782  0.00  0.00    +0.000 A 
ATOM      7  C   UNL     1       2.169   8.924  17.648  0.00  0.00    +0.000 C 
ATOM      8  O   UNL     1       3.185   7.951  17.854  0.00  0.00    +0.000 OA
ATOM      9  P   UNL     1       2.728   6.692  18.764  0.00  0.00    +0.000 P 
ATOM     10  S   UNL     1       1.329   5.583  17.974  0.00  0.00    +0.000 S 
ATOM     11  O   UNL     1       2.372   7.483  20.144  0.00  0.00    +0.000 OA
ENDROOT
BRANCH   1  12
ATOM     12  C   UNL     1      -1.680  11.394  19.706  0.00  0.00    +0.000 C 
BRANCH  12  13
ATOM     13  C   UNL     1      -1.941  11.788  18.255  0.00  0.00    +0.000 C 
BRANCH  13  15
ATOM     14  C   UNL     1      -2.933   9.873  16.958  0.00  0.00    +0.000 C 
ATOM     15  C   UNL     1      -3.228  11.142  17.739  0.00  0.00    +0.000 C 
ENDBRANCH  13  15
ENDBRANCH  12  13
ENDBRANCH   1  12
BRANCH   9  16
ATOM     16  O   UNL     1       4.145   5.960  19.095  0.00  0.00    +0.000 OA
BRANCH  16  17
ATOM     17  C   UNL     1       4.890   5.368  18.102  0.00  0.00    +0.000 A 
ATOM     18  C   UNL     1       5.843   6.118  17.399  0.00  0.00    +0.000 A 
ATOM     19  C   UNL     1       6.382   5.646  16.216  0.00  0.00    +0.000 A 
ATOM     20  C   UNL     1       5.997   4.400  15.730  0.00  0.00    +0.000 A 
ATOM     21  C   UNL     1       6.466   3.943  14.383  0.00  0.00    +0.000 C 
ATOM     22  C   UNL     1       5.175   3.583  16.520  0.00  0.00    +0.000 A 
ATOM     23  C   UNL     1       4.622   4.040  17.736  0.00  0.00    +0.000 A 
BRANCH  23  24
ATOM     24  C   UNL     1       3.796   3.060  18.558  0.00  0.00    +0.000 C 
ATOM     25  C   UNL     1       3.283   1.882  17.722  0.00  0.00    +0.000 C 
ATOM     26  C   UNL     1       4.489   2.565  19.828  0.00  0.00    +0.000 C 
ENDBRANCH  23  24
ENDBRANCH  16  17
ENDBRANCH   9  16
TORSDOF 6
ENDMDL
MODEL 2
REMARK VINA RESULT:      -6.6      0.870      1.400
REMARK  Name = 
REMARK  10 active torsions:
REMARK  status: ('A' for Active; 'I' for Inactive)
REMARK    1  A    between atoms: C_1  and  C_2
REMARK    2  A    between atoms: C_2  and  C_3
REMARK    3  A    between atoms: C_3  and  C_4
REMARK    4  A    between atoms: C_4  and  C_5
REMARK    5  A    between atoms: P_13  and  O_15
REMARK    6  A    between atoms: O_15  and  C_16
REMARK    7  A    between atoms: C_19  and  C_20
REMARK    8  A    between atoms: C_22  and  C_23
REMARK    9  A    between atoms: C_23  and  C_24
REMARK   10  A    between atoms: C_23  and  C_25
REMARK                            x       y       z     vdW  Elec       q    Type
REMARK                         _______ _______ _______ _____ _____    ______ ____
ROOT
ATOM      1  C   UNL     1      -0.508  10.465  19.844  0.00  0.00    +0.000 A 
ATOM      2  C   UNL     1      -0.264   9.821  21.065  0.00  0.00    +0.000 A 
ATOM      3  C   UNL     1       0.751   8.869  21.171  0.00  0.00    +0.000 A 
ATOM      4  C   UNL     1       1.504   8.541  20.045  0.00  0.00    +0.000 A 
ATOM      5  C   UNL     1       1.337   9.222  18.837  0.00  0.00    +0.000 A 
ATOM      6  C   UNL     1       0.320  10.178  18.747  0.00  0.00    +0.000 A 
ATOM      7  C   UNL     1       2.166   8.911  17.621  0.00  0.00    +0.000 C 
ATOM      8  O   UNL     1       3.181   7.939  17.834  0.00  0.00    +0.000 OA
ATOM      9  P   UNL     1       2.723   6.686  18.751  0.00  0.00    +0.000 P 
ATOM     10  S   UNL     1       1.325   5.573  17.966  0.00  0.00    +0.000 S 
ATOM     11  O   UNL     1       2.367   7.485  20.125  0.00  0.00    +0.000 OA
ENDROOT
BRANCH   1  12
ATOM     12  C   UNL     1      -1.685  11.394  19.662  0.00  0.00    +0.000 C 
BRANCH  12  13
ATOM     13  C   UNL     1      -1.399  12.574  18.737  0.00  0.00    +0.000 C 
BRANCH  13  15
ATOM     14  C   UNL     1       0.619  14.078  18.792  0.00  0.00    +0.000 C 
ATOM     15  C   UNL     1      -0.673  13.691  19.491  0.00  0.00    +0.000 C 
ENDBRANCH  13  15
ENDBRANCH  12  13
ENDBRANCH   1  12
BRANCH   9  16
ATOM     16  O   UNL     1       4.140   5.956  19.087  0.00  0.00    +0.000 OA
BRANCH  16  17
ATOM     17  C   UNL     1       4.884   5.355  18.099  0.00  0.00    +0.000 A 
ATOM     18  C   UNL     1       5.835   6.099  17.387  0.00  0.00    +0.000 A 
ATOM     19  C   UNL     1       6.373   5.615  16.207  0.00  0.00    +0.000 A 
ATOM     20  C   UNL     1       5.988   4.365  15.734  0.00  0.00    +0.000 A 
ATOM     21  C   UNL     1       6.455   3.895  14.391  0.00  0.00    +0.000 C 
ATOM     22  C   UNL     1       5.168   3.554  16.534  0.00  0.00    +0.000 A 
ATOM     23  C   UNL     1       4.617   4.023  17.746  0.00  0.00    +0.000 A 
BRANCH  23  24
ATOM     24  C   UNL     1       3.792   3.050  18.579  0.00  0.00    +0.000 C 
ATOM     25  C   UNL     1       3.108   1.980  17.721  0.00  0.00    +0.000 C 
ATOM     26  C   UNL     1       4.558   2.412  19.738  0.00  0.00    +0.000 C 
ENDBRANCH  23  24
ENDBRANCH  16  17
ENDBRANCH   9  16
TORSDOF 6
ENDMDL
MODEL 3
REMARK VINA RESULT:      -6.5      3.882      9.110
REMARK  Name = 
REMARK  10 active torsions:
REMARK  status: ('A' for Active; 'I' for Inactive)
REMARK    1  A    between atoms: C_1  and  C_2
REMARK    2  A    between atoms: C_2  and  C_3
REMARK    3  A    between atoms: C_3  and  C_4
REMARK    4  A    between atoms: C_4  and  C_5
REMARK    5  A    between atoms: P_13  and  O_15
REMARK    6  A    between atoms: O_15  and  C_16
REMARK    7  A    between atoms: C_19  and  C_20
REMARK    8  A    between atoms: C_22  and  C_23
REMARK    9  A    between atoms: C_23  and  C_24
REMARK   10  A    between atoms: C_23  and  C_25
REMARK                            x       y       z     vdW  Elec       q    Type
REMARK                         _______ _______ _______ _____ _____    ______ ____
ROOT
ATOM      1  C   UNL     1       2.242   6.522  19.741  0.00  0.00    +0.000 A 
ATOM      2  C   UNL     1       2.636   6.863  18.440  0.00  0.00    +0.000 A 
ATOM      3  C   UNL     1       2.418   8.151  17.950  0.00  0.00    +0.000 A 
ATOM      4  C   UNL     1       1.780   9.092  18.757  0.00  0.00    +0.000 A 
ATOM      5  C   UNL     1       1.449   8.806  20.082  0.00  0.00    +0.000 A 
ATOM      6  C   UNL     1       1.678   7.512  20.562  0.00  0.00    +0.000 A 
ATOM      7  C   UNL     1       0.796   9.819  20.982  0.00  0.00    +0.000 C 
ATOM      8  O   UNL     1       0.630  11.104  20.397  0.00  0.00    +0.000 OA
ATOM      9  P   UNL     1       0.151  11.077  18.851  0.00  0.00    +0.000 P 
ATOM     10  S   UNL     1      -1.627  10.325  18.564  0.00  0.00    +0.000 S 
ATOM     11  O   UNL     1       1.418  10.285  18.199  0.00  0.00    +0.000 OA
ENDROOT
BRANCH   1  12
ATOM     12  C   UNL     1       2.337   5.102  20.250  0.00  0.00    +0.000 C 
BRANCH  12  13
ATOM     13  C   UNL     1       0.990   4.389  20.333  0.00  0.00    +0.000 C 
BRANCH  13  15
ATOM     14  C   UNL     1       2.388   2.757  21.642  0.00  0.00    +0.000 C 
ATOM     15  C   UNL     1       1.174   2.927  20.746  0.00  0.00    +0.000 C 
ENDBRANCH  13  15
ENDBRANCH  12  13
ENDBRANCH   1  12
BRANCH   9  16
ATOM     16  O   UNL     1       0.380  12.620  18.382  0.00  0.00    +0.000 OA
BRANCH  16  17
ATOM     17  C   UNL     1       0.196  13.665  19.257  0.00  0.00    +0.000 A 
ATOM     18  C   UNL     1      -1.078  13.925  19.781  0.00  0.00    +0.000 A 
ATOM     19  C   UNL     1      -1.352  15.127  20.410  0.00  0.00    +0.000 A 
ATOM     20  C   UNL     1      -0.346  16.078  20.551  0.00  0.00    +0.000 A 
ATOM     21  C   UNL     1      -0.668  17.433  21.102  0.00  0.00    +0.000 C 
ATOM     22  C   UNL     1       0.965  15.747  20.178  0.00  0.00    +0.000 A 
ATOM     23  C   UNL     1       1.270  14.523  19.544  0.00  0.00    +0.000 A 
BRANCH  23  24
ATOM     24  C   UNL     1       2.731  14.222  19.236  0.00  0.00    +0.000 C 
ATOM     25  C   UNL     1       3.223  14.944  17.977  0.00  0.00    +0.000 C 
ATOM     26  C   UNL     1       3.682  14.463  20.409  0.00  0.00    +0.000 C 
ENDBRANCH  23  24
ENDBRANCH  16  17
ENDBRANCH   9  16
TORSDOF 6
ENDMDL
MODEL 4
REMARK VINA RESULT:      -6.4      0.883      1.542
REMARK  Name = 
REMARK  10 active torsions:
REMARK  status: ('A' for Active; 'I' for Inactive)
REMARK    1  A    between atoms: C_1  and  C_2
REMARK    2  A    between atoms: C_2  and  C_3
REMARK    3  A    between atoms: C_3  and  C_4
REMARK    4  A    between atoms: C_4  and  C_5
REMARK    5  A    between atoms: P_13  and  O_15
REMARK    6  A    between atoms: O_15  and  C_16
REMARK    7  A    between atoms: C_19  and  C_20
REMARK    8  A    between atoms: C_22  and  C_23
REMARK    9  A    between atoms: C_23  and  C_24
REMARK   10  A    between atoms: C_23  and  C_25
REMARK                            x       y       z     vdW  Elec       q    Type
REMARK                         _______ _______ _______ _____ _____    ______ ____
ROOT
ATOM      1  C   UNL     1      -0.539  10.417  19.921  0.00  0.00    +0.000 A 
ATOM      2  C   UNL     1      -0.307   9.742  21.126  0.00  0.00    +0.000 A 
ATOM      3  C   UNL     1       0.715   8.797  21.222  0.00  0.00    +0.000 A 
ATOM      4  C   UNL     1       1.489   8.509  20.098  0.00  0.00    +0.000 A 
ATOM      5  C   UNL     1       1.333   9.221  18.908  0.00  0.00    +0.000 A 
ATOM      6  C   UNL     1       0.308  10.169  18.828  0.00  0.00    +0.000 A 
ATOM      7  C   UNL     1       2.183   8.953  17.697  0.00  0.00    +0.000 C 
ATOM      8  O   UNL     1       3.205   7.985  17.898  0.00  0.00    +0.000 OA
ATOM      9  P   UNL     1       2.747   6.702  18.772  0.00  0.00    +0.000 P 
ATOM     10  S   UNL     1       1.372   5.598  17.936  0.00  0.00    +0.000 S 
ATOM     11  O   UNL     1       2.361   7.459  20.163  0.00  0.00    +0.000 OA
ENDROOT
BRANCH   1  12
ATOM     12  C   UNL     1      -1.723  11.340  19.746  0.00  0.00    +0.000 C 
BRANCH  12  13
ATOM     13  C   UNL     1      -1.398  12.810  19.995  0.00  0.00    +0.000 C 
BRANCH  13  15
ATOM     14  C   UNL     1      -2.685  12.828  22.157  0.00  0.00    +0.000 C 
ATOM     15  C   UNL     1      -1.348  13.109  21.494  0.00  0.00    +0.000 C 
ENDBRANCH  13  15
ENDBRANCH  12  13
ENDBRANCH   1  12
BRANCH   9  16
ATOM     16  O   UNL     1       4.166   5.977  19.110  0.00  0.00    +0.000 OA
BRANCH  16  17
ATOM     17  C   UNL     1       4.919   5.392  18.120  0.00  0.00    +0.000 A 
ATOM     18  C   UNL     1       5.888   6.143  17.439  0.00  0.00    +0.000 A 
ATOM     19  C   UNL     1       6.440   5.681  16.258  0.00  0.00    +0.000 A 
ATOM     20  C   UNL     1       6.052   4.445  15.751  0.00  0.00    +0.000 A 
ATOM     21  C   UNL     1       6.536   4.001  14.405  0.00  0.00    +0.000 C 
ATOM     22  C   UNL     1       5.213   3.624  16.520  0.00  0.00    +0.000 A 
ATOM     23  C   UNL     1       4.647   4.070  17.734  0.00  0.00    +0.000 A 
BRANCH  23  24
ATOM     24  C   UNL     1       3.802   3.086  18.532  0.00  0.00    +0.000 C 
ATOM     25  C   UNL     1       3.231   1.963  17.659  0.00  0.00    +0.000 C 
ATOM     26  C   UNL     1       4.502   2.515  19.765  0.00  0.00    +0.000 C 
ENDBRANCH  23  24
ENDBRANCH  16  17
ENDBRANCH   9  16
TORSDOF 6
ENDMDL
MODEL 5
REMARK VINA RESULT:      -6.4      3.229      8.124
REMARK  Name = 
REMARK  10 active torsions:
REMARK  status: ('A' for Active; 'I' for Inactive)
REMARK    1  A    between atoms: C_1  and  C_2
REMARK    2  A    between atoms: C_2  and  C_3
REMARK    3  A    between atoms: C_3  and  C_4
REMARK    4  A    between atoms: C_4  and  C_5
REMARK    5  A    between atoms: P_13  and  O_15
REMARK    6  A    between atoms: O_15  and  C_16
REMARK    7  A    between atoms: C_19  and  C_20
REMARK    8  A    between atoms: C_22  and  C_23
REMARK    9  A    between atoms: C_23  and  C_24
REMARK   10  A    between atoms: C_23  and  C_25
REMARK                            x       y       z     vdW  Elec       q    Type
REMARK                         _______ _______ _______ _____ _____    ______ ____
ROOT
ATOM      1  C   UNL     1       6.392   4.199  13.677  0.00  0.00    +0.000 A 
ATOM      2  C   UNL     1       5.907   3.047  14.311  0.00  0.00    +0.000 A 
ATOM      3  C   UNL     1       5.462   3.101  15.632  0.00  0.00    +0.000 A 
ATOM      4  C   UNL     1       5.528   4.308  16.328  0.00  0.00    +0.000 A 
ATOM      5  C   UNL     1       5.931   5.487  15.699  0.00  0.00    +0.000 A 
ATOM      6  C   UNL     1       6.369   5.419  14.373  0.00  0.00    +0.000 A 
ATOM      7  C   UNL     1       5.972   6.806  16.421  0.00  0.00    +0.000 C 
ATOM      8  O   UNL     1       5.486   6.762  17.756  0.00  0.00    +0.000 OA
ATOM      9  P   UNL     1       5.945   5.453  18.590  0.00  0.00    +0.000 P 
ATOM     10  S   UNL     1       7.867   5.326  18.909  0.00  0.00    +0.000 S 
ATOM     11  O   UNL     1       5.257   4.300  17.667  0.00  0.00    +0.000 OA
ENDROOT
BRANCH   1  12
ATOM     12  C   UNL     1       7.009   4.142  12.299  0.00  0.00    +0.000 C 
BRANCH  12  13
ATOM     13  C   UNL     1       6.311   3.169  11.353  0.00  0.00    +0.000 C 
BRANCH  13  15
ATOM     14  C   UNL     1       6.317   0.665  11.108  0.00  0.00    +0.000 C 
ATOM     15  C   UNL     1       7.168   1.922  11.127  0.00  0.00    +0.000 C 
ENDBRANCH  13  15
ENDBRANCH  12  13
ENDBRANCH   1  12
BRANCH   9  16
ATOM     16  O   UNL     1       4.986   5.516  19.905  0.00  0.00    +0.000 OA
BRANCH  16  17
ATOM     17  C   UNL     1       3.784   4.848  19.943  0.00  0.00    +0.000 A 
ATOM     18  C   UNL     1       3.758   3.468  20.189  0.00  0.00    +0.000 A 
ATOM     19  C   UNL     1       2.616   2.727  19.937  0.00  0.00    +0.000 A 
ATOM     20  C   UNL     1       1.472   3.361  19.462  0.00  0.00    +0.000 A 
ATOM     21  C   UNL     1       0.281   2.550  19.054  0.00  0.00    +0.000 C 
ATOM     22  C   UNL     1       1.450   4.762  19.380  0.00  0.00    +0.000 A 
ATOM     23  C   UNL     1       2.600   5.538  19.642  0.00  0.00    +0.000 A 
BRANCH  23  24
ATOM     24  C   UNL     1       2.464   7.054  19.593  0.00  0.00    +0.000 C 
ATOM     25  C   UNL     1       2.174   7.569  18.178  0.00  0.00    +0.000 C 
ATOM     26  C   UNL     1       1.464   7.628  20.596  0.00  0.00    +0.000 C 
ENDBRANCH  23  24
ENDBRANCH  16  17
ENDBRANCH   9  16
TORSDOF 6
ENDMDL
MODEL 6
REMARK VINA RESULT:      -6.4      3.904      8.569
REMARK  Name = 
REMARK  10 active torsions:
REMARK  status: ('A' for Active; 'I' for Inactive)
REMARK    1  A    between atoms: C_1  and  C_2
REMARK    2  A    between atoms: C_2  and  C_3
REMARK    3  A    between atoms: C_3  and  C_4
REMARK    4  A    between atoms: C_4  and  C_5
REMARK    5  A    between atoms: P_13  and  O_15
REMARK    6  A    between atoms: O_15  and  C_16
REMARK    7  A    between atoms: C_19  and  C_20
REMARK    8  A    between atoms: C_22  and  C_23
REMARK    9  A    between atoms: C_23  and  C_24
REMARK   10  A    between atoms: C_23  and  C_25
REMARK                            x       y       z     vdW  Elec       q    Type
REMARK                         _______ _______ _______ _____ _____    ______ ____
ROOT
ATOM      1  C   UNL     1       2.290   6.798  19.652  0.00  0.00    +0.000 A 
ATOM      2  C   UNL     1       2.680   7.197  18.367  0.00  0.00    +0.000 A 
ATOM      3  C   UNL     1       2.380   8.478  17.903  0.00  0.00    +0.000 A 
ATOM      4  C   UNL     1       1.663   9.352  18.719  0.00  0.00    +0.000 A 
ATOM      5  C   UNL     1       1.330   9.011  20.031  0.00  0.00    +0.000 A 
ATOM      6  C   UNL     1       1.642   7.726  20.485  0.00  0.00    +0.000 A 
ATOM      7  C   UNL     1       0.591   9.954  20.941  0.00  0.00    +0.000 C 
ATOM      8  O   UNL     1       0.344  11.237  20.383  0.00  0.00    +0.000 OA
ATOM      9  P   UNL     1      -0.104  11.214  18.828  0.00  0.00    +0.000 P 
ATOM     10  S   UNL     1      -1.820  10.345  18.490  0.00  0.00    +0.000 S 
ATOM     11  O   UNL     1       1.226  10.530  18.183  0.00  0.00    +0.000 OA
ENDROOT
BRANCH   1  12
ATOM     12  C   UNL     1       2.476   5.376  20.130  0.00  0.00    +0.000 C 
BRANCH  12  13
ATOM     13  C   UNL     1       1.743   4.342  19.280  0.00  0.00    +0.000 C 
BRANCH  13  15
ATOM     14  C   UNL     1       1.698   3.164  21.503  0.00  0.00    +0.000 C 
ATOM     15  C   UNL     1       1.001   3.339  20.165  0.00  0.00    +0.000 C 
ENDBRANCH  13  15
ENDBRANCH  12  13
ENDBRANCH   1  12
BRANCH   9  16
ATOM     16  O   UNL     1       0.022  12.781  18.399  0.00  0.00    +0.000 OA
BRANCH  16  17
ATOM     17  C   UNL     1       1.100  13.541  18.788  0.00  0.00    +0.000 A 
ATOM     18  C   UNL     1       2.308  13.456  18.082  0.00  0.00    +0.000 A 
ATOM     19  C   UNL     1       3.477  13.966  18.618  0.00  0.00    +0.000 A 
ATOM     20  C   UNL     1       3.452  14.596  19.858  0.00  0.00    +0.000 A 
ATOM     21  C   UNL     1       4.732  15.023  20.508  0.00  0.00    +0.000 C 
ATOM     22  C   UNL     1       2.216  14.828  20.482  0.00  0.00    +0.000 A 
ATOM     23  C   UNL     1       1.010  14.326  19.948  0.00  0.00    +0.000 A 
BRANCH  23  24
ATOM     24  C   UNL     1      -0.289  14.685  20.658  0.00  0.00    +0.000 C 
ATOM     25  C   UNL     1      -0.092  14.904  22.162  0.00  0.00    +0.000 C 
ATOM     26  C   UNL     1      -1.044  15.857  20.031  0.00  0.00    +0.000 C 
ENDBRANCH  23  24
ENDBRANCH  16  17
ENDBRANCH   9  16
TORSDOF 6
ENDMDL
MODEL 7
REMARK VINA RESULT:      -6.4      3.659      8.832
REMARK  Name = 
REMARK  10 active torsions:
REMARK  status: ('A' for Active; 'I' for Inactive)
REMARK    1  A    between atoms: C_1  and  C_2
REMARK    2  A    between atoms: C_2  and  C_3
REMARK    3  A    between atoms: C_3  and  C_4
REMARK    4  A    between atoms: C_4  and  C_5
REMARK    5  A    between atoms: P_13  and  O_15
REMARK    6  A    between atoms: O_15  and  C_16
REMARK    7  A    between atoms: C_19  and  C_20
REMARK    8  A    between atoms: C_22  and  C_23
REMARK    9  A    between atoms: C_23  and  C_24
REMARK   10  A    between atoms: C_23  and  C_25
REMARK                            x       y       z     vdW  Elec       q    Type
REMARK                         _______ _______ _______ _____ _____    ______ ____
ROOT
ATOM      1  C   UNL     1       1.989   5.844  20.090  0.00  0.00    +0.000 A 
ATOM      2  C   UNL     1       2.585   6.036  18.837  0.00  0.00    +0.000 A 
ATOM      3  C   UNL     1       2.634   7.308  18.265  0.00  0.00    +0.000 A 
ATOM      4  C   UNL     1       2.061   8.385  18.941  0.00  0.00    +0.000 A 
ATOM      5  C   UNL     1       1.532   8.239  20.224  0.00  0.00    +0.000 A 
ATOM      6  C   UNL     1       1.494   6.959  20.787  0.00  0.00    +0.000 A 
ATOM      7  C   UNL     1       0.945   9.395  20.986  0.00  0.00    +0.000 C 
ATOM      8  O   UNL     1       1.055  10.650  20.327  0.00  0.00    +0.000 OA
ATOM      9  P   UNL     1       0.767  10.596  18.735  0.00  0.00    +0.000 P 
ATOM     10  S   UNL     1      -1.060  10.105  18.256  0.00  0.00    +0.000 S 
ATOM     11  O   UNL     1       1.962   9.581  18.288  0.00  0.00    +0.000 OA
ENDROOT
BRANCH   1  12
ATOM     12  C   UNL     1       1.796   4.462  20.670  0.00  0.00    +0.000 C 
BRANCH  12  13
ATOM     13  C   UNL     1       0.761   3.622  19.926  0.00  0.00    +0.000 C 
BRANCH  13  15
ATOM     14  C   UNL     1       2.010   2.482  18.063  0.00  0.00    +0.000 C 
ATOM     15  C   UNL     1       1.377   2.312  19.433  0.00  0.00    +0.000 C 
ENDBRANCH  13  15
ENDBRANCH  12  13
ENDBRANCH   1  12
BRANCH   9  16
ATOM     16  O   UNL     1       1.292  12.053  18.230  0.00  0.00    +0.000 OA
BRANCH  16  17
ATOM     17  C   UNL     1       0.819  13.215  18.794  0.00  0.00    +0.000 A 
ATOM     18  C   UNL     1      -0.517  13.298  19.212  0.00  0.00    +0.000 A 
ATOM     19  C   UNL     1      -1.093  14.523  19.496  0.00  0.00    +0.000 A 
ATOM     20  C   UNL     1      -0.334  15.685  19.395  0.00  0.00    +0.000 A 
ATOM     21  C   UNL     1      -0.985  17.023  19.563  0.00  0.00    +0.000 C 
ATOM     22  C   UNL     1       1.042  15.582  19.143  0.00  0.00    +0.000 A 
ATOM     23  C   UNL     1       1.654  14.341  18.860  0.00  0.00    +0.000 A 
BRANCH  23  24
ATOM     24  C   UNL     1       3.164  14.318  18.664  0.00  0.00    +0.000 C 
ATOM     25  C   UNL     1       3.628  15.297  17.580  0.00  0.00    +0.000 C 
ATOM     26  C   UNL     1       3.967  14.510  19.951  0.00  0.00    +0.000 C 
ENDBRANCH  23  24
ENDBRANCH  16  17
ENDBRANCH   9  16
TORSDOF 6
ENDMDL
MODEL 8
REMARK VINA RESULT:      -6.3      1.982      3.047
REMARK  Name = 
REMARK  10 active torsions:
REMARK  status: ('A' for Active; 'I' for Inactive)
REMARK    1  A    between atoms: C_1  and  C_2
REMARK    2  A    between atoms: C_2  and  C_3
REMARK    3  A    between atoms: C_3  and  C_4
REMARK    4  A    between atoms: C_4  and  C_5
REMARK    5  A    between atoms: P_13  and  O_15
REMARK    6  A    between atoms: O_15  and  C_16
REMARK    7  A    between atoms: C_19  and  C_20
REMARK    8  A    between atoms: C_22  and  C_23
REMARK    9  A    between atoms: C_23  and  C_24
REMARK   10  A    between atoms: C_23  and  C_25
REMARK                            x       y       z     vdW  Elec       q    Type
REMARK                         _______ _______ _______ _____ _____    ______ ____
ROOT
ATOM      1  C   UNL     1       0.207   9.553  20.599  0.00  0.00    +0.000 A 
ATOM      2  C   UNL     1       0.760   8.787  21.634  0.00  0.00    +0.000 A 
ATOM      3  C   UNL     1       1.745   7.837  21.361  0.00  0.00    +0.000 A 
ATOM      4  C   UNL     1       2.156   7.635  20.044  0.00  0.00    +0.000 A 
ATOM      5  C   UNL     1       1.682   8.437  19.005  0.00  0.00    +0.000 A 
ATOM      6  C   UNL     1       0.699   9.389  19.294  0.00  0.00    +0.000 A 
ATOM      7  C   UNL     1       2.142   8.262  17.584  0.00  0.00    +0.000 C 
ATOM      8  O   UNL     1       3.156   7.281  17.410  0.00  0.00    +0.000 OA
ATOM      9  P   UNL     1       2.939   5.935  18.283  0.00  0.00    +0.000 P 
ATOM     10  S   UNL     1       1.356   4.899  17.799  0.00  0.00    +0.000 S 
ATOM     11  O   UNL     1       2.986   6.583  19.778  0.00  0.00    +0.000 OA
ENDROOT
BRANCH   1  12
ATOM     12  C   UNL     1      -0.956  10.487  20.842  0.00  0.00    +0.000 C 
BRANCH  12  13
ATOM     13  C   UNL     1      -0.791  11.365  22.079  0.00  0.00    +0.000 C 
BRANCH  13  15
ATOM     14  C   UNL     1      -2.739  12.049  23.517  0.00  0.00    +0.000 C 
ATOM     15  C   UNL     1      -1.977  12.319  22.231  0.00  0.00    +0.000 C 
ENDBRANCH  13  15
ENDBRANCH  12  13
ENDBRANCH   1  12
BRANCH   9  16
ATOM     16  O   UNL     1       4.378   5.185  18.143  0.00  0.00    +0.000 OA
BRANCH  16  17
ATOM     17  C   UNL     1       5.087   5.219  16.966  0.00  0.00    +0.000 A 
ATOM     18  C   UNL     1       4.567   4.606  15.817  0.00  0.00    +0.000 A 
ATOM     19  C   UNL     1       5.374   4.362  14.719  0.00  0.00    +0.000 A 
ATOM     20  C   UNL     1       6.709   4.754  14.742  0.00  0.00    +0.000 A 
ATOM     21  C   UNL     1       7.623   4.370  13.619  0.00  0.00    +0.000 C 
ATOM     22  C   UNL     1       7.179   5.517  15.822  0.00  0.00    +0.000 A 
ATOM     23  C   UNL     1       6.370   5.786  16.948  0.00  0.00    +0.000 A 
BRANCH  23  24
ATOM     24  C   UNL     1       6.944   6.677  18.042  0.00  0.00    +0.000 C 
ATOM     25  C   UNL     1       7.816   5.899  19.033  0.00  0.00    +0.000 C 
ATOM     26  C   UNL     1       7.679   7.913  17.523  0.00  0.00    +0.000 C 
ENDBRANCH  23  24
ENDBRANCH  16  17
ENDBRANCH   9  16
TORSDOF 6
ENDMDL
MODEL 9
REMARK VINA RESULT:      -6.3      4.274      9.959
REMARK  Name = 
REMARK  10 active torsions:
REMARK  status: ('A' for Active; 'I' for Inactive)
REMARK    1  A    between atoms: C_1  and  C_2
REMARK    2  A    between atoms: C_2  and  C_3
REMARK    3  A    between atoms: C_3  and  C_4
REMARK    4  A    between atoms: C_4  and  C_5
REMARK    5  A    between atoms: P_13  and  O_15
REMARK    6  A    between atoms: O_15  and  C_16
REMARK    7  A    between atoms: C_19  and  C_20
REMARK    8  A    between atoms: C_22  and  C_23
REMARK    9  A    between atoms: C_23  and  C_24
REMARK   10  A    between atoms: C_23  and  C_25
REMARK                            x       y       z     vdW  Elec       q    Type
REMARK                         _______ _______ _______ _____ _____    ______ ____
ROOT
ATOM      1  C   UNL     1       1.417   8.317  20.080  0.00  0.00    +0.000 A 
ATOM      2  C   UNL     1       0.722   8.235  21.294  0.00  0.00    +0.000 A 
ATOM      3  C   UNL     1      -0.183   9.233  21.658  0.00  0.00    +0.000 A 
ATOM      4  C   UNL     1      -0.371  10.328  20.816  0.00  0.00    +0.000 A 
ATOM      5  C   UNL     1       0.246  10.397  19.567  0.00  0.00    +0.000 A 
ATOM      6  C   UNL     1       1.146   9.387  19.212  0.00  0.00    +0.000 A 
ATOM      7  C   UNL     1       0.026  11.550  18.626  0.00  0.00    +0.000 C 
ATOM      8  O   UNL     1      -0.923  12.506  19.080  0.00  0.00    +0.000 OA
ATOM      9  P   UNL     1      -0.818  12.854  20.658  0.00  0.00    +0.000 P 
ATOM     10  S   UNL     1       0.845  13.726  21.189  0.00  0.00    +0.000 S 
ATOM     11  O   UNL     1      -1.122  11.375  21.272  0.00  0.00    +0.000 OA
ENDROOT
BRANCH   1  12
ATOM     12  C   UNL     1       2.503   7.328  19.723  0.00  0.00    +0.000 C 
BRANCH  12  13
ATOM     13  C   UNL     1       2.271   6.616  18.393  0.00  0.00    +0.000 C 
BRANCH  13  15
ATOM     14  C   UNL     1       1.545   4.322  17.658  0.00  0.00    +0.000 C 
ATOM     15  C   UNL     1       2.502   5.111  18.535  0.00  0.00    +0.000 C 
ENDBRANCH  13  15
ENDBRANCH  12  13
ENDBRANCH   1  12
BRANCH   9  16
ATOM     16  O   UNL     1      -2.198  13.675  20.933  0.00  0.00    +0.000 OA
BRANCH  16  17
ATOM     17  C   UNL     1      -3.417  13.039  20.939  0.00  0.00    +0.000 A 
ATOM     18  C   UNL     1      -3.949  12.532  19.745  0.00  0.00    +0.000 A 
ATOM     19  C   UNL     1      -5.281  12.165  19.664  0.00  0.00    +0.000 A 
ATOM     20  C   UNL     1      -6.096  12.272  20.787  0.00  0.00    +0.000 A 
ATOM     21  C   UNL     1      -7.567  12.012  20.672  0.00  0.00    +0.000 C 
ATOM     22  C   UNL     1      -5.521  12.617  22.019  0.00  0.00    +0.000 A 
ATOM     23  C   UNL     1      -4.162  12.985  22.127  0.00  0.00    +0.000 A 
BRANCH  23  24
ATOM     24  C   UNL     1      -3.610  13.280  23.516  0.00  0.00    +0.000 C 
ATOM     25  C   UNL     1      -3.661  14.773  23.860  0.00  0.00    +0.000 C 
ATOM     26  C   UNL     1      -4.237  12.442  24.630  0.00  0.00    +0.000 C 
ENDBRANCH  23  24
ENDBRANCH  16  17
ENDBRANCH   9  16
TORSDOF 6
ENDMDL
