MODEL 1
REMARK VINA RESULT:      -8.2      0.000      0.000
REMARK  Name = 
REMARK  8 active torsions:
REMARK  status: ('A' for Active; 'I' for Inactive)
REMARK    1  A    between atoms: C_1  and  C_2
REMARK    2  A    between atoms: C_2  and  O_3
REMARK    3  A    between atoms: N_6  and  C_7
REMARK    4  A    between atoms: C_7  and  C_8
REMARK    5  A    between atoms: C_11  and  O_12
REMARK    6  A    between atoms: O_12  and  C_13
REMARK    7  A    between atoms: C_16  and  C_18
REMARK    8  A    between atoms: C_21  and  C_22
REMARK                            x       y       z     vdW  Elec       q    Type
REMARK                         _______ _______ _______ _____ _____    ______ ____
ROOT
ATOM      1  C   UNL     1       3.789   6.806  18.752  0.00  0.00    +0.000 C 
ATOM      2  C   UNL     1       4.754   5.763  19.364  0.00  0.00    +0.000 C 
ATOM      3  N   UNL     1       5.327   5.636  18.035  0.00  0.00    +0.000 N 
ATOM      4  C   UNL     1       6.360   4.832  17.598  0.00  0.00    +0.000 C 
ATOM      5  O   UNL     1       7.021   4.178  18.411  0.00  0.00    +0.000 OA
ATOM      6  C   UNL     1       4.171   6.220  17.372  0.00  0.00    +0.000 C 
ENDROOT
BRANCH   4   7
ATOM      7  C   UNL     1       6.631   4.829  16.168  0.00  0.00    +0.000 A 
ATOM      8  N   UNL     1       7.501   5.582  15.528  0.00  0.00    +0.000 NA
ATOM      9  N   UNL     1       7.447   5.214  14.203  0.00  0.00    +0.000 NA
ATOM     10  C   UNL     1       6.541   4.260  14.112  0.00  0.00    +0.000 A 
ATOM     11  O   UNL     1       5.978   3.951  15.326  0.00  0.00    +0.000 OA
BRANCH  10  12
ATOM     12  C   UNL     1       6.070   3.557  12.923  0.00  0.00    +0.000 A 
ATOM     13  C   UNL     1       4.755   3.779  12.478  0.00  0.00    +0.000 A 
ATOM     14  C   UNL     1       4.240   3.096  11.374  0.00  0.00    +0.000 A 
ATOM     15  C   UNL     1       5.038   2.179  10.695  0.00  0.00    +0.000 A 
ATOM     16  C   UNL     1       6.349   1.956  11.112  0.00  0.00    +0.000 A 
ATOM     17  C   UNL     1       6.865   2.643  12.218  0.00  0.00    +0.000 A 
ENDBRANCH  10  12
ENDBRANCH   4   7
BRANCH   1  18
ATOM     18  O   UNL     1       2.395   6.715  19.148  0.00  0.00    +0.000 OA
BRANCH  18  22
ATOM     19  C   UNL     1       0.622  10.192  20.706  0.00  0.00    +0.000 A 
ATOM     20  C   UNL     1       0.972  10.082  19.354  0.00  0.00    +0.000 A 
ATOM     21  C   UNL     1       1.552   8.903  18.861  0.00  0.00    +0.000 A 
ATOM     22  C   UNL     1       1.804   7.824  19.713  0.00  0.00    +0.000 A 
ATOM     23  C   UNL     1       1.415   7.909  21.049  0.00  0.00    +0.000 A 
ATOM     24  C   UNL     1       0.833   9.083  21.539  0.00  0.00    +0.000 A 
BRANCH  19  25
ATOM     25  C   UNL     1       0.081  11.483  21.294  0.00  0.00    +0.000 C 
BRANCH  25  30
ATOM     26  C   UNL     1      -4.146  13.881  21.923  0.00  0.00    +0.000 C 
ATOM     27  C   UNL     1      -2.798  13.292  22.316  0.00  0.00    +0.000 C 
ATOM     28  C   UNL     1      -2.891  12.148  23.310  0.00  0.00    +0.000 C 
ATOM     29  C   UNL     1      -1.559  11.440  23.106  0.00  0.00    +0.000 C 
ATOM     30  N   UNL     1      -1.345  11.461  21.652  0.00  0.00    +0.000 NA
ATOM     31  C   UNL     1      -2.035  12.671  21.134  0.00  0.00    +0.000 C 
BRANCH  27  32
ATOM     32  O   UNL     1      -2.000  14.345  22.887  0.00  0.00    +0.000 OA
ATOM     33  H   UNL     1      -2.078  15.122  22.307  0.00  0.00    +0.000 HD
ENDBRANCH  27  32
ENDBRANCH  25  30
ENDBRANCH  19  25
ENDBRANCH  18  22
ENDBRANCH   1  18
TORSDOF 7
ENDMDL
MODEL 2
REMARK VINA RESULT:      -8.1      2.117      2.491
REMARK  Name = 
REMARK  8 active torsions:
REMARK  status: ('A' for Active; 'I' for Inactive)
REMARK    1  A    between atoms: C_1  and  C_2
REMARK    2  A    between atoms: C_2  and  O_3
REMARK    3  A    between atoms: N_6  and  C_7
REMARK    4  A    between atoms: C_7  and  C_8
REMARK    5  A    between atoms: C_11  and  O_12
REMARK    6  A    between atoms: O_12  and  C_13
REMARK    7  A    between atoms: C_16  and  C_18
REMARK    8  A    between atoms: C_21  and  C_22
REMARK                            x       y       z     vdW  Elec       q    Type
REMARK                         _______ _______ _______ _____ _____    ______ ____
ROOT
ATOM      1  C   UNL     1       4.353   6.677  18.292  0.00  0.00    +0.000 C 
ATOM      2  C   UNL     1       5.544   5.843  18.821  0.00  0.00    +0.000 C 
ATOM      3  N   UNL     1       5.923   5.656  17.430  0.00  0.00    +0.000 N 
ATOM      4  C   UNL     1       6.986   4.956  16.897  0.00  0.00    +0.000 C 
ATOM      5  O   UNL     1       7.852   4.486  17.642  0.00  0.00    +0.000 OA
ATOM      6  C   UNL     1       4.606   6.007  16.921  0.00  0.00    +0.000 C 
ENDROOT
BRANCH   4   7
ATOM      7  C   UNL     1       7.036   4.841  15.448  0.00  0.00    +0.000 A 
ATOM      8  N   UNL     1       7.794   5.537  14.625  0.00  0.00    +0.000 NA
ATOM      9  N   UNL     1       7.541   5.067  13.358  0.00  0.00    +0.000 NA
ATOM     10  C   UNL     1       6.636   4.115  13.480  0.00  0.00    +0.000 A 
ATOM     11  O   UNL     1       6.267   3.905  14.786  0.00  0.00    +0.000 OA
BRANCH  10  12
ATOM     12  C   UNL     1       5.994   3.325  12.435  0.00  0.00    +0.000 A 
ATOM     13  C   UNL     1       4.699   3.676  12.017  0.00  0.00    +0.000 A 
ATOM     14  C   UNL     1       4.020   2.924  11.054  0.00  0.00    +0.000 A 
ATOM     15  C   UNL     1       4.633   1.809  10.491  0.00  0.00    +0.000 A 
ATOM     16  C   UNL     1       5.922   1.453  10.882  0.00  0.00    +0.000 A 
ATOM     17  C   UNL     1       6.603   2.208  11.845  0.00  0.00    +0.000 A 
ENDBRANCH  10  12
ENDBRANCH   4   7
BRANCH   1  18
ATOM     18  O   UNL     1       3.064   6.442  18.918  0.00  0.00    +0.000 OA
BRANCH  18  22
ATOM     19  C   UNL     1       0.874   9.859  20.005  0.00  0.00    +0.000 A 
ATOM     20  C   UNL     1       1.452   9.724  18.736  0.00  0.00    +0.000 A 
ATOM     21  C   UNL     1       2.168   8.565  18.399  0.00  0.00    +0.000 A 
ATOM     22  C   UNL     1       2.329   7.533  19.328  0.00  0.00    +0.000 A 
ATOM     23  C   UNL     1       1.717   7.641  20.575  0.00  0.00    +0.000 A 
ATOM     24  C   UNL     1       1.000   8.795  20.910  0.00  0.00    +0.000 A 
BRANCH  19  25
ATOM     25  C   UNL     1       0.175  11.136  20.437  0.00  0.00    +0.000 C 
BRANCH  25  30
ATOM     26  C   UNL     1      -3.425   9.632  17.472  0.00  0.00    +0.000 C 
ATOM     27  C   UNL     1      -2.170  10.394  17.877  0.00  0.00    +0.000 C 
ATOM     28  C   UNL     1      -2.347  11.901  17.909  0.00  0.00    +0.000 C 
ATOM     29  C   UNL     1      -1.205  12.337  18.816  0.00  0.00    +0.000 C 
ATOM     30  N   UNL     1      -1.175  11.330  19.886  0.00  0.00    +0.000 NA
ATOM     31  C   UNL     1      -1.689  10.065  19.300  0.00  0.00    +0.000 C 
BRANCH  27  32
ATOM     32  O   UNL     1      -1.127  10.065  16.942  0.00  0.00    +0.000 OA
ATOM     33  H   UNL     1      -0.855   9.147  17.114  0.00  0.00    +0.000 HD
ENDBRANCH  27  32
ENDBRANCH  25  30
ENDBRANCH  19  25
ENDBRANCH  18  22
ENDBRANCH   1  18
TORSDOF 7
ENDMDL
MODEL 3
REMARK VINA RESULT:      -8.0      1.359      2.151
REMARK  Name = 
REMARK  8 active torsions:
REMARK  status: ('A' for Active; 'I' for Inactive)
REMARK    1  A    between atoms: C_1  and  C_2
REMARK    2  A    between atoms: C_2  and  O_3
REMARK    3  A    between atoms: N_6  and  C_7
REMARK    4  A    between atoms: C_7  and  C_8
REMARK    5  A    between atoms: C_11  and  O_12
REMARK    6  A    between atoms: O_12  and  C_13
REMARK    7  A    between atoms: C_16  and  C_18
REMARK    8  A    between atoms: C_21  and  C_22
REMARK                            x       y       z     vdW  Elec       q    Type
REMARK                         _______ _______ _______ _____ _____    ______ ____
ROOT
ATOM      1  C   UNL     1       4.222   6.566  18.753  0.00  0.00    +0.000 C 
ATOM      2  C   UNL     1       5.361   5.646  19.252  0.00  0.00    +0.000 C 
ATOM      3  N   UNL     1       5.759   5.524  17.860  0.00  0.00    +0.000 N 
ATOM      4  C   UNL     1       6.799   4.806  17.304  0.00  0.00    +0.000 C 
ATOM      5  O   UNL     1       7.627   4.251  18.035  0.00  0.00    +0.000 OA
ATOM      6  C   UNL     1       4.471   5.966  17.349  0.00  0.00    +0.000 C 
ENDROOT
BRANCH   4   7
ATOM      7  C   UNL     1       6.874   4.774  15.852  0.00  0.00    +0.000 A 
ATOM      8  N   UNL     1       7.622   5.536  15.082  0.00  0.00    +0.000 NA
ATOM      9  N   UNL     1       7.401   5.132  13.786  0.00  0.00    +0.000 NA
ATOM     10  C   UNL     1       6.524   4.148  13.840  0.00  0.00    +0.000 A 
ATOM     11  O   UNL     1       6.143   3.854  15.127  0.00  0.00    +0.000 OA
BRANCH  10  12
ATOM     12  C   UNL     1       5.921   3.399  12.743  0.00  0.00    +0.000 A 
ATOM     13  C   UNL     1       6.656   2.361  12.144  0.00  0.00    +0.000 A 
ATOM     14  C   UNL     1       6.144   1.645  11.060  0.00  0.00    +0.000 A 
ATOM     15  C   UNL     1       4.882   1.955  10.560  0.00  0.00    +0.000 A 
ATOM     16  C   UNL     1       4.132   2.971  11.149  0.00  0.00    +0.000 A 
ATOM     17  C   UNL     1       4.645   3.688  12.238  0.00  0.00    +0.000 A 
ENDBRANCH  10  12
ENDBRANCH   4   7
BRANCH   1  18
ATOM     18  O   UNL     1       2.910   6.356  19.341  0.00  0.00    +0.000 OA
BRANCH  18  22
ATOM     19  C   UNL     1       0.440   9.636  20.235  0.00  0.00    +0.000 A 
ATOM     20  C   UNL     1       0.681   8.616  21.165  0.00  0.00    +0.000 A 
ATOM     21  C   UNL     1       1.521   7.539  20.840  0.00  0.00    +0.000 A 
ATOM     22  C   UNL     1       2.119   7.458  19.579  0.00  0.00    +0.000 A 
ATOM     23  C   UNL     1       1.921   8.492  18.667  0.00  0.00    +0.000 A 
ATOM     24  C   UNL     1       1.087   9.568  18.992  0.00  0.00    +0.000 A 
BRANCH  19  25
ATOM     25  C   UNL     1      -0.536  10.765  20.515  0.00  0.00    +0.000 C 
BRANCH  25  30
ATOM     26  C   UNL     1       1.715  14.910  21.847  0.00  0.00    +0.000 C 
ATOM     27  C   UNL     1       0.546  13.958  21.631  0.00  0.00    +0.000 C 
ATOM     28  C   UNL     1      -0.433  14.415  20.564  0.00  0.00    +0.000 C 
ATOM     29  C   UNL     1      -1.129  13.114  20.190  0.00  0.00    +0.000 C 
ATOM     30  N   UNL     1      -0.055  12.111  20.170  0.00  0.00    +0.000 NA
ATOM     31  C   UNL     1       0.976  12.564  21.140  0.00  0.00    +0.000 C 
BRANCH  27  32
ATOM     32  O   UNL     1      -0.154  13.818  22.880  0.00  0.00    +0.000 OA
ATOM     33  H   UNL     1       0.474  13.462  23.532  0.00  0.00    +0.000 HD
ENDBRANCH  27  32
ENDBRANCH  25  30
ENDBRANCH  19  25
ENDBRANCH  18  22
ENDBRANCH   1  18
TORSDOF 7
ENDMDL
MODEL 4
REMARK VINA RESULT:      -8.0      1.524      2.197
REMARK  Name = 
REMARK  8 active torsions:
REMARK  status: ('A' for Active; 'I' for Inactive)
REMARK    1  A    between atoms: C_1  and  C_2
REMARK    2  A    between atoms: C_2  and  O_3
REMARK    3  A    between atoms: N_6  and  C_7
REMARK    4  A    between atoms: C_7  and  C_8
REMARK    5  A    between atoms: C_11  and  O_12
REMARK    6  A    between atoms: O_12  and  C_13
REMARK    7  A    between atoms: C_16  and  C_18
REMARK    8  A    between atoms: C_21  and  C_22
REMARK                            x       y       z     vdW  Elec       q    Type
REMARK                         _______ _______ _______ _____ _____    ______ ____
ROOT
ATOM      1  C   UNL     1       2.756   6.910  19.688  0.00  0.00    +0.000 C 
ATOM      2  C   UNL     1       2.781   5.415  20.087  0.00  0.00    +0.000 C 
ATOM      3  N   UNL     1       3.950   5.293  19.233  0.00  0.00    +0.000 N 
ATOM      4  C   UNL     1       4.719   4.181  18.952  0.00  0.00    +0.000 C 
ATOM      5  O   UNL     1       4.523   3.124  19.561  0.00  0.00    +0.000 OA
ATOM      6  C   UNL     1       3.667   6.518  18.501  0.00  0.00    +0.000 C 
ENDROOT
BRANCH   4   7
ATOM      7  C   UNL     1       5.762   4.339  17.951  0.00  0.00    +0.000 A 
ATOM      8  N   UNL     1       7.045   4.538  18.170  0.00  0.00    +0.000 NA
ATOM      9  N   UNL     1       7.657   4.588  16.939  0.00  0.00    +0.000 NA
ATOM     10  C   UNL     1       6.708   4.424  16.038  0.00  0.00    +0.000 A 
ATOM     11  O   UNL     1       5.469   4.251  16.605  0.00  0.00    +0.000 OA
BRANCH  10  12
ATOM     12  C   UNL     1       6.817   4.438  14.583  0.00  0.00    +0.000 A 
ATOM     13  C   UNL     1       6.019   3.556  13.834  0.00  0.00    +0.000 A 
ATOM     14  C   UNL     1       6.119   3.495  12.442  0.00  0.00    +0.000 A 
ATOM     15  C   UNL     1       7.018   4.323  11.777  0.00  0.00    +0.000 A 
ATOM     16  C   UNL     1       7.807   5.215  12.500  0.00  0.00    +0.000 A 
ATOM     17  C   UNL     1       7.706   5.277  13.896  0.00  0.00    +0.000 A 
ENDBRANCH  10  12
ENDBRANCH   4   7
BRANCH   1  18
ATOM     18  O   UNL     1       1.458   7.477  19.370  0.00  0.00    +0.000 OA
BRANCH  18  22
ATOM     19  C   UNL     1       0.531  11.257  20.955  0.00  0.00    +0.000 A 
ATOM     20  C   UNL     1       0.615  10.116  21.764  0.00  0.00    +0.000 A 
ATOM     21  C   UNL     1       0.939   8.869  21.206  0.00  0.00    +0.000 A 
ATOM     22  C   UNL     1       1.168   8.742  19.833  0.00  0.00    +0.000 A 
ATOM     23  C   UNL     1       1.131   9.880  19.031  0.00  0.00    +0.000 A 
ATOM     24  C   UNL     1       0.813  11.125  19.588  0.00  0.00    +0.000 A 
BRANCH  19  25
ATOM     25  C   UNL     1       0.091  12.602  21.507  0.00  0.00    +0.000 C 
BRANCH  25  30
ATOM     26  C   UNL     1      -4.738  13.222  20.952  0.00  0.00    +0.000 C 
ATOM     27  C   UNL     1      -3.297  13.628  21.229  0.00  0.00    +0.000 C 
ATOM     28  C   UNL     1      -3.046  14.075  22.658  0.00  0.00    +0.000 C 
ATOM     29  C   UNL     1      -1.540  13.892  22.790  0.00  0.00    +0.000 C 
ATOM     30  N   UNL     1      -1.257  12.629  22.094  0.00  0.00    +0.000 NA
ATOM     31  C   UNL     1      -2.292  12.479  21.038  0.00  0.00    +0.000 C 
BRANCH  27  32
ATOM     32  O   UNL     1      -2.954  14.702  20.335  0.00  0.00    +0.000 OA
ATOM     33  H   UNL     1      -2.290  14.365  19.709  0.00  0.00    +0.000 HD
ENDBRANCH  27  32
ENDBRANCH  25  30
ENDBRANCH  19  25
ENDBRANCH  18  22
ENDBRANCH   1  18
TORSDOF 7
ENDMDL
MODEL 5
REMARK VINA RESULT:      -8.0      1.478      2.231
REMARK  Name = 
REMARK  8 active torsions:
REMARK  status: ('A' for Active; 'I' for Inactive)
REMARK    1  A    between atoms: C_1  and  C_2
REMARK    2  A    between atoms: C_2  and  O_3
REMARK    3  A    between atoms: N_6  and  C_7
REMARK    4  A    between atoms: C_7  and  C_8
REMARK    5  A    between atoms: C_11  and  O_12
REMARK    6  A    between atoms: O_12  and  C_13
REMARK    7  A    between atoms: C_16  and  C_18
REMARK    8  A    between atoms: C_21  and  C_22
REMARK                            x       y       z     vdW  Elec       q    Type
REMARK                         _______ _______ _______ _____ _____    ______ ____
ROOT
ATOM      1  C   UNL     1       4.090   6.807  18.728  0.00  0.00    +0.000 C 
ATOM      2  C   UNL     1       5.131   5.812  19.293  0.00  0.00    +0.000 C 
ATOM      3  N   UNL     1       5.603   5.660  17.926  0.00  0.00    +0.000 N 
ATOM      4  C   UNL     1       6.622   4.871  17.433  0.00  0.00    +0.000 C 
ATOM      5  O   UNL     1       7.364   4.262  18.210  0.00  0.00    +0.000 OA
ATOM      6  C   UNL     1       4.381   6.189  17.340  0.00  0.00    +0.000 C 
ENDROOT
BRANCH   4   7
ATOM      7  C   UNL     1       6.781   4.830  15.987  0.00  0.00    +0.000 A 
ATOM      8  N   UNL     1       7.613   5.549  15.263  0.00  0.00    +0.000 NA
ATOM      9  N   UNL     1       7.448   5.153  13.956  0.00  0.00    +0.000 NA
ATOM     10  C   UNL     1       6.518   4.218  13.958  0.00  0.00    +0.000 A 
ATOM     11  O   UNL     1       6.046   3.949  15.220  0.00  0.00    +0.000 OA
BRANCH  10  12
ATOM     12  C   UNL     1       5.941   3.500  12.827  0.00  0.00    +0.000 A 
ATOM     13  C   UNL     1       6.698   2.491  12.205  0.00  0.00    +0.000 A 
ATOM     14  C   UNL     1       6.212   1.806  11.089  0.00  0.00    +0.000 A 
ATOM     15  C   UNL     1       4.955   2.118  10.580  0.00  0.00    +0.000 A 
ATOM     16  C   UNL     1       4.183   3.104  11.192  0.00  0.00    +0.000 A 
ATOM     17  C   UNL     1       4.670   3.790  12.312  0.00  0.00    +0.000 A 
ENDBRANCH  10  12
ENDBRANCH   4   7
BRANCH   1  18
ATOM     18  O   UNL     1       2.735   6.690  19.236  0.00  0.00    +0.000 OA
BRANCH  18  22
ATOM     19  C   UNL     1       0.294  10.101  19.496  0.00  0.00    +0.000 A 
ATOM     20  C   UNL     1       0.645   9.355  20.628  0.00  0.00    +0.000 A 
ATOM     21  C   UNL     1       1.472   8.227  20.510  0.00  0.00    +0.000 A 
ATOM     22  C   UNL     1       1.947   7.820  19.260  0.00  0.00    +0.000 A 
ATOM     23  C   UNL     1       1.640   8.585  18.137  0.00  0.00    +0.000 A 
ATOM     24  C   UNL     1       0.819   9.712  18.254  0.00  0.00    +0.000 A 
BRANCH  19  25
ATOM     25  C   UNL     1      -0.673  11.269  19.571  0.00  0.00    +0.000 C 
BRANCH  25  30
ATOM     26  C   UNL     1      -0.765  15.880  21.227  0.00  0.00    +0.000 C 
ATOM     27  C   UNL     1      -1.034  14.733  20.263  0.00  0.00    +0.000 C 
ATOM     28  C   UNL     1      -0.287  14.846  18.946  0.00  0.00    +0.000 C 
ATOM     29  C   UNL     1      -0.296  13.408  18.449  0.00  0.00    +0.000 C 
ATOM     30  N   UNL     1      -0.048  12.598  19.650  0.00  0.00    +0.000 NA
ATOM     31  C   UNL     1      -0.588  13.364  20.804  0.00  0.00    +0.000 C 
BRANCH  27  32
ATOM     32  O   UNL     1      -2.447  14.694  19.998  0.00  0.00    +0.000 OA
ATOM     33  H   UNL     1      -2.581  14.945  19.067  0.00  0.00    +0.000 HD
ENDBRANCH  27  32
ENDBRANCH  25  30
ENDBRANCH  19  25
ENDBRANCH  18  22
ENDBRANCH   1  18
TORSDOF 7
ENDMDL
MODEL 6
REMARK VINA RESULT:      -7.9      2.724      4.244
REMARK  Name = 
REMARK  8 active torsions:
REMARK  status: ('A' for Active; 'I' for Inactive)
REMARK    1  A    between atoms: C_1  and  C_2
REMARK    2  A    between atoms: C_2  and  O_3
REMARK    3  A    between atoms: N_6  and  C_7
REMARK    4  A    between atoms: C_7  and  C_8
REMARK    5  A    between atoms: C_11  and  O_12
REMARK    6  A    between atoms: O_12  and  C_13
REMARK    7  A    between atoms: C_16  and  C_18
REMARK    8  A    between atoms: C_21  and  C_22
REMARK                            x       y       z     vdW  Elec       q    Type
REMARK                         _______ _______ _______ _____ _____    ______ ____
ROOT
ATOM      1  C   UNL     1       1.511   8.164  20.889  0.00  0.00    +0.000 C 
ATOM      2  C   UNL     1       0.582   6.932  21.005  0.00  0.00    +0.000 C 
ATOM      3  N   UNL     1       1.708   6.143  20.535  0.00  0.00    +0.000 N 
ATOM      4  C   UNL     1       1.793   4.784  20.306  0.00  0.00    +0.000 C 
ATOM      5  O   UNL     1       0.858   4.043  20.630  0.00  0.00    +0.000 OA
ATOM      6  C   UNL     1       2.410   7.291  19.982  0.00  0.00    +0.000 C 
ENDROOT
BRANCH   4   7
ATOM      7  C   UNL     1       3.025   4.293  19.710  0.00  0.00    +0.000 A 
ATOM      8  N   UNL     1       3.820   3.361  20.193  0.00  0.00    +0.000 NA
ATOM      9  N   UNL     1       4.838   3.195  19.283  0.00  0.00    +0.000 NA
ATOM     10  C   UNL     1       4.608   4.042  18.298  0.00  0.00    +0.000 A 
ATOM     11  O   UNL     1       3.463   4.776  18.493  0.00  0.00    +0.000 OA
BRANCH  10  12
ATOM     12  C   UNL     1       5.408   4.297  17.105  0.00  0.00    +0.000 A 
ATOM     13  C   UNL     1       4.820   4.117  15.841  0.00  0.00    +0.000 A 
ATOM     14  C   UNL     1       5.555   4.302  14.668  0.00  0.00    +0.000 A 
ATOM     15  C   UNL     1       6.894   4.675  14.743  0.00  0.00    +0.000 A 
ATOM     16  C   UNL     1       7.491   4.872  15.987  0.00  0.00    +0.000 A 
ATOM     17  C   UNL     1       6.753   4.689  17.163  0.00  0.00    +0.000 A 
ENDBRANCH  10  12
ENDBRANCH   4   7
BRANCH   1  18
ATOM     18  O   UNL     1       0.937   9.360  20.301  0.00  0.00    +0.000 OA
BRANCH  18  22
ATOM     19  C   UNL     1      -1.731  11.769  22.478  0.00  0.00    +0.000 A 
ATOM     20  C   UNL     1      -1.540  11.936  21.101  0.00  0.00    +0.000 A 
ATOM     21  C   UNL     1      -0.650  11.108  20.399  0.00  0.00    +0.000 A 
ATOM     22  C   UNL     1       0.071  10.112  21.064  0.00  0.00    +0.000 A 
ATOM     23  C   UNL     1      -0.151   9.910  22.425  0.00  0.00    +0.000 A 
ATOM     24  C   UNL     1      -1.041  10.733  23.124  0.00  0.00    +0.000 A 
BRANCH  19  25
ATOM     25  C   UNL     1      -2.612  12.705  23.286  0.00  0.00    +0.000 C 
BRANCH  25  30
ATOM     26  C   UNL     1      -7.195  14.348  22.732  0.00  0.00    +0.000 C 
ATOM     27  C   UNL     1      -5.931  13.950  23.482  0.00  0.00    +0.000 C 
ATOM     28  C   UNL     1      -6.099  12.730  24.370  0.00  0.00    +0.000 C 
ATOM     29  C   UNL     1      -4.662  12.259  24.540  0.00  0.00    +0.000 C 
ATOM     30  N   UNL     1      -4.054  12.430  23.213  0.00  0.00    +0.000 NA
ATOM     31  C   UNL     1      -4.770  13.554  22.554  0.00  0.00    +0.000 C 
BRANCH  27  32
ATOM     32  O   UNL     1      -5.522  15.066  24.293  0.00  0.00    +0.000 OA
ATOM     33  H   UNL     1      -4.707  15.429  23.906  0.00  0.00    +0.000 HD
ENDBRANCH  27  32
ENDBRANCH  25  30
ENDBRANCH  19  25
ENDBRANCH  18  22
ENDBRANCH   1  18
TORSDOF 7
ENDMDL
MODEL 7
REMARK VINA RESULT:      -7.9      1.712      2.503
REMARK  Name = 
REMARK  8 active torsions:
REMARK  status: ('A' for Active; 'I' for Inactive)
REMARK    1  A    between atoms: C_1  and  C_2
REMARK    2  A    between atoms: C_2  and  O_3
REMARK    3  A    between atoms: N_6  and  C_7
REMARK    4  A    between atoms: C_7  and  C_8
REMARK    5  A    between atoms: C_11  and  O_12
REMARK    6  A    between atoms: O_12  and  C_13
REMARK    7  A    between atoms: C_16  and  C_18
REMARK    8  A    between atoms: C_21  and  C_22
REMARK                            x       y       z     vdW  Elec       q    Type
REMARK                         _______ _______ _______ _____ _____    ______ ____
ROOT
ATOM      1  C   UNL     1       2.582   8.522  18.276  0.00  0.00    +0.000 C 
ATOM      2  C   UNL     1       2.239   7.225  19.047  0.00  0.00    +0.000 C 
ATOM      3  N   UNL     1       3.422   6.646  18.433  0.00  0.00    +0.000 N 
ATOM      4  C   UNL     1       3.945   5.375  18.564  0.00  0.00    +0.000 C 
ATOM      5  O   UNL     1       3.467   4.592  19.390  0.00  0.00    +0.000 OA
ATOM      6  C   UNL     1       3.483   7.643  17.376  0.00  0.00    +0.000 C 
ENDROOT
BRANCH   4   7
ATOM      7  C   UNL     1       5.081   5.042  17.718  0.00  0.00    +0.000 A 
ATOM      8  N   UNL     1       6.297   4.730  18.115  0.00  0.00    +0.000 NA
ATOM      9  N   UNL     1       7.027   4.454  16.982  0.00  0.00    +0.000 NA
ATOM     10  C   UNL     1       6.213   4.620  15.957  0.00  0.00    +0.000 A 
ATOM     11  O   UNL     1       4.948   4.990  16.345  0.00  0.00    +0.000 OA
BRANCH  10  12
ATOM     12  C   UNL     1       6.500   4.496  14.532  0.00  0.00    +0.000 A 
ATOM     13  C   UNL     1       5.752   3.585  13.766  0.00  0.00    +0.000 A 
ATOM     14  C   UNL     1       6.019   3.393  12.408  0.00  0.00    +0.000 A 
ATOM     15  C   UNL     1       7.038   4.115  11.795  0.00  0.00    +0.000 A 
ATOM     16  C   UNL     1       7.781   5.033  12.534  0.00  0.00    +0.000 A 
ATOM     17  C   UNL     1       7.512   5.227  13.895  0.00  0.00    +0.000 A 
ENDBRANCH  10  12
ENDBRANCH   4   7
BRANCH   1  18
ATOM     18  O   UNL     1       1.476   9.211  17.636  0.00  0.00    +0.000 OA
BRANCH  18  22
ATOM     19  C   UNL     1      -0.806  11.986  19.815  0.00  0.00    +0.000 A 
ATOM     20  C   UNL     1      -1.381  10.845  19.241  0.00  0.00    +0.000 A 
ATOM     21  C   UNL     1      -0.589   9.930  18.528  0.00  0.00    +0.000 A 
ATOM     22  C   UNL     1       0.782  10.150  18.367  0.00  0.00    +0.000 A 
ATOM     23  C   UNL     1       1.367  11.258  18.975  0.00  0.00    +0.000 A 
ATOM     24  C   UNL     1       0.579  12.168  19.689  0.00  0.00    +0.000 A 
BRANCH  19  25
ATOM     25  C   UNL     1      -1.644  13.044  20.510  0.00  0.00    +0.000 C 
BRANCH  25  30
ATOM     26  C   UNL     1      -5.402  13.902  23.536  0.00  0.00    +0.000 C 
ATOM     27  C   UNL     1      -3.952  13.669  23.135  0.00  0.00    +0.000 C 
ATOM     28  C   UNL     1      -3.369  12.368  23.657  0.00  0.00    +0.000 C 
ATOM     29  C   UNL     1      -2.196  12.142  22.714  0.00  0.00    +0.000 C 
ATOM     30  N   UNL     1      -2.704  12.528  21.390  0.00  0.00    +0.000 NA
ATOM     31  C   UNL     1      -3.748  13.562  21.614  0.00  0.00    +0.000 C 
BRANCH  27  32
ATOM     32  O   UNL     1      -3.168  14.767  23.636  0.00  0.00    +0.000 OA
ATOM     33  H   UNL     1      -2.387  14.393  24.080  0.00  0.00    +0.000 HD
ENDBRANCH  27  32
ENDBRANCH  25  30
ENDBRANCH  19  25
ENDBRANCH  18  22
ENDBRANCH   1  18
TORSDOF 7
ENDMDL
MODEL 8
REMARK VINA RESULT:      -7.8      1.585      2.472
REMARK  Name = 
REMARK  8 active torsions:
REMARK  status: ('A' for Active; 'I' for Inactive)
REMARK    1  A    between atoms: C_1  and  C_2
REMARK    2  A    between atoms: C_2  and  O_3
REMARK    3  A    between atoms: N_6  and  C_7
REMARK    4  A    between atoms: C_7  and  C_8
REMARK    5  A    between atoms: C_11  and  O_12
REMARK    6  A    between atoms: O_12  and  C_13
REMARK    7  A    between atoms: C_16  and  C_18
REMARK    8  A    between atoms: C_21  and  C_22
REMARK                            x       y       z     vdW  Elec       q    Type
REMARK                         _______ _______ _______ _____ _____    ______ ____
ROOT
ATOM      1  C   UNL     1       2.567   7.658  19.294  0.00  0.00    +0.000 C 
ATOM      2  C   UNL     1       2.274   6.190  19.682  0.00  0.00    +0.000 C 
ATOM      3  N   UNL     1       3.483   5.844  18.953  0.00  0.00    +0.000 N 
ATOM      4  C   UNL     1       4.059   4.606  18.746  0.00  0.00    +0.000 C 
ATOM      5  O   UNL     1       3.609   3.611  19.323  0.00  0.00    +0.000 OA
ATOM      6  C   UNL     1       3.508   7.091  18.205  0.00  0.00    +0.000 C 
ENDROOT
BRANCH   4   7
ATOM      7  C   UNL     1       5.212   4.558  17.860  0.00  0.00    +0.000 A 
ATOM      8  N   UNL     1       6.478   4.494  18.215  0.00  0.00    +0.000 NA
ATOM      9  N   UNL     1       7.213   4.428  17.054  0.00  0.00    +0.000 NA
ATOM     10  C   UNL     1       6.351   4.462  16.057  0.00  0.00    +0.000 A 
ATOM     11  O   UNL     1       5.050   4.538  16.489  0.00  0.00    +0.000 OA
BRANCH  10  12
ATOM     12  C   UNL     1       6.612   4.462  14.621  0.00  0.00    +0.000 A 
ATOM     13  C   UNL     1       5.892   3.579  13.799  0.00  0.00    +0.000 A 
ATOM     14  C   UNL     1       6.137   3.505  12.426  0.00  0.00    +0.000 A 
ATOM     15  C   UNL     1       7.108   4.322  11.853  0.00  0.00    +0.000 A 
ATOM     16  C   UNL     1       7.823   5.215  12.648  0.00  0.00    +0.000 A 
ATOM     17  C   UNL     1       7.575   5.290  14.025  0.00  0.00    +0.000 A 
ENDBRANCH  10  12
ENDBRANCH   4   7
BRANCH   1  18
ATOM     18  O   UNL     1       1.436   8.451  18.845  0.00  0.00    +0.000 OA
BRANCH  18  22
ATOM     19  C   UNL     1      -0.438  10.790  21.791  0.00  0.00    +0.000 A 
ATOM     20  C   UNL     1       0.515   9.817  22.116  0.00  0.00    +0.000 A 
ATOM     21  C   UNL     1       1.133   9.060  21.108  0.00  0.00    +0.000 A 
ATOM     22  C   UNL     1       0.796   9.254  19.765  0.00  0.00    +0.000 A 
ATOM     23  C   UNL     1      -0.117  10.252  19.432  0.00  0.00    +0.000 A 
ATOM     24  C   UNL     1      -0.729  11.010  20.436  0.00  0.00    +0.000 A 
BRANCH  19  25
ATOM     25  C   UNL     1      -1.195  11.562  22.858  0.00  0.00    +0.000 C 
BRANCH  25  30
ATOM     26  C   UNL     1      -2.384  16.274  23.482  0.00  0.00    +0.000 C 
ATOM     27  C   UNL     1      -2.532  14.764  23.608  0.00  0.00    +0.000 C 
ATOM     28  C   UNL     1      -3.724  14.196  22.858  0.00  0.00    +0.000 C 
ATOM     29  C   UNL     1      -3.334  12.733  22.701  0.00  0.00    +0.000 C 
ATOM     30  N   UNL     1      -1.899  12.762  22.384  0.00  0.00    +0.000 NA
ATOM     31  C   UNL     1      -1.343  13.983  23.023  0.00  0.00    +0.000 C 
BRANCH  27  32
ATOM     32  O   UNL     1      -2.661  14.442  25.004  0.00  0.00    +0.000 OA
ATOM     33  H   UNL     1      -1.808  14.634  25.432  0.00  0.00    +0.000 HD
ENDBRANCH  27  32
ENDBRANCH  25  30
ENDBRANCH  19  25
ENDBRANCH  18  22
ENDBRANCH   1  18
TORSDOF 7
ENDMDL
MODEL 9
REMARK VINA RESULT:      -7.7      1.541      2.058
REMARK  Name = 
REMARK  8 active torsions:
REMARK  status: ('A' for Active; 'I' for Inactive)
REMARK    1  A    between atoms: C_1  and  C_2
REMARK    2  A    between atoms: C_2  and  O_3
REMARK    3  A    between atoms: N_6  and  C_7
REMARK    4  A    between atoms: C_7  and  C_8
REMARK    5  A    between atoms: C_11  and  O_12
REMARK    6  A    between atoms: O_12  and  C_13
REMARK    7  A    between atoms: C_16  and  C_18
REMARK    8  A    between atoms: C_21  and  C_22
REMARK                            x       y       z     vdW  Elec       q    Type
REMARK                         _______ _______ _______ _____ _____    ______ ____
ROOT
ATOM      1  C   UNL     1       2.883   6.588  19.920  0.00  0.00    +0.000 C 
ATOM      2  C   UNL     1       3.010   5.093  20.297  0.00  0.00    +0.000 C 
ATOM      3  N   UNL     1       4.149   5.049  19.395  0.00  0.00    +0.000 N 
ATOM      4  C   UNL     1       4.969   3.987  19.068  0.00  0.00    +0.000 C 
ATOM      5  O   UNL     1       4.859   2.914  19.669  0.00  0.00    +0.000 OA
ATOM      6  C   UNL     1       3.766   6.264  18.692  0.00  0.00    +0.000 C 
ENDROOT
BRANCH   4   7
ATOM      7  C   UNL     1       5.959   4.218  18.028  0.00  0.00    +0.000 A 
ATOM      8  N   UNL     1       7.237   4.487  18.199  0.00  0.00    +0.000 NA
ATOM      9  N   UNL     1       7.793   4.588  16.945  0.00  0.00    +0.000 NA
ATOM     10  C   UNL     1       6.820   4.381  16.081  0.00  0.00    +0.000 A 
ATOM     11  O   UNL     1       5.616   4.130  16.694  0.00  0.00    +0.000 OA
BRANCH  10  12
ATOM     12  C   UNL     1       6.868   4.420  14.623  0.00  0.00    +0.000 A 
ATOM     13  C   UNL     1       6.032   3.558  13.892  0.00  0.00    +0.000 A 
ATOM     14  C   UNL     1       6.073   3.521  12.496  0.00  0.00    +0.000 A 
ATOM     15  C   UNL     1       6.951   4.354  11.809  0.00  0.00    +0.000 A 
ATOM     16  C   UNL     1       7.777   5.227  12.514  0.00  0.00    +0.000 A 
ATOM     17  C   UNL     1       7.734   5.264  13.914  0.00  0.00    +0.000 A 
ENDBRANCH  10  12
ENDBRANCH   4   7
BRANCH   1  18
ATOM     18  O   UNL     1       1.542   7.083  19.662  0.00  0.00    +0.000 OA
BRANCH  18  22
ATOM     19  C   UNL     1       0.699  11.106  20.532  0.00  0.00    +0.000 A 
ATOM     20  C   UNL     1       0.987  10.677  19.231  0.00  0.00    +0.000 A 
ATOM     21  C   UNL     1       1.253   9.323  18.970  0.00  0.00    +0.000 A 
ATOM     22  C   UNL     1       1.250   8.385  20.006  0.00  0.00    +0.000 A 
ATOM     23  C   UNL     1       0.918   8.798  21.294  0.00  0.00    +0.000 A 
ATOM     24  C   UNL     1       0.648  10.147  21.554  0.00  0.00    +0.000 A 
BRANCH  19  25
ATOM     25  C   UNL     1       0.499  12.574  20.868  0.00  0.00    +0.000 C 
BRANCH  25  30
ATOM     26  C   UNL     1      -3.272  15.617  21.599  0.00  0.00    +0.000 C 
ATOM     27  C   UNL     1      -2.500  14.305  21.651  0.00  0.00    +0.000 C 
ATOM     28  C   UNL     1      -3.097  13.203  20.794  0.00  0.00    +0.000 C 
ATOM     29  C   UNL     1      -1.911  12.268  20.605  0.00  0.00    +0.000 C 
ATOM     30  N   UNL     1      -0.763  13.161  20.394  0.00  0.00    +0.000 NA
ATOM     31  C   UNL     1      -1.060  14.422  21.122  0.00  0.00    +0.000 C 
BRANCH  27  32
ATOM     32  O   UNL     1      -2.461  13.864  23.020  0.00  0.00    +0.000 OA
ATOM     33  H   UNL     1      -1.750  14.354  23.468  0.00  0.00    +0.000 HD
ENDBRANCH  27  32
ENDBRANCH  25  30
ENDBRANCH  19  25
ENDBRANCH  18  22
ENDBRANCH   1  18
TORSDOF 7
ENDMDL
