MODEL 1
REMARK VINA RESULT:      -8.0      0.000      0.000
REMARK  Name = 
REMARK  10 active torsions:
REMARK  status: ('A' for Active; 'I' for Inactive)
REMARK    1  A    between atoms: C_1  and  O_2
REMARK    2  A    between atoms: O_2  and  C_3
REMARK    3  A    between atoms: C_5  and  O_6
REMARK    4  A    between atoms: O_6  and  C_7
REMARK    5  A    between atoms: C_9  and  C_10
REMARK    6  A    between atoms: C_15  and  O_16
REMARK    7  A    between atoms: O_16  and  C_17
REMARK    8  A    between atoms: C_19  and  O_20
REMARK    9  A    between atoms: O_20  and  C_21
REMARK   10  A    between atoms: C_23  and  C_24
REMARK                            x       y       z     vdW  Elec       q    Type
REMARK                         _______ _______ _______ _____ _____    ______ ____
ROOT
ATOM      1  C   UNL     1       2.751   7.393  18.750  0.00  0.00    +0.000 C 
ATOM      2  C   UNL     1       3.272   7.722  17.345  0.00  0.00    +0.000 C 
ATOM      3  O   UNL     1       3.056   8.682  16.632  0.00  0.00    +0.000 OA
ATOM      4  C   UNL     1       4.181   6.564  17.005  0.00  0.00    +0.000 A 
ATOM      5  C   UNL     1       5.363   6.531  16.276  0.00  0.00    +0.000 A 
ATOM      6  C   UNL     1       6.311   5.585  16.679  0.00  0.00    +0.000 A 
ATOM      7  C   UNL     1       6.088   4.793  17.817  0.00  0.00    +0.000 A 
ATOM      8  C   UNL     1       4.860   4.781  18.469  0.00  0.00    +0.000 A 
ATOM      9  C   UNL     1       3.851   5.581  17.955  0.00  0.00    +0.000 A 
ATOM     10  C   UNL     1       2.447   5.910  18.456  0.00  0.00    +0.000 C 
ENDROOT
BRANCH   1  15
ATOM     11  C   UNL     1       0.112   9.941  19.562  0.00  0.00    +0.000 A 
ATOM     12  C   UNL     1      -0.024   9.846  20.935  0.00  0.00    +0.000 A 
ATOM     13  C   UNL     1       0.720   8.909  21.669  0.00  0.00    +0.000 A 
ATOM     14  C   UNL     1       1.649   8.063  21.030  0.00  0.00    +0.000 A 
ATOM     15  C   UNL     1       1.825   8.166  19.648  0.00  0.00    +0.000 A 
ATOM     16  C   UNL     1       1.032   9.113  18.940  0.00  0.00    +0.000 A 
BRANCH  11  18
ATOM     17  C   UNL     1      -1.694  10.377  18.099  0.00  0.00    +0.000 C 
ATOM     18  O   UNL     1      -0.654  10.880  18.933  0.00  0.00    +0.000 OA
ENDBRANCH  11  18
BRANCH  13  19
ATOM     19  O   UNL     1       0.419   8.949  23.004  0.00  0.00    +0.000 OA
ATOM     20  C   UNL     1      -0.553   9.885  23.433  0.00  0.00    +0.000 C 
ENDBRANCH  13  19
ENDBRANCH   1  15
BRANCH  10  21
ATOM     21  C   UNL     1       1.722   4.850  19.243  0.00  0.00    +0.000 A 
ATOM     22  C   UNL     1       1.694   4.781  20.623  0.00  0.00    +0.000 A 
ATOM     23  C   UNL     1       1.353   3.586  21.270  0.00  0.00    +0.000 A 
ATOM     24  C   UNL     1       0.941   2.474  20.532  0.00  0.00    +0.000 A 
ATOM     25  C   UNL     1       0.828   2.568  19.152  0.00  0.00    +0.000 A 
ATOM     26  C   UNL     1       1.210   3.744  18.515  0.00  0.00    +0.000 A 
ENDBRANCH  10  21
BRANCH   6  27
ATOM     27  O   UNL     1       7.542   5.338  16.141  0.00  0.00    +0.000 OA
ATOM     28  C   UNL     1       7.610   4.878  14.807  0.00  0.00    +0.000 C 
ENDBRANCH   6  27
BRANCH   8  29
ATOM     29  O   UNL     1       4.650   4.149  19.653  0.00  0.00    +0.000 OA
ATOM     30  C   UNL     1       4.605   2.728  19.663  0.00  0.00    +0.000 C 
ENDBRANCH   8  29
TORSDOF 6
ENDMDL
MODEL 2
REMARK VINA RESULT:      -6.5      3.356      9.590
REMARK  Name = 
REMARK  10 active torsions:
REMARK  status: ('A' for Active; 'I' for Inactive)
REMARK    1  A    between atoms: C_1  and  O_2
REMARK    2  A    between atoms: O_2  and  C_3
REMARK    3  A    between atoms: C_5  and  O_6
REMARK    4  A    between atoms: O_6  and  C_7
REMARK    5  A    between atoms: C_9  and  C_10
REMARK    6  A    between atoms: C_15  and  O_16
REMARK    7  A    between atoms: O_16  and  C_17
REMARK    8  A    between atoms: C_19  and  O_20
REMARK    9  A    between atoms: O_20  and  C_21
REMARK   10  A    between atoms: C_23  and  C_24
REMARK                            x       y       z     vdW  Elec       q    Type
REMARK                         _______ _______ _______ _____ _____    ______ ____
ROOT
ATOM      1  C   UNL     1      -1.516  10.538  18.476  0.00  0.00    +0.000 C 
ATOM      2  C   UNL     1      -2.431  10.447  17.248  0.00  0.00    +0.000 C 
ATOM      3  O   UNL     1      -2.344   9.754  16.254  0.00  0.00    +0.000 OA
ATOM      4  C   UNL     1      -3.545  11.426  17.540  0.00  0.00    +0.000 A 
ATOM      5  C   UNL     1      -4.896  11.373  17.225  0.00  0.00    +0.000 A 
ATOM      6  C   UNL     1      -5.769  11.966  18.143  0.00  0.00    +0.000 A 
ATOM      7  C   UNL     1      -5.281  12.494  19.349  0.00  0.00    +0.000 A 
ATOM      8  C   UNL     1      -3.919  12.617  19.595  0.00  0.00    +0.000 A 
ATOM      9  C   UNL     1      -3.046  12.202  18.601  0.00  0.00    +0.000 A 
ATOM     10  C   UNL     1      -1.525  12.078  18.558  0.00  0.00    +0.000 C 
ENDROOT
BRANCH   1  15
ATOM     11  C   UNL     1       0.974   8.844  20.722  0.00  0.00    +0.000 A 
ATOM     12  C   UNL     1       1.977   8.445  19.858  0.00  0.00    +0.000 A 
ATOM     13  C   UNL     1       1.872   8.678  18.477  0.00  0.00    +0.000 A 
ATOM     14  C   UNL     1       0.758   9.354  17.940  0.00  0.00    +0.000 A 
ATOM     15  C   UNL     1      -0.250   9.794  18.801  0.00  0.00    +0.000 A 
ATOM     16  C   UNL     1      -0.115   9.515  20.190  0.00  0.00    +0.000 A 
BRANCH  11  18
ATOM     17  C   UNL     1       0.406   9.367  22.957  0.00  0.00    +0.000 C 
ATOM     18  O   UNL     1       1.161   8.573  22.047  0.00  0.00    +0.000 OA
ENDBRANCH  11  18
BRANCH  13  19
ATOM     19  O   UNL     1       2.948   8.179  17.792  0.00  0.00    +0.000 OA
ATOM     20  C   UNL     1       3.417   6.892  18.146  0.00  0.00    +0.000 C 
ENDBRANCH  13  19
ENDBRANCH   1  15
BRANCH  10  21
ATOM     21  C   UNL     1      -0.722  13.052  19.380  0.00  0.00    +0.000 A 
ATOM     22  C   UNL     1      -0.303  12.822  20.677  0.00  0.00    +0.000 A 
ATOM     23  C   UNL     1       0.080  13.889  21.501  0.00  0.00    +0.000 A 
ATOM     24  C   UNL     1       0.136  15.189  20.995  0.00  0.00    +0.000 A 
ATOM     25  C   UNL     1      -0.148  15.420  19.657  0.00  0.00    +0.000 A 
ATOM     26  C   UNL     1      -0.567  14.362  18.857  0.00  0.00    +0.000 A 
ENDBRANCH  10  21
BRANCH   6  27
ATOM     27  O   UNL     1      -7.130  12.060  18.078  0.00  0.00    +0.000 OA
ATOM     28  C   UNL     1      -7.747  13.216  18.606  0.00  0.00    +0.000 C 
ENDBRANCH   6  27
BRANCH   8  29
ATOM     29  O   UNL     1      -3.407  12.981  20.801  0.00  0.00    +0.000 OA
ATOM     30  C   UNL     1      -4.144  12.659  21.973  0.00  0.00    +0.000 C 
ENDBRANCH   8  29
TORSDOF 6
ENDMDL
MODEL 3
REMARK VINA RESULT:      -6.5      3.397      9.684
REMARK  Name = 
REMARK  10 active torsions:
REMARK  status: ('A' for Active; 'I' for Inactive)
REMARK    1  A    between atoms: C_1  and  O_2
REMARK    2  A    between atoms: O_2  and  C_3
REMARK    3  A    between atoms: C_5  and  O_6
REMARK    4  A    between atoms: O_6  and  C_7
REMARK    5  A    between atoms: C_9  and  C_10
REMARK    6  A    between atoms: C_15  and  O_16
REMARK    7  A    between atoms: O_16  and  C_17
REMARK    8  A    between atoms: C_19  and  O_20
REMARK    9  A    between atoms: O_20  and  C_21
REMARK   10  A    between atoms: C_23  and  C_24
REMARK                            x       y       z     vdW  Elec       q    Type
REMARK                         _______ _______ _______ _____ _____    ______ ____
ROOT
ATOM      1  C   UNL     1      -1.717  10.646  18.783  0.00  0.00    +0.000 C 
ATOM      2  C   UNL     1      -2.877  10.495  17.790  0.00  0.00    +0.000 C 
ATOM      3  O   UNL     1      -3.003   9.752  16.837  0.00  0.00    +0.000 OA
ATOM      4  C   UNL     1      -3.908  11.491  18.268  0.00  0.00    +0.000 A 
ATOM      5  C   UNL     1      -5.296  11.426  18.258  0.00  0.00    +0.000 A 
ATOM      6  C   UNL     1      -5.952  12.068  19.313  0.00  0.00    +0.000 A 
ATOM      7  C   UNL     1      -5.217  12.655  20.357  0.00  0.00    +0.000 A 
ATOM      8  C   UNL     1      -3.835  12.787  20.293  0.00  0.00    +0.000 A 
ATOM      9  C   UNL     1      -3.197  12.319  19.154  0.00  0.00    +0.000 A 
ATOM     10  C   UNL     1      -1.721  12.188  18.787  0.00  0.00    +0.000 C 
ENDROOT
BRANCH   1  15
ATOM     11  C   UNL     1       1.089   8.832  20.499  0.00  0.00    +0.000 A 
ATOM     12  C   UNL     1       1.972   8.547  19.473  0.00  0.00    +0.000 A 
ATOM     13  C   UNL     1       1.674   8.903  18.148  0.00  0.00    +0.000 A 
ATOM     14  C   UNL     1       0.484   9.591  17.834  0.00  0.00    +0.000 A 
ATOM     15  C   UNL     1      -0.405   9.916  18.861  0.00  0.00    +0.000 A 
ATOM     16  C   UNL     1      -0.074   9.514  20.186  0.00  0.00    +0.000 A 
BRANCH  11  18
ATOM     17  C   UNL     1       0.937   9.223  22.826  0.00  0.00    +0.000 C 
ATOM     18  O   UNL     1       1.462   8.445  21.754  0.00  0.00    +0.000 OA
ENDBRANCH  11  18
BRANCH  13  19
ATOM     19  O   UNL     1       2.655   8.505  17.278  0.00  0.00    +0.000 OA
ATOM     20  C   UNL     1       3.468   7.411  17.657  0.00  0.00    +0.000 C 
ENDBRANCH  13  19
ENDBRANCH   1  15
BRANCH  10  21
ATOM     21  C   UNL     1      -0.766  13.201  19.365  0.00  0.00    +0.000 A 
ATOM     22  C   UNL     1      -0.354  14.348  18.714  0.00  0.00    +0.000 A 
ATOM     23  C   UNL     1       0.806  15.021  19.122  0.00  0.00    +0.000 A 
ATOM     24  C   UNL     1       1.508  14.599  20.253  0.00  0.00    +0.000 A 
ATOM     25  C   UNL     1       1.030  13.533  21.001  0.00  0.00    +0.000 A 
ATOM     26  C   UNL     1      -0.097  12.844  20.564  0.00  0.00    +0.000 A 
ENDBRANCH  10  21
BRANCH   6  27
ATOM     27  O   UNL     1      -7.295  12.163  19.542  0.00  0.00    +0.000 OA
ATOM     28  C   UNL     1      -7.780  11.834  20.828  0.00  0.00    +0.000 C 
ENDBRANCH   6  27
BRANCH   8  29
ATOM     29  O   UNL     1      -3.076  13.210  21.338  0.00  0.00    +0.000 OA
ATOM     30  C   UNL     1      -3.238  12.566  22.595  0.00  0.00    +0.000 C 
ENDBRANCH   8  29
TORSDOF 6
ENDMDL
MODEL 4
REMARK VINA RESULT:      -6.5      4.301      8.722
REMARK  Name = 
REMARK  10 active torsions:
REMARK  status: ('A' for Active; 'I' for Inactive)
REMARK    1  A    between atoms: C_1  and  O_2
REMARK    2  A    between atoms: O_2  and  C_3
REMARK    3  A    between atoms: C_5  and  O_6
REMARK    4  A    between atoms: O_6  and  C_7
REMARK    5  A    between atoms: C_9  and  C_10
REMARK    6  A    between atoms: C_15  and  O_16
REMARK    7  A    between atoms: O_16  and  C_17
REMARK    8  A    between atoms: C_19  and  O_20
REMARK    9  A    between atoms: O_20  and  C_21
REMARK   10  A    between atoms: C_23  and  C_24
REMARK                            x       y       z     vdW  Elec       q    Type
REMARK                         _______ _______ _______ _____ _____    ______ ____
ROOT
ATOM      1  C   UNL     1      -1.370  11.893  22.034  0.00  0.00    +0.000 C 
ATOM      2  C   UNL     1      -0.542  10.726  22.588  0.00  0.00    +0.000 C 
ATOM      3  O   UNL     1      -0.642  10.122  23.637  0.00  0.00    +0.000 OA
ATOM      4  C   UNL     1       0.468  10.437  21.501  0.00  0.00    +0.000 A 
ATOM      5  C   UNL     1       1.020   9.233  21.083  0.00  0.00    +0.000 A 
ATOM      6  C   UNL     1       1.332   9.137  19.723  0.00  0.00    +0.000 A 
ATOM      7  C   UNL     1       1.007  10.182  18.842  0.00  0.00    +0.000 A 
ATOM      8  C   UNL     1       0.542  11.408  19.302  0.00  0.00    +0.000 A 
ATOM      9  C   UNL     1       0.412  11.572  20.673  0.00  0.00    +0.000 A 
ATOM     10  C   UNL     1      -0.163  12.704  21.520  0.00  0.00    +0.000 C 
ENDROOT
BRANCH   1  15
ATOM     11  C   UNL     1      -3.107  14.149  24.484  0.00  0.00    +0.000 A 
ATOM     12  C   UNL     1      -4.427  14.124  24.074  0.00  0.00    +0.000 A 
ATOM     13  C   UNL     1      -4.815  13.392  22.941  0.00  0.00    +0.000 A 
ATOM     14  C   UNL     1      -3.875  12.635  22.212  0.00  0.00    +0.000 A 
ATOM     15  C   UNL     1      -2.543  12.622  22.630  0.00  0.00    +0.000 A 
ATOM     16  C   UNL     1      -2.189  13.398  23.769  0.00  0.00    +0.000 A 
BRANCH  11  18
ATOM     17  C   UNL     1      -1.585  15.594  25.574  0.00  0.00    +0.000 C 
ATOM     18  O   UNL     1      -2.824  14.890  25.595  0.00  0.00    +0.000 OA
ENDBRANCH  11  18
BRANCH  13  19
ATOM     19  O   UNL     1      -6.154  13.522  22.681  0.00  0.00    +0.000 OA
ATOM     20  C   UNL     1      -7.061  12.893  23.566  0.00  0.00    +0.000 C 
ENDBRANCH  13  19
ENDBRANCH   1  15
BRANCH  10  21
ATOM     21  C   UNL     1      -0.041  14.107  20.984  0.00  0.00    +0.000 A 
ATOM     22  C   UNL     1      -1.088  14.835  20.452  0.00  0.00    +0.000 A 
ATOM     23  C   UNL     1      -0.841  15.942  19.629  0.00  0.00    +0.000 A 
ATOM     24  C   UNL     1       0.466  16.385  19.413  0.00  0.00    +0.000 A 
ATOM     25  C   UNL     1       1.522  15.751  20.052  0.00  0.00    +0.000 A 
ATOM     26  C   UNL     1       1.270  14.627  20.832  0.00  0.00    +0.000 A 
ENDBRANCH  10  21
BRANCH   6  27
ATOM     27  O   UNL     1       1.883   8.081  19.053  0.00  0.00    +0.000 OA
ATOM     28  C   UNL     1       2.444   8.316  17.778  0.00  0.00    +0.000 C 
ENDBRANCH   6  27
BRANCH   8  29
ATOM     29  O   UNL     1       0.077  12.386  18.483  0.00  0.00    +0.000 OA
ATOM     30  C   UNL     1      -1.238  12.260  17.957  0.00  0.00    +0.000 C 
ENDBRANCH   8  29
TORSDOF 6
ENDMDL
MODEL 5
REMARK VINA RESULT:      -6.4      0.959      2.188
REMARK  Name = 
REMARK  10 active torsions:
REMARK  status: ('A' for Active; 'I' for Inactive)
REMARK    1  A    between atoms: C_1  and  O_2
REMARK    2  A    between atoms: O_2  and  C_3
REMARK    3  A    between atoms: C_5  and  O_6
REMARK    4  A    between atoms: O_6  and  C_7
REMARK    5  A    between atoms: C_9  and  C_10
REMARK    6  A    between atoms: C_15  and  O_16
REMARK    7  A    between atoms: O_16  and  C_17
REMARK    8  A    between atoms: C_19  and  O_20
REMARK    9  A    between atoms: O_20  and  C_21
REMARK   10  A    between atoms: C_23  and  C_24
REMARK                            x       y       z     vdW  Elec       q    Type
REMARK                         _______ _______ _______ _____ _____    ______ ____
ROOT
ATOM      1  C   UNL     1       3.077   7.093  18.186  0.00  0.00    +0.000 C 
ATOM      2  C   UNL     1       3.924   7.186  16.911  0.00  0.00    +0.000 C 
ATOM      3  O   UNL     1       3.956   8.044  16.050  0.00  0.00    +0.000 OA
ATOM      4  C   UNL     1       4.784   5.944  16.943  0.00  0.00    +0.000 A 
ATOM      5  C   UNL     1       6.091   5.742  16.519  0.00  0.00    +0.000 A 
ATOM      6  C   UNL     1       6.841   4.815  17.249  0.00  0.00    +0.000 A 
ATOM      7  C   UNL     1       6.303   4.210  18.397  0.00  0.00    +0.000 A 
ATOM      8  C   UNL     1       4.965   4.359  18.742  0.00  0.00    +0.000 A 
ATOM      9  C   UNL     1       4.168   5.129  17.908  0.00  0.00    +0.000 A 
ATOM     10  C   UNL     1       2.721   5.601  18.023  0.00  0.00    +0.000 C 
ENDROOT
BRANCH   1  15
ATOM     11  C   UNL     1       1.054   8.753  20.881  0.00  0.00    +0.000 A 
ATOM     12  C   UNL     1       0.222   9.611  20.185  0.00  0.00    +0.000 A 
ATOM     13  C   UNL     1       0.307   9.721  18.788  0.00  0.00    +0.000 A 
ATOM     14  C   UNL     1       1.218   8.934  18.055  0.00  0.00    +0.000 A 
ATOM     15  C   UNL     1       2.044   8.037  18.737  0.00  0.00    +0.000 A 
ATOM     16  C   UNL     1       1.942   7.977  20.155  0.00  0.00    +0.000 A 
BRANCH  11  18
ATOM     17  C   UNL     1      -0.165   9.500  22.765  0.00  0.00    +0.000 C 
ATOM     18  O   UNL     1       0.901   8.716  22.237  0.00  0.00    +0.000 OA
ENDBRANCH  11  18
BRANCH  13  19
ATOM     19  O   UNL     1      -0.575  10.645  18.293  0.00  0.00    +0.000 OA
ATOM     20  C   UNL     1      -1.328  11.401  19.221  0.00  0.00    +0.000 C 
ENDBRANCH  13  19
ENDBRANCH   1  15
BRANCH  10  21
ATOM     21  C   UNL     1       1.751   4.707  18.750  0.00  0.00    +0.000 A 
ATOM     22  C   UNL     1       1.425   4.830  20.087  0.00  0.00    +0.000 A 
ATOM     23  C   UNL     1       0.846   3.759  20.781  0.00  0.00    +0.000 A 
ATOM     24  C   UNL     1       0.498   2.585  20.108  0.00  0.00    +0.000 A 
ATOM     25  C   UNL     1       0.690   2.496  18.736  0.00  0.00    +0.000 A 
ATOM     26  C   UNL     1       1.305   3.548  18.064  0.00  0.00    +0.000 A 
ENDBRANCH  10  21
BRANCH   6  27
ATOM     27  O   UNL     1       8.135   4.426  17.048  0.00  0.00    +0.000 OA
ATOM     28  C   UNL     1       8.940   4.167  18.180  0.00  0.00    +0.000 C 
ENDBRANCH   6  27
BRANCH   8  29
ATOM     29  O   UNL     1       4.443   3.917  19.916  0.00  0.00    +0.000 OA
ATOM     30  C   UNL     1       4.340   2.514  20.125  0.00  0.00    +0.000 C 
ENDBRANCH   8  29
TORSDOF 6
ENDMDL
MODEL 6
REMARK VINA RESULT:      -6.4      4.224      8.441
REMARK  Name = 
REMARK  10 active torsions:
REMARK  status: ('A' for Active; 'I' for Inactive)
REMARK    1  A    between atoms: C_1  and  O_2
REMARK    2  A    between atoms: O_2  and  C_3
REMARK    3  A    between atoms: C_5  and  O_6
REMARK    4  A    between atoms: O_6  and  C_7
REMARK    5  A    between atoms: C_9  and  C_10
REMARK    6  A    between atoms: C_15  and  O_16
REMARK    7  A    between atoms: O_16  and  C_17
REMARK    8  A    between atoms: C_19  and  O_20
REMARK    9  A    between atoms: O_20  and  C_21
REMARK   10  A    between atoms: C_23  and  C_24
REMARK                            x       y       z     vdW  Elec       q    Type
REMARK                         _______ _______ _______ _____ _____    ______ ____
ROOT
ATOM      1  C   UNL     1      -0.996  11.906  22.088  0.00  0.00    +0.000 C 
ATOM      2  C   UNL     1      -0.135  10.728  22.561  0.00  0.00    +0.000 C 
ATOM      3  O   UNL     1      -0.119  10.145  23.628  0.00  0.00    +0.000 OA
ATOM      4  C   UNL     1       0.726  10.392  21.366  0.00  0.00    +0.000 A 
ATOM      5  C   UNL     1       1.193   9.166  20.908  0.00  0.00    +0.000 A 
ATOM      6  C   UNL     1       1.333   9.037  19.523  0.00  0.00    +0.000 A 
ATOM      7  C   UNL     1       0.927  10.074  18.666  0.00  0.00    +0.000 A 
ATOM      8  C   UNL     1       0.552  11.320  19.154  0.00  0.00    +0.000 A 
ATOM      9  C   UNL     1       0.596  11.513  20.527  0.00  0.00    +0.000 A 
ATOM     10  C   UNL     1       0.157  12.675  21.413  0.00  0.00    +0.000 C 
ENDROOT
BRANCH   1  15
ATOM     11  C   UNL     1      -4.523  12.910  22.902  0.00  0.00    +0.000 A 
ATOM     12  C   UNL     1      -4.371  13.887  23.869  0.00  0.00    +0.000 A 
ATOM     13  C   UNL     1      -3.097  14.246  24.336  0.00  0.00    +0.000 A 
ATOM     14  C   UNL     1      -1.937  13.642  23.808  0.00  0.00    +0.000 A 
ATOM     15  C   UNL     1      -2.069  12.676  22.808  0.00  0.00    +0.000 A 
ATOM     16  C   UNL     1      -3.381  12.326  22.382  0.00  0.00    +0.000 A 
BRANCH  11  18
ATOM     17  C   UNL     1      -6.596  13.745  22.129  0.00  0.00    +0.000 C 
ATOM     18  O   UNL     1      -5.800  12.627  22.512  0.00  0.00    +0.000 OA
ENDBRANCH  11  18
BRANCH  13  19
ATOM     19  O   UNL     1      -3.161  15.204  25.312  0.00  0.00    +0.000 OA
ATOM     20  C   UNL     1      -1.946  15.785  25.746  0.00  0.00    +0.000 C 
ENDBRANCH  13  19
ENDBRANCH   1  15
BRANCH  10  21
ATOM     21  C   UNL     1       0.246  14.064  20.836  0.00  0.00    +0.000 A 
ATOM     22  C   UNL     1      -0.840  14.806  20.412  0.00  0.00    +0.000 A 
ATOM     23  C   UNL     1      -0.666  15.891  19.542  0.00  0.00    +0.000 A 
ATOM     24  C   UNL     1       0.616  16.299  19.168  0.00  0.00    +0.000 A 
ATOM     25  C   UNL     1       1.725  15.653  19.695  0.00  0.00    +0.000 A 
ATOM     26  C   UNL     1       1.542  14.551  20.524  0.00  0.00    +0.000 A 
ENDBRANCH  10  21
BRANCH   6  27
ATOM     27  O   UNL     1       1.772   7.955  18.813  0.00  0.00    +0.000 OA
ATOM     28  C   UNL     1       2.596   8.181  17.689  0.00  0.00    +0.000 C 
ENDBRANCH   6  27
BRANCH   8  29
ATOM     29  O   UNL     1       0.013  12.295  18.377  0.00  0.00    +0.000 OA
ATOM     30  C   UNL     1      -1.349  12.175  17.987  0.00  0.00    +0.000 C 
ENDBRANCH   8  29
TORSDOF 6
ENDMDL
MODEL 7
REMARK VINA RESULT:      -6.4      4.787      8.986
REMARK  Name = 
REMARK  10 active torsions:
REMARK  status: ('A' for Active; 'I' for Inactive)
REMARK    1  A    between atoms: C_1  and  O_2
REMARK    2  A    between atoms: O_2  and  C_3
REMARK    3  A    between atoms: C_5  and  O_6
REMARK    4  A    between atoms: O_6  and  C_7
REMARK    5  A    between atoms: C_9  and  C_10
REMARK    6  A    between atoms: C_15  and  O_16
REMARK    7  A    between atoms: O_16  and  C_17
REMARK    8  A    between atoms: C_19  and  O_20
REMARK    9  A    between atoms: O_20  and  C_21
REMARK   10  A    between atoms: C_23  and  C_24
REMARK                            x       y       z     vdW  Elec       q    Type
REMARK                         _______ _______ _______ _____ _____    ______ ____
ROOT
ATOM      1  C   UNL     1      -0.465  13.128  19.779  0.00  0.00    +0.000 C 
ATOM      2  C   UNL     1      -1.608  13.601  20.686  0.00  0.00    +0.000 C 
ATOM      3  O   UNL     1      -1.628  14.472  21.534  0.00  0.00    +0.000 OA
ATOM      4  C   UNL     1      -2.784  12.742  20.283  0.00  0.00    +0.000 A 
ATOM      5  C   UNL     1      -4.138  13.043  20.217  0.00  0.00    +0.000 A 
ATOM      6  C   UNL     1      -4.867  12.391  19.217  0.00  0.00    +0.000 A 
ATOM      7  C   UNL     1      -4.218  11.558  18.291  0.00  0.00    +0.000 A 
ATOM      8  C   UNL     1      -2.883  11.202  18.439  0.00  0.00    +0.000 A 
ATOM      9  C   UNL     1      -2.204  11.697  19.542  0.00  0.00    +0.000 A 
ATOM     10  C   UNL     1      -0.739  11.622  19.963  0.00  0.00    +0.000 C 
ENDROOT
BRANCH   1  15
ATOM     11  C   UNL     1       2.950  14.002  21.077  0.00  0.00    +0.000 A 
ATOM     12  C   UNL     1       3.623  14.450  19.955  0.00  0.00    +0.000 A 
ATOM     13  C   UNL     1       3.001  14.453  18.697  0.00  0.00    +0.000 A 
ATOM     14  C   UNL     1       1.664  14.033  18.550  0.00  0.00    +0.000 A 
ATOM     15  C   UNL     1       0.957  13.608  19.677  0.00  0.00    +0.000 A 
ATOM     16  C   UNL     1       1.634  13.597  20.929  0.00  0.00    +0.000 A 
BRANCH  11  18
ATOM     17  C   UNL     1       4.067  15.320  22.693  0.00  0.00    +0.000 C 
ATOM     18  O   UNL     1       3.636  14.033  22.257  0.00  0.00    +0.000 OA
ENDBRANCH  11  18
BRANCH  13  19
ATOM     19  O   UNL     1       3.842  14.899  17.712  0.00  0.00    +0.000 OA
ATOM     20  C   UNL     1       5.235  14.759  17.920  0.00  0.00    +0.000 C 
ENDBRANCH  13  19
ENDBRANCH   1  15
BRANCH  10  21
ATOM     21  C   UNL     1       0.040  10.395  19.563  0.00  0.00    +0.000 A 
ATOM     22  C   UNL     1       0.344   9.349  20.413  0.00  0.00    +0.000 A 
ATOM     23  C   UNL     1       1.379   8.457  20.103  0.00  0.00    +0.000 A 
ATOM     24  C   UNL     1       2.054   8.553  18.884  0.00  0.00    +0.000 A 
ATOM     25  C   UNL     1       1.669   9.511  17.958  0.00  0.00    +0.000 A 
ATOM     26  C   UNL     1       0.669  10.419  18.291  0.00  0.00    +0.000 A 
ENDBRANCH  10  21
BRANCH   6  27
ATOM     27  O   UNL     1      -6.199  12.498  18.935  0.00  0.00    +0.000 OA
ATOM     28  C   UNL     1      -6.675  11.935  17.730  0.00  0.00    +0.000 C 
ENDBRANCH   6  27
BRANCH   8  29
ATOM     29  O   UNL     1      -2.181  10.525  17.493  0.00  0.00    +0.000 OA
ATOM     30  C   UNL     1      -2.623  10.593  16.144  0.00  0.00    +0.000 C 
ENDBRANCH   8  29
TORSDOF 6
ENDMDL
MODEL 8
REMARK VINA RESULT:      -6.4      3.864      7.991
REMARK  Name = 
REMARK  10 active torsions:
REMARK  status: ('A' for Active; 'I' for Inactive)
REMARK    1  A    between atoms: C_1  and  O_2
REMARK    2  A    between atoms: O_2  and  C_3
REMARK    3  A    between atoms: C_5  and  O_6
REMARK    4  A    between atoms: O_6  and  C_7
REMARK    5  A    between atoms: C_9  and  C_10
REMARK    6  A    between atoms: C_15  and  O_16
REMARK    7  A    between atoms: O_16  and  C_17
REMARK    8  A    between atoms: C_19  and  O_20
REMARK    9  A    between atoms: O_20  and  C_21
REMARK   10  A    between atoms: C_23  and  C_24
REMARK                            x       y       z     vdW  Elec       q    Type
REMARK                         _______ _______ _______ _____ _____    ______ ____
ROOT
ATOM      1  C   UNL     1      -0.872  11.510  22.073  0.00  0.00    +0.000 C 
ATOM      2  C   UNL     1      -0.067  10.392  22.748  0.00  0.00    +0.000 C 
ATOM      3  O   UNL     1      -0.131   9.951  23.879  0.00  0.00    +0.000 OA
ATOM      4  C   UNL     1       0.861   9.894  21.664  0.00  0.00    +0.000 A 
ATOM      5  C   UNL     1       1.330   8.614  21.397  0.00  0.00    +0.000 A 
ATOM      6  C   UNL     1       1.555   8.307  20.052  0.00  0.00    +0.000 A 
ATOM      7  C   UNL     1       1.225   9.230  19.046  0.00  0.00    +0.000 A 
ATOM      8  C   UNL     1       0.847  10.533  19.345  0.00  0.00    +0.000 A 
ATOM      9  C   UNL     1       0.807  10.900  20.682  0.00  0.00    +0.000 A 
ATOM     10  C   UNL     1       0.338  12.172  21.383  0.00  0.00    +0.000 C 
ENDROOT
BRANCH   1  15
ATOM     11  C   UNL     1      -4.319  13.000  22.178  0.00  0.00    +0.000 A 
ATOM     12  C   UNL     1      -4.274  13.855  23.264  0.00  0.00    +0.000 A 
ATOM     13  C   UNL     1      -3.115  13.961  24.049  0.00  0.00    +0.000 A 
ATOM     14  C   UNL     1      -1.956  13.224  23.731  0.00  0.00    +0.000 A 
ATOM     15  C   UNL     1      -1.971  12.380  22.618  0.00  0.00    +0.000 A 
ATOM     16  C   UNL     1      -3.175  12.285  21.865  0.00  0.00    +0.000 A 
BRANCH  11  18
ATOM     17  C   UNL     1      -5.457  12.227  20.255  0.00  0.00    +0.000 C 
ATOM     18  O   UNL     1      -5.488  12.962  21.475  0.00  0.00    +0.000 OA
ENDBRANCH  11  18
BRANCH  13  19
ATOM     19  O   UNL     1      -3.282  14.831  25.094  0.00  0.00    +0.000 OA
ATOM     20  C   UNL     1      -3.905  16.072  24.824  0.00  0.00    +0.000 C 
ENDBRANCH  13  19
ENDBRANCH   1  15
BRANCH  10  21
ATOM     21  C   UNL     1       0.492  13.474  20.641  0.00  0.00    +0.000 A 
ATOM     22  C   UNL     1      -0.548  14.168  20.053  0.00  0.00    +0.000 A 
ATOM     23  C   UNL     1      -0.295  15.130  19.066  0.00  0.00    +0.000 A 
ATOM     24  C   UNL     1       1.017  15.472  18.731  0.00  0.00    +0.000 A 
ATOM     25  C   UNL     1       2.075  14.886  19.410  0.00  0.00    +0.000 A 
ATOM     26  C   UNL     1       1.816  13.902  20.358  0.00  0.00    +0.000 A 
ENDBRANCH  10  21
BRANCH   6  27
ATOM     27  O   UNL     1       2.014   7.137  19.516  0.00  0.00    +0.000 OA
ATOM     28  C   UNL     1       1.972   5.973  20.314  0.00  0.00    +0.000 C 
ENDBRANCH   6  27
BRANCH   8  29
ATOM     29  O   UNL     1       0.379  11.408  18.417  0.00  0.00    +0.000 OA
ATOM     30  C   UNL     1      -0.974  11.287  17.995  0.00  0.00    +0.000 C 
ENDBRANCH   8  29
TORSDOF 6
ENDMDL
MODEL 9
REMARK VINA RESULT:      -6.3      3.754      7.872
REMARK  Name = 
REMARK  10 active torsions:
REMARK  status: ('A' for Active; 'I' for Inactive)
REMARK    1  A    between atoms: C_1  and  O_2
REMARK    2  A    between atoms: O_2  and  C_3
REMARK    3  A    between atoms: C_5  and  O_6
REMARK    4  A    between atoms: O_6  and  C_7
REMARK    5  A    between atoms: C_9  and  C_10
REMARK    6  A    between atoms: C_15  and  O_16
REMARK    7  A    between atoms: O_16  and  C_17
REMARK    8  A    between atoms: C_19  and  O_20
REMARK    9  A    between atoms: O_20  and  C_21
REMARK   10  A    between atoms: C_23  and  C_24
REMARK                            x       y       z     vdW  Elec       q    Type
REMARK                         _______ _______ _______ _____ _____    ______ ____
ROOT
ATOM      1  C   UNL     1      -0.711  11.259  21.881  0.00  0.00    +0.000 C 
ATOM      2  C   UNL     1       0.090  10.223  22.679  0.00  0.00    +0.000 C 
ATOM      3  O   UNL     1       0.030   9.919  23.855  0.00  0.00    +0.000 OA
ATOM      4  C   UNL     1       1.009   9.594  21.657  0.00  0.00    +0.000 A 
ATOM      5  C   UNL     1       1.469   8.289  21.542  0.00  0.00    +0.000 A 
ATOM      6  C   UNL     1       1.685   7.823  20.241  0.00  0.00    +0.000 A 
ATOM      7  C   UNL     1       1.355   8.622  19.135  0.00  0.00    +0.000 A 
ATOM      8  C   UNL     1       0.986   9.954  19.279  0.00  0.00    +0.000 A 
ATOM      9  C   UNL     1       0.956  10.477  20.564  0.00  0.00    +0.000 A 
ATOM     10  C   UNL     1       0.498  11.826  21.111  0.00  0.00    +0.000 C 
ENDROOT
BRANCH   1  15
ATOM     11  C   UNL     1      -2.193  14.100  23.842  0.00  0.00    +0.000 A 
ATOM     12  C   UNL     1      -3.518  14.116  23.446  0.00  0.00    +0.000 A 
ATOM     13  C   UNL     1      -3.991  13.215  22.480  0.00  0.00    +0.000 A 
ATOM     14  C   UNL     1      -3.137  12.248  21.913  0.00  0.00    +0.000 A 
ATOM     15  C   UNL     1      -1.803  12.194  22.324  0.00  0.00    +0.000 A 
ATOM     16  C   UNL     1      -1.360  13.142  23.288  0.00  0.00    +0.000 A 
BRANCH  11  18
ATOM     17  C   UNL     1      -2.856  15.877  25.254  0.00  0.00    +0.000 C 
ATOM     18  O   UNL     1      -1.823  15.015  24.785  0.00  0.00    +0.000 OA
ENDBRANCH  11  18
BRANCH  13  19
ATOM     19  O   UNL     1      -5.317  13.414  22.201  0.00  0.00    +0.000 OA
ATOM     20  C   UNL     1      -5.934  12.541  21.274  0.00  0.00    +0.000 C 
ENDBRANCH  13  19
ENDBRANCH   1  15
BRANCH  10  21
ATOM     21  C   UNL     1       0.656  13.030  20.219  0.00  0.00    +0.000 A 
ATOM     22  C   UNL     1       1.853  13.678  19.983  0.00  0.00    +0.000 A 
ATOM     23  C   UNL     1       1.868  14.988  19.484  0.00  0.00    +0.000 A 
ATOM     24  C   UNL     1       0.677  15.622  19.125  0.00  0.00    +0.000 A 
ATOM     25  C   UNL     1      -0.525  14.936  19.224  0.00  0.00    +0.000 A 
ATOM     26  C   UNL     1      -0.535  13.652  19.761  0.00  0.00    +0.000 A 
ENDBRANCH  10  21
BRANCH   6  27
ATOM     27  O   UNL     1       2.134   6.595  19.846  0.00  0.00    +0.000 OA
ATOM     28  C   UNL     1       2.749   6.483  18.579  0.00  0.00    +0.000 C 
ENDBRANCH   6  27
BRANCH   8  29
ATOM     29  O   UNL     1       0.518  10.715  18.256  0.00  0.00    +0.000 OA
ATOM     30  C   UNL     1      -0.824  10.521  17.828  0.00  0.00    +0.000 C 
ENDBRANCH   8  29
TORSDOF 6
ENDMDL
