MODEL 1
REMARK VINA RESULT:      -8.7      0.000      0.000
REMARK  Name = 
REMARK  9 active torsions:
REMARK  status: ('A' for Active; 'I' for Inactive)
REMARK    1  A    between atoms: C_1  and  C_2
REMARK    2  A    between atoms: C_2  and  C_3
REMARK    3  A    between atoms: C_3  and  C_4
REMARK    4  A    between atoms: C_4  and  N_5
REMARK    5  A    between atoms: C_6  and  C_8
REMARK    6  A    between atoms: C_8  and  C_9
REMARK    7  A    between atoms: N_14  and  C_15
REMARK    8  A    between atoms: C_15  and  C_16
REMARK    9  A    between atoms: C_21  and  C_22
REMARK                            x       y       z     vdW  Elec       q    Type
REMARK                         _______ _______ _______ _____ _____    ______ ____
ROOT
ATOM      1  C   UNL     1       5.411   4.595  16.846  0.00  0.00    +0.000 C 
ATOM      2  C   UNL     1       4.390   3.437  16.870  0.00  0.00    +0.000 C 
ATOM      3  C   UNL     1       6.840   4.297  17.389  0.00  0.00    +0.000 C 
ATOM      4  C   UNL     1       7.732   5.548  17.205  0.00  0.00    +0.000 C 
ATOM      5  C   UNL     1       7.102   6.833  17.755  0.00  0.00    +0.000 C 
ATOM      6  C   UNL     1       5.629   6.994  17.388  0.00  0.00    +0.000 C 
ATOM      7  N   UNL     1       4.811   5.786  17.595  0.00  0.00    +0.000 NA
ENDROOT
BRANCH   1   9
ATOM      8  N   UNL     1       6.238   3.691  14.609  0.00  0.00    +0.000 N 
ATOM      9  C   UNL     1       5.677   4.715  15.308  0.00  0.00    +0.000 C 
ATOM     10  O   UNL     1       5.482   5.796  14.729  0.00  0.00    +0.000 OA
ATOM     11  H   UNL     1       6.662   2.939  15.136  0.00  0.00    +0.000 HD
BRANCH   8  12
ATOM     12  C   UNL     1       6.601   3.958  13.222  0.00  0.00    +0.000 C 
BRANCH  12  13
ATOM     13  C   UNL     1       5.831   3.149  12.204  0.00  0.00    +0.000 C 
BRANCH  13  15
ATOM     14  C   UNL     1       3.761   3.010  10.812  0.00  0.00    +0.000 C 
ATOM     15  C   UNL     1       4.427   3.708  11.982  0.00  0.00    +0.000 C 
ENDBRANCH  13  15
ENDBRANCH  12  13
ENDBRANCH   8  12
ENDBRANCH   1   9
BRANCH   7  16
ATOM     16  C   UNL     1       4.747   5.457  19.070  0.00  0.00    +0.000 C 
BRANCH  16  17
ATOM     17  C   UNL     1       3.499   4.864  19.720  0.00  0.00    +0.000 A 
ATOM     18  C   UNL     1       3.596   3.481  20.055  0.00  0.00    +0.000 A 
ATOM     19  C   UNL     1       2.539   2.764  20.608  0.00  0.00    +0.000 A 
ATOM     20  C   UNL     1       1.333   3.407  20.815  0.00  0.00    +0.000 A 
ATOM     21  C   UNL     1       1.196   4.746  20.444  0.00  0.00    +0.000 A 
ATOM     22  C   UNL     1       2.256   5.518  19.893  0.00  0.00    +0.000 A 
BRANCH  22  23
ATOM     23  C   UNL     1       1.978   6.941  19.556  0.00  0.00    +0.000 A 
ATOM     24  C   UNL     1       2.124   7.396  18.228  0.00  0.00    +0.000 A 
ATOM     25  C   UNL     1       1.854   8.718  17.862  0.00  0.00    +0.000 A 
ATOM     26  C   UNL     1       1.407   9.622  18.810  0.00  0.00    +0.000 A 
ATOM     27  C   UNL     1       1.288   9.220  20.139  0.00  0.00    +0.000 A 
ATOM     28  C   UNL     1       1.596   7.903  20.510  0.00  0.00    +0.000 A 
ENDBRANCH  22  23
ENDBRANCH  16  17
ENDBRANCH   7  16
TORSDOF 7
ENDMDL
MODEL 2
REMARK VINA RESULT:      -8.4      1.236      2.067
REMARK  Name = 
REMARK  9 active torsions:
REMARK  status: ('A' for Active; 'I' for Inactive)
REMARK    1  A    between atoms: C_1  and  C_2
REMARK    2  A    between atoms: C_2  and  C_3
REMARK    3  A    between atoms: C_3  and  C_4
REMARK    4  A    between atoms: C_4  and  N_5
REMARK    5  A    between atoms: C_6  and  C_8
REMARK    6  A    between atoms: C_8  and  C_9
REMARK    7  A    between atoms: N_14  and  C_15
REMARK    8  A    between atoms: C_15  and  C_16
REMARK    9  A    between atoms: C_21  and  C_22
REMARK                            x       y       z     vdW  Elec       q    Type
REMARK                         _______ _______ _______ _____ _____    ______ ____
ROOT
ATOM      1  C   UNL     1       6.474   5.540  17.833  0.00  0.00    +0.000 C 
ATOM      2  C   UNL     1       7.548   5.988  18.848  0.00  0.00    +0.000 C 
ATOM      3  C   UNL     1       5.597   6.652  17.185  0.00  0.00    +0.000 C 
ATOM      4  C   UNL     1       4.646   6.016  16.143  0.00  0.00    +0.000 C 
ATOM      5  C   UNL     1       3.851   4.825  16.691  0.00  0.00    +0.000 C 
ATOM      6  C   UNL     1       4.696   3.856  17.513  0.00  0.00    +0.000 C 
ATOM      7  N   UNL     1       5.575   4.501  18.505  0.00  0.00    +0.000 NA
ENDROOT
BRANCH   1   9
ATOM      8  N   UNL     1       7.216   5.660  15.396  0.00  0.00    +0.000 N 
ATOM      9  C   UNL     1       7.375   5.107  16.628  0.00  0.00    +0.000 C 
ATOM     10  O   UNL     1       8.174   4.166  16.761  0.00  0.00    +0.000 OA
ATOM     11  H   UNL     1       6.378   6.202  15.228  0.00  0.00    +0.000 HD
BRANCH   8  12
ATOM     12  C   UNL     1       7.984   5.075  14.303  0.00  0.00    +0.000 C 
BRANCH  12  13
ATOM     13  C   UNL     1       7.170   4.717  13.083  0.00  0.00    +0.000 C 
BRANCH  13  15
ATOM     14  C   UNL     1       5.310   3.319  12.171  0.00  0.00    +0.000 C 
ATOM     15  C   UNL     1       5.998   3.802  13.433  0.00  0.00    +0.000 C 
ENDBRANCH  13  15
ENDBRANCH  12  13
ENDBRANCH   8  12
ENDBRANCH   1   9
BRANCH   7  16
ATOM     16  C   UNL     1       4.738   5.185  19.563  0.00  0.00    +0.000 C 
BRANCH  16  17
ATOM     17  C   UNL     1       3.425   4.594  20.073  0.00  0.00    +0.000 A 
ATOM     18  C   UNL     1       3.478   3.206  20.399  0.00  0.00    +0.000 A 
ATOM     19  C   UNL     1       2.365   2.491  20.829  0.00  0.00    +0.000 A 
ATOM     20  C   UNL     1       1.148   3.141  20.919  0.00  0.00    +0.000 A 
ATOM     21  C   UNL     1       1.059   4.485  20.552  0.00  0.00    +0.000 A 
ATOM     22  C   UNL     1       2.176   5.256  20.124  0.00  0.00    +0.000 A 
BRANCH  22  23
ATOM     23  C   UNL     1       1.944   6.685  19.778  0.00  0.00    +0.000 A 
ATOM     24  C   UNL     1       2.197   7.147  18.470  0.00  0.00    +0.000 A 
ATOM     25  C   UNL     1       1.974   8.476  18.095  0.00  0.00    +0.000 A 
ATOM     26  C   UNL     1       1.467   9.378  19.013  0.00  0.00    +0.000 A 
ATOM     27  C   UNL     1       1.241   8.968  20.325  0.00  0.00    +0.000 A 
ATOM     28  C   UNL     1       1.502   7.645  20.708  0.00  0.00    +0.000 A 
ENDBRANCH  22  23
ENDBRANCH  16  17
ENDBRANCH   7  16
TORSDOF 7
ENDMDL
MODEL 3
REMARK VINA RESULT:      -7.9      0.919      1.314
REMARK  Name = 
REMARK  9 active torsions:
REMARK  status: ('A' for Active; 'I' for Inactive)
REMARK    1  A    between atoms: C_1  and  C_2
REMARK    2  A    between atoms: C_2  and  C_3
REMARK    3  A    between atoms: C_3  and  C_4
REMARK    4  A    between atoms: C_4  and  N_5
REMARK    5  A    between atoms: C_6  and  C_8
REMARK    6  A    between atoms: C_8  and  C_9
REMARK    7  A    between atoms: N_14  and  C_15
REMARK    8  A    between atoms: C_15  and  C_16
REMARK    9  A    between atoms: C_21  and  C_22
REMARK                            x       y       z     vdW  Elec       q    Type
REMARK                         _______ _______ _______ _____ _____    ______ ____
ROOT
ATOM      1  C   UNL     1       6.086   4.588  16.507  0.00  0.00    +0.000 C 
ATOM      2  C   UNL     1       5.681   3.099  16.439  0.00  0.00    +0.000 C 
ATOM      3  C   UNL     1       7.371   4.941  17.315  0.00  0.00    +0.000 C 
ATOM      4  C   UNL     1       7.653   6.457  17.195  0.00  0.00    +0.000 C 
ATOM      5  C   UNL     1       6.438   7.332  17.527  0.00  0.00    +0.000 C 
ATOM      6  C   UNL     1       5.141   6.835  16.896  0.00  0.00    +0.000 C 
ATOM      7  N   UNL     1       4.901   5.390  17.047  0.00  0.00    +0.000 NA
ENDROOT
BRANCH   1   9
ATOM      8  N   UNL     1       6.009   4.144  13.997  0.00  0.00    +0.000 N 
ATOM      9  C   UNL     1       6.563   4.826  15.035  0.00  0.00    +0.000 C 
ATOM     10  O   UNL     1       7.537   5.563  14.813  0.00  0.00    +0.000 OA
ATOM     11  H   UNL     1       5.433   3.341  14.215  0.00  0.00    +0.000 HD
BRANCH   8  12
ATOM     12  C   UNL     1       6.632   4.310  12.689  0.00  0.00    +0.000 C 
BRANCH  12  13
ATOM     13  C   UNL     1       6.594   3.080  11.813  0.00  0.00    +0.000 C 
BRANCH  13  15
ATOM     14  C   UNL     1       4.222   3.356  11.078  0.00  0.00    +0.000 C 
ATOM     15  C   UNL     1       5.204   2.446  11.789  0.00  0.00    +0.000 C 
ENDBRANCH  13  15
ENDBRANCH  12  13
ENDBRANCH   8  12
ENDBRANCH   1   9
BRANCH   7  16
ATOM     16  C   UNL     1       4.704   5.053  18.509  0.00  0.00    +0.000 C 
BRANCH  16  17
ATOM     17  C   UNL     1       3.438   4.372  19.026  0.00  0.00    +0.000 A 
ATOM     18  C   UNL     1       3.498   2.947  19.067  0.00  0.00    +0.000 A 
ATOM     19  C   UNL     1       2.421   2.159  19.461  0.00  0.00    +0.000 A 
ATOM     20  C   UNL     1       1.232   2.777  19.801  0.00  0.00    +0.000 A 
ATOM     21  C   UNL     1       1.132   4.167  19.716  0.00  0.00    +0.000 A 
ATOM     22  C   UNL     1       2.214   5.009  19.334  0.00  0.00    +0.000 A 
BRANCH  22  23
ATOM     23  C   UNL     1       1.975   6.478  19.300  0.00  0.00    +0.000 A 
ATOM     24  C   UNL     1       1.650   7.169  20.486  0.00  0.00    +0.000 A 
ATOM     25  C   UNL     1       1.438   8.551  20.506  0.00  0.00    +0.000 A 
ATOM     26  C   UNL     1       1.567   9.288  19.341  0.00  0.00    +0.000 A 
ATOM     27  C   UNL     1       1.849   8.634  18.143  0.00  0.00    +0.000 A 
ATOM     28  C   UNL     1       2.024   7.243  18.121  0.00  0.00    +0.000 A 
ENDBRANCH  22  23
ENDBRANCH  16  17
ENDBRANCH   7  16
TORSDOF 7
ENDMDL
MODEL 4
REMARK VINA RESULT:      -7.8      2.091      7.241
REMARK  Name = 
REMARK  9 active torsions:
REMARK  status: ('A' for Active; 'I' for Inactive)
REMARK    1  A    between atoms: C_1  and  C_2
REMARK    2  A    between atoms: C_2  and  C_3
REMARK    3  A    between atoms: C_3  and  C_4
REMARK    4  A    between atoms: C_4  and  N_5
REMARK    5  A    between atoms: C_6  and  C_8
REMARK    6  A    between atoms: C_8  and  C_9
REMARK    7  A    between atoms: N_14  and  C_15
REMARK    8  A    between atoms: C_15  and  C_16
REMARK    9  A    between atoms: C_21  and  C_22
REMARK                            x       y       z     vdW  Elec       q    Type
REMARK                         _______ _______ _______ _____ _____    ______ ____
ROOT
ATOM      1  C   UNL     1       3.712   4.935  18.385  0.00  0.00    +0.000 C 
ATOM      2  C   UNL     1       4.422   6.222  17.912  0.00  0.00    +0.000 C 
ATOM      3  C   UNL     1       4.362   4.155  19.567  0.00  0.00    +0.000 C 
ATOM      4  C   UNL     1       3.465   2.952  19.945  0.00  0.00    +0.000 C 
ATOM      5  C   UNL     1       3.081   2.077  18.746  0.00  0.00    +0.000 C 
ATOM      6  C   UNL     1       2.654   2.879  17.520  0.00  0.00    +0.000 C 
ATOM      7  N   UNL     1       3.543   4.004  17.184  0.00  0.00    +0.000 NA
ENDROOT
BRANCH   1   9
ATOM      8  N   UNL     1       2.541   6.325  20.174  0.00  0.00    +0.000 N 
ATOM      9  C   UNL     1       2.439   5.539  19.068  0.00  0.00    +0.000 C 
ATOM     10  O   UNL     1       1.310   5.212  18.671  0.00  0.00    +0.000 OA
ATOM     11  H   UNL     1       3.429   6.342  20.659  0.00  0.00    +0.000 HD
BRANCH   8  12
ATOM     12  C   UNL     1       1.297   6.701  20.835  0.00  0.00    +0.000 C 
BRANCH  12  13
ATOM     13  C   UNL     1       1.159   8.177  21.124  0.00  0.00    +0.000 C 
BRANCH  13  15
ATOM     14  C   UNL     1      -0.086   9.395  22.917  0.00  0.00    +0.000 C 
ATOM     15  C   UNL     1      -0.220   8.517  21.687  0.00  0.00    +0.000 C 
ENDBRANCH  13  15
ENDBRANCH  12  13
ENDBRANCH   8  12
ENDBRANCH   1   9
BRANCH   7  16
ATOM     16  C   UNL     1       4.902   3.479  16.774  0.00  0.00    +0.000 C 
BRANCH  16  17
ATOM     17  C   UNL     1       5.645   4.007  15.548  0.00  0.00    +0.000 A 
ATOM     18  C   UNL     1       5.267   3.405  14.311  0.00  0.00    +0.000 A 
ATOM     19  C   UNL     1       5.873   3.726  13.101  0.00  0.00    +0.000 A 
ATOM     20  C   UNL     1       6.906   4.644  13.095  0.00  0.00    +0.000 A 
ATOM     21  C   UNL     1       7.331   5.207  14.301  0.00  0.00    +0.000 A 
ATOM     22  C   UNL     1       6.727   4.919  15.556  0.00  0.00    +0.000 A 
BRANCH  22  23
ATOM     23  C   UNL     1       7.269   5.601  16.763  0.00  0.00    +0.000 A 
ATOM     24  C   UNL     1       7.438   7.001  16.768  0.00  0.00    +0.000 A 
ATOM     25  C   UNL     1       7.925   7.687  17.886  0.00  0.00    +0.000 A 
ATOM     26  C   UNL     1       8.235   6.993  19.042  0.00  0.00    +0.000 A 
ATOM     27  C   UNL     1       8.117   5.605  19.062  0.00  0.00    +0.000 A 
ATOM     28  C   UNL     1       7.665   4.917  17.927  0.00  0.00    +0.000 A 
ENDBRANCH  22  23
ENDBRANCH  16  17
ENDBRANCH   7  16
TORSDOF 7
ENDMDL
MODEL 5
REMARK VINA RESULT:      -7.7      2.190      7.279
REMARK  Name = 
REMARK  9 active torsions:
REMARK  status: ('A' for Active; 'I' for Inactive)
REMARK    1  A    between atoms: C_1  and  C_2
REMARK    2  A    between atoms: C_2  and  C_3
REMARK    3  A    between atoms: C_3  and  C_4
REMARK    4  A    between atoms: C_4  and  N_5
REMARK    5  A    between atoms: C_6  and  C_8
REMARK    6  A    between atoms: C_8  and  C_9
REMARK    7  A    between atoms: N_14  and  C_15
REMARK    8  A    between atoms: C_15  and  C_16
REMARK    9  A    between atoms: C_21  and  C_22
REMARK                            x       y       z     vdW  Elec       q    Type
REMARK                         _______ _______ _______ _____ _____    ______ ____
ROOT
ATOM      1  C   UNL     1       3.690   4.536  19.192  0.00  0.00    +0.000 C 
ATOM      2  C   UNL     1       4.888   5.456  19.515  0.00  0.00    +0.000 C 
ATOM      3  C   UNL     1       3.705   3.103  19.805  0.00  0.00    +0.000 C 
ATOM      4  C   UNL     1       2.392   2.373  19.438  0.00  0.00    +0.000 C 
ATOM      5  C   UNL     1       2.068   2.416  17.940  0.00  0.00    +0.000 C 
ATOM      6  C   UNL     1       2.273   3.791  17.312  0.00  0.00    +0.000 C 
ATOM      7  N   UNL     1       3.543   4.445  17.673  0.00  0.00    +0.000 NA
ENDROOT
BRANCH   1   9
ATOM      8  N   UNL     1       2.343   6.565  19.948  0.00  0.00    +0.000 N 
ATOM      9  C   UNL     1       2.561   5.225  20.030  0.00  0.00    +0.000 C 
ATOM     10  O   UNL     1       1.924   4.567  20.867  0.00  0.00    +0.000 OA
ATOM     11  H   UNL     1       3.050   7.130  19.497  0.00  0.00    +0.000 HD
BRANCH   8  12
ATOM     12  C   UNL     1       1.385   7.138  20.887  0.00  0.00    +0.000 C 
BRANCH  12  13
ATOM     13  C   UNL     1       1.155   8.622  20.725  0.00  0.00    +0.000 C 
BRANCH  13  15
ATOM     14  C   UNL     1       0.047   9.420  22.817  0.00  0.00    +0.000 C 
ATOM     15  C   UNL     1      -0.163   9.062  21.359  0.00  0.00    +0.000 C 
ENDBRANCH  13  15
ENDBRANCH  12  13
ENDBRANCH   8  12
ENDBRANCH   1   9
BRANCH   7  16
ATOM     16  C   UNL     1       4.704   3.654  17.112  0.00  0.00    +0.000 C 
BRANCH  16  17
ATOM     17  C   UNL     1       5.429   4.064  15.832  0.00  0.00    +0.000 A 
ATOM     18  C   UNL     1       4.989   3.392  14.652  0.00  0.00    +0.000 A 
ATOM     19  C   UNL     1       5.569   3.603  13.405  0.00  0.00    +0.000 A 
ATOM     20  C   UNL     1       6.636   4.476  13.305  0.00  0.00    +0.000 A 
ATOM     21  C   UNL     1       7.120   5.103  14.454  0.00  0.00    +0.000 A 
ATOM     22  C   UNL     1       6.545   4.929  15.744  0.00  0.00    +0.000 A 
BRANCH  22  23
ATOM     23  C   UNL     1       7.151   5.671  16.883  0.00  0.00    +0.000 A 
ATOM     24  C   UNL     1       7.689   4.967  17.981  0.00  0.00    +0.000 A 
ATOM     25  C   UNL     1       8.286   5.621  19.062  0.00  0.00    +0.000 A 
ATOM     26  C   UNL     1       8.385   7.001  19.068  0.00  0.00    +0.000 A 
ATOM     27  C   UNL     1       7.831   7.733  18.019  0.00  0.00    +0.000 A 
ATOM     28  C   UNL     1       7.198   7.075  16.954  0.00  0.00    +0.000 A 
ENDBRANCH  22  23
ENDBRANCH  16  17
ENDBRANCH   7  16
TORSDOF 7
ENDMDL
MODEL 6
REMARK VINA RESULT:      -7.6      2.346      4.390
REMARK  Name = 
REMARK  9 active torsions:
REMARK  status: ('A' for Active; 'I' for Inactive)
REMARK    1  A    between atoms: C_1  and  C_2
REMARK    2  A    between atoms: C_2  and  C_3
REMARK    3  A    between atoms: C_3  and  C_4
REMARK    4  A    between atoms: C_4  and  N_5
REMARK    5  A    between atoms: C_6  and  C_8
REMARK    6  A    between atoms: C_8  and  C_9
REMARK    7  A    between atoms: N_14  and  C_15
REMARK    8  A    between atoms: C_15  and  C_16
REMARK    9  A    between atoms: C_21  and  C_22
REMARK                            x       y       z     vdW  Elec       q    Type
REMARK                         _______ _______ _______ _____ _____    ______ ____
ROOT
ATOM      1  C   UNL     1       5.942   6.173  16.919  0.00  0.00    +0.000 C 
ATOM      2  C   UNL     1       5.077   6.812  15.810  0.00  0.00    +0.000 C 
ATOM      3  C   UNL     1       6.706   4.863  16.561  0.00  0.00    +0.000 C 
ATOM      4  C   UNL     1       7.574   4.429  17.766  0.00  0.00    +0.000 C 
ATOM      5  C   UNL     1       6.797   4.366  19.086  0.00  0.00    +0.000 C 
ATOM      6  C   UNL     1       5.882   5.567  19.311  0.00  0.00    +0.000 C 
ATOM      7  N   UNL     1       5.061   5.937  18.146  0.00  0.00    +0.000 NA
ENDROOT
BRANCH   1   9
ATOM      8  N   UNL     1       7.022   8.309  17.800  0.00  0.00    +0.000 N 
ATOM      9  C   UNL     1       7.114   7.208  17.006  0.00  0.00    +0.000 C 
ATOM     10  O   UNL     1       8.098   7.091  16.260  0.00  0.00    +0.000 OA
ATOM     11  H   UNL     1       6.111   8.548  18.169  0.00  0.00    +0.000 HD
BRANCH   8  12
ATOM     12  C   UNL     1       8.089   9.296  17.687  0.00  0.00    +0.000 C 
BRANCH  12  13
ATOM     13  C   UNL     1       8.937   9.451  18.927  0.00  0.00    +0.000 C 
BRANCH  13  15
ATOM     14  C   UNL     1       9.006  11.739  17.926  0.00  0.00    +0.000 C 
ATOM     15  C   UNL     1       9.558  10.843  19.018  0.00  0.00    +0.000 C 
ENDBRANCH  13  15
ENDBRANCH  12  13
ENDBRANCH   8  12
ENDBRANCH   1   9
BRANCH   7  16
ATOM     16  C   UNL     1       4.077   4.830  17.840  0.00  0.00    +0.000 C 
BRANCH  16  17
ATOM     17  C   UNL     1       3.063   4.331  18.868  0.00  0.00    +0.000 A 
ATOM     18  C   UNL     1       3.065   2.920  19.078  0.00  0.00    +0.000 A 
ATOM     19  C   UNL     1       2.176   2.285  19.940  0.00  0.00    +0.000 A 
ATOM     20  C   UNL     1       1.230   3.046  20.600  0.00  0.00    +0.000 A 
ATOM     21  C   UNL     1       1.172   4.422  20.370  0.00  0.00    +0.000 A 
ATOM     22  C   UNL     1       2.073   5.111  19.510  0.00  0.00    +0.000 A 
BRANCH  22  23
ATOM     23  C   UNL     1       1.909   6.583  19.367  0.00  0.00    +0.000 A 
ATOM     24  C   UNL     1       2.043   7.190  18.100  0.00  0.00    +0.000 A 
ATOM     25  C   UNL     1       1.877   8.566  17.914  0.00  0.00    +0.000 A 
ATOM     26  C   UNL     1       1.548   9.375  18.988  0.00  0.00    +0.000 A 
ATOM     27  C   UNL     1       1.445   8.818  20.261  0.00  0.00    +0.000 A 
ATOM     28  C   UNL     1       1.650   7.443  20.450  0.00  0.00    +0.000 A 
ENDBRANCH  22  23
ENDBRANCH  16  17
ENDBRANCH   7  16
TORSDOF 7
ENDMDL
MODEL 7
REMARK VINA RESULT:      -7.4      2.031      6.970
REMARK  Name = 
REMARK  9 active torsions:
REMARK  status: ('A' for Active; 'I' for Inactive)
REMARK    1  A    between atoms: C_1  and  C_2
REMARK    2  A    between atoms: C_2  and  C_3
REMARK    3  A    between atoms: C_3  and  C_4
REMARK    4  A    between atoms: C_4  and  N_5
REMARK    5  A    between atoms: C_6  and  C_8
REMARK    6  A    between atoms: C_8  and  C_9
REMARK    7  A    between atoms: N_14  and  C_15
REMARK    8  A    between atoms: C_15  and  C_16
REMARK    9  A    between atoms: C_21  and  C_22
REMARK                            x       y       z     vdW  Elec       q    Type
REMARK                         _______ _______ _______ _____ _____    ______ ____
ROOT
ATOM      1  C   UNL     1       3.583   4.606  18.997  0.00  0.00    +0.000 C 
ATOM      2  C   UNL     1       4.734   5.597  19.279  0.00  0.00    +0.000 C 
ATOM      3  C   UNL     1       3.653   3.215  19.697  0.00  0.00    +0.000 C 
ATOM      4  C   UNL     1       2.380   2.405  19.358  0.00  0.00    +0.000 C 
ATOM      5  C   UNL     1       2.078   2.341  17.856  0.00  0.00    +0.000 C 
ATOM      6  C   UNL     1       2.231   3.684  17.148  0.00  0.00    +0.000 C 
ATOM      7  N   UNL     1       3.465   4.416  17.484  0.00  0.00    +0.000 NA
ENDROOT
BRANCH   1   9
ATOM      8  N   UNL     1       2.435   6.624  20.052  0.00  0.00    +0.000 N 
ATOM      9  C   UNL     1       2.411   5.292  19.776  0.00  0.00    +0.000 C 
ATOM     10  O   UNL     1       1.496   4.601  20.250  0.00  0.00    +0.000 OA
ATOM     11  H   UNL     1       3.311   7.115  19.926  0.00  0.00    +0.000 HD
BRANCH   8  12
ATOM     12  C   UNL     1       1.385   7.137  20.924  0.00  0.00    +0.000 C 
BRANCH  12  13
ATOM     13  C   UNL     1       1.083   8.607  20.748  0.00  0.00    +0.000 C 
BRANCH  13  15
ATOM     14  C   UNL     1       0.342  10.096  18.883  0.00  0.00    +0.000 C 
ATOM     15  C   UNL     1       1.376   9.077  19.324  0.00  0.00    +0.000 C 
ENDBRANCH  13  15
ENDBRANCH  12  13
ENDBRANCH   8  12
ENDBRANCH   1   9
BRANCH   7  16
ATOM     16  C   UNL     1       4.669   3.646  16.989  0.00  0.00    +0.000 C 
BRANCH  16  17
ATOM     17  C   UNL     1       5.421   4.036  15.718  0.00  0.00    +0.000 A 
ATOM     18  C   UNL     1       4.983   3.371  14.534  0.00  0.00    +0.000 A 
ATOM     19  C   UNL     1       5.586   3.565  13.295  0.00  0.00    +0.000 A 
ATOM     20  C   UNL     1       6.674   4.414  13.208  0.00  0.00    +0.000 A 
ATOM     21  C   UNL     1       7.155   5.033  14.363  0.00  0.00    +0.000 A 
ATOM     22  C   UNL     1       6.557   4.875  15.644  0.00  0.00    +0.000 A 
BRANCH  22  23
ATOM     23  C   UNL     1       7.163   5.607  16.790  0.00  0.00    +0.000 A 
ATOM     24  C   UNL     1       7.254   7.015  16.763  0.00  0.00    +0.000 A 
ATOM     25  C   UNL     1       7.796   7.745  17.825  0.00  0.00    +0.000 A 
ATOM     26  C   UNL     1       8.244   7.090  18.959  0.00  0.00    +0.000 A 
ATOM     27  C   UNL     1       8.206   5.697  19.006  0.00  0.00    +0.000 A 
ATOM     28  C   UNL     1       7.697   4.966  17.923  0.00  0.00    +0.000 A 
ENDBRANCH  22  23
ENDBRANCH  16  17
ENDBRANCH   7  16
TORSDOF 7
ENDMDL
MODEL 8
REMARK VINA RESULT:      -7.4      1.028      3.370
REMARK  Name = 
REMARK  9 active torsions:
REMARK  status: ('A' for Active; 'I' for Inactive)
REMARK    1  A    between atoms: C_1  and  C_2
REMARK    2  A    between atoms: C_2  and  C_3
REMARK    3  A    between atoms: C_3  and  C_4
REMARK    4  A    between atoms: C_4  and  N_5
REMARK    5  A    between atoms: C_6  and  C_8
REMARK    6  A    between atoms: C_8  and  C_9
REMARK    7  A    between atoms: N_14  and  C_15
REMARK    8  A    between atoms: C_15  and  C_16
REMARK    9  A    between atoms: C_21  and  C_22
REMARK                            x       y       z     vdW  Elec       q    Type
REMARK                         _______ _______ _______ _____ _____    ______ ____
ROOT
ATOM      1  C   UNL     1       5.560   4.728  16.355  0.00  0.00    +0.000 C 
ATOM      2  C   UNL     1       4.641   3.489  16.283  0.00  0.00    +0.000 C 
ATOM      3  C   UNL     1       6.745   4.679  17.366  0.00  0.00    +0.000 C 
ATOM      4  C   UNL     1       7.591   5.968  17.230  0.00  0.00    +0.000 C 
ATOM      5  C   UNL     1       6.758   7.253  17.295  0.00  0.00    +0.000 C 
ATOM      6  C   UNL     1       5.481   7.194  16.462  0.00  0.00    +0.000 C 
ATOM      7  N   UNL     1       4.696   5.959  16.634  0.00  0.00    +0.000 NA
ENDROOT
BRANCH   1   9
ATOM      8  N   UNL     1       5.751   3.961  13.930  0.00  0.00    +0.000 N 
ATOM      9  C   UNL     1       6.310   4.614  14.985  0.00  0.00    +0.000 C 
ATOM     10  O   UNL     1       7.476   5.024  14.883  0.00  0.00    +0.000 OA
ATOM     11  H   UNL     1       4.941   3.382  14.111  0.00  0.00    +0.000 HD
BRANCH   8  12
ATOM     12  C   UNL     1       6.591   3.763  12.755  0.00  0.00    +0.000 C 
BRANCH  12  13
ATOM     13  C   UNL     1       5.869   3.202  11.553  0.00  0.00    +0.000 C 
BRANCH  13  15
ATOM     14  C   UNL     1       3.659   3.622  10.464  0.00  0.00    +0.000 C 
ATOM     15  C   UNL     1       4.355   3.211  11.748  0.00  0.00    +0.000 C 
ENDBRANCH  13  15
ENDBRANCH  12  13
ENDBRANCH   8  12
ENDBRANCH   1   9
BRANCH   7  16
ATOM     16  C   UNL     1       4.168   5.879  18.049  0.00  0.00    +0.000 C 
BRANCH  16  17
ATOM     17  C   UNL     1       3.030   6.768  18.546  0.00  0.00    +0.000 A 
ATOM     18  C   UNL     1       3.095   8.126  18.113  0.00  0.00    +0.000 A 
ATOM     19  C   UNL     1       2.172   9.088  18.510  0.00  0.00    +0.000 A 
ATOM     20  C   UNL     1       1.164   8.725  19.383  0.00  0.00    +0.000 A 
ATOM     21  C   UNL     1       1.111   7.415  19.865  0.00  0.00    +0.000 A 
ATOM     22  C   UNL     1       2.025   6.398  19.471  0.00  0.00    +0.000 A 
BRANCH  22  23
ATOM     23  C   UNL     1       1.845   5.039  20.049  0.00  0.00    +0.000 A 
ATOM     24  C   UNL     1       2.393   4.728  21.312  0.00  0.00    +0.000 A 
ATOM     25  C   UNL     1       2.231   3.471  21.903  0.00  0.00    +0.000 A 
ATOM     26  C   UNL     1       1.495   2.493  21.259  0.00  0.00    +0.000 A 
ATOM     27  C   UNL     1       0.970   2.750  19.994  0.00  0.00    +0.000 A 
ATOM     28  C   UNL     1       1.167   3.999  19.387  0.00  0.00    +0.000 A 
ENDBRANCH  22  23
ENDBRANCH  16  17
ENDBRANCH   7  16
TORSDOF 7
ENDMDL
MODEL 9
REMARK VINA RESULT:      -7.3      1.240      3.417
REMARK  Name = 
REMARK  9 active torsions:
REMARK  status: ('A' for Active; 'I' for Inactive)
REMARK    1  A    between atoms: C_1  and  C_2
REMARK    2  A    between atoms: C_2  and  C_3
REMARK    3  A    between atoms: C_3  and  C_4
REMARK    4  A    between atoms: C_4  and  N_5
REMARK    5  A    between atoms: C_6  and  C_8
REMARK    6  A    between atoms: C_8  and  C_9
REMARK    7  A    between atoms: N_14  and  C_15
REMARK    8  A    between atoms: C_15  and  C_16
REMARK    9  A    between atoms: C_21  and  C_22
REMARK                            x       y       z     vdW  Elec       q    Type
REMARK                         _______ _______ _______ _____ _____    ______ ____
ROOT
ATOM      1  C   UNL     1       5.539   4.537  16.321  0.00  0.00    +0.000 C 
ATOM      2  C   UNL     1       4.622   3.295  16.321  0.00  0.00    +0.000 C 
ATOM      3  C   UNL     1       6.744   4.535  17.309  0.00  0.00    +0.000 C 
ATOM      4  C   UNL     1       7.583   5.818  17.101  0.00  0.00    +0.000 C 
ATOM      5  C   UNL     1       6.748   7.103  17.126  0.00  0.00    +0.000 C 
ATOM      6  C   UNL     1       5.455   7.005  16.323  0.00  0.00    +0.000 C 
ATOM      7  N   UNL     1       4.677   5.777  16.563  0.00  0.00    +0.000 NA
ENDROOT
BRANCH   1   9
ATOM      8  N   UNL     1       5.567   4.036  13.821  0.00  0.00    +0.000 N 
ATOM      9  C   UNL     1       6.262   4.365  14.943  0.00  0.00    +0.000 C 
ATOM     10  O   UNL     1       7.500   4.417  14.883  0.00  0.00    +0.000 OA
ATOM     11  H   UNL     1       4.617   3.707  13.935  0.00  0.00    +0.000 HD
BRANCH   8  12
ATOM     12  C   UNL     1       6.345   3.734  12.625  0.00  0.00    +0.000 C 
BRANCH  12  13
ATOM     13  C   UNL     1       5.752   2.662  11.742  0.00  0.00    +0.000 C 
BRANCH  13  15
ATOM     14  C   UNL     1       6.216   0.268  11.198  0.00  0.00    +0.000 C 
ATOM     15  C   UNL     1       6.809   1.662  11.279  0.00  0.00    +0.000 C 
ENDBRANCH  13  15
ENDBRANCH  12  13
ENDBRANCH   8  12
ENDBRANCH   1   9
BRANCH   7  16
ATOM     16  C   UNL     1       4.177   5.758  17.990  0.00  0.00    +0.000 C 
BRANCH  16  17
ATOM     17  C   UNL     1       3.079   6.698  18.483  0.00  0.00    +0.000 A 
ATOM     18  C   UNL     1       3.165   8.034  17.988  0.00  0.00    +0.000 A 
ATOM     19  C   UNL     1       2.280   9.037  18.369  0.00  0.00    +0.000 A 
ATOM     20  C   UNL     1       1.292   8.740  19.289  0.00  0.00    +0.000 A 
ATOM     21  C   UNL     1       1.221   7.454  19.830  0.00  0.00    +0.000 A 
ATOM     22  C   UNL     1       2.095   6.397  19.454  0.00  0.00    +0.000 A 
BRANCH  22  23
ATOM     23  C   UNL     1       1.899   5.069  20.097  0.00  0.00    +0.000 A 
ATOM     24  C   UNL     1       1.135   4.075  19.451  0.00  0.00    +0.000 A 
ATOM     25  C   UNL     1       0.941   2.807  20.008  0.00  0.00    +0.000 A 
ATOM     26  C   UNL     1       1.526   2.487  21.220  0.00  0.00    +0.000 A 
ATOM     27  C   UNL     1       2.256   3.456  21.907  0.00  0.00    +0.000 A 
ATOM     28  C   UNL     1       2.416   4.738  21.363  0.00  0.00    +0.000 A 
ENDBRANCH  22  23
ENDBRANCH  16  17
ENDBRANCH   7  16
TORSDOF 7
ENDMDL
