MODEL 1
REMARK VINA RESULT:      -8.6      0.000      0.000
REMARK  Name = 
REMARK  5 active torsions:
REMARK  status: ('A' for Active; 'I' for Inactive)
REMARK    1  A    between atoms: C_2  and  C_3
REMARK    2  A    between atoms: C_2  and  C_14
REMARK    3  A    between atoms: C_4  and  C_5
REMARK    4  A    between atoms: C_14  and  C_15
REMARK    5  A    between atoms: C_15  and  O_16
REMARK                            x       y       z     vdW  Elec       q    Type
REMARK                         _______ _______ _______ _____ _____    ______ ____
ROOT
ATOM      1  C   UNL     1       5.225   5.364  16.065  0.00  0.00    +0.000 C 
ENDROOT
BRANCH   1   2
ATOM      2  C   UNL     1       5.272   4.164  17.005  0.00  0.00    +0.000 C 
ATOM      3  C   UNL     1       6.253   4.318  18.218  0.00  0.00    +0.000 C 
ATOM      4  O   UNL     1       7.465   4.459  18.170  0.00  0.00    +0.000 OA
ATOM      5  N   UNL     1       5.506   4.223  19.385  0.00  0.00    +0.000 N 
ATOM      6  C   UNL     1       4.163   4.027  19.109  0.00  0.00    +0.000 A 
ATOM      7  C   UNL     1       3.141   3.890  20.024  0.00  0.00    +0.000 A 
ATOM      8  C   UNL     1       1.845   3.755  19.523  0.00  0.00    +0.000 A 
ATOM      9  C   UNL     1       1.609   3.757  18.136  0.00  0.00    +0.000 A 
ATOM     10  C   UNL     1       2.666   3.875  17.227  0.00  0.00    +0.000 A 
ATOM     11  C   UNL     1       3.951   4.004  17.730  0.00  0.00    +0.000 A 
ATOM     12  H   UNL     1       5.917   4.259  20.306  0.00  0.00    +0.000 HD
BRANCH   2  13
ATOM     13  O   UNL     1       5.543   2.963  16.294  0.00  0.00    +0.000 OA
ATOM     14  H   UNL     1       6.141   2.434  16.859  0.00  0.00    +0.000 HD
ENDBRANCH   2  13
ENDBRANCH   1   2
BRANCH   1  16
ATOM     15  O   UNL     1       6.565   7.276  16.571  0.00  0.00    +0.000 OA
ATOM     16  C   UNL     1       5.515   6.665  16.775  0.00  0.00    +0.000 C 
BRANCH  16  17
ATOM     17  C   UNL     1       4.534   7.251  17.724  0.00  0.00    +0.000 C 
ATOM     18  C   UNL     1       3.258   7.524  17.418  0.00  0.00    +0.000 C 
BRANCH  18  19
ATOM     19  C   UNL     1       2.359   8.100  18.411  0.00  0.00    +0.000 A 
ATOM     20  C   UNL     1       2.244   7.528  19.698  0.00  0.00    +0.000 A 
ATOM     21  C   UNL     1       1.381   8.090  20.641  0.00  0.00    +0.000 A 
ATOM     22  C   UNL     1       0.661   9.203  20.275  0.00  0.00    +0.000 A 
ATOM     23  C   UNL     1       0.777   9.760  19.021  0.00  0.00    +0.000 A 
ATOM     24  C   UNL     1       1.615   9.235  18.066  0.00  0.00    +0.000 A 
ATOM     25  O   UNL     1      -0.013  10.850  18.853  0.00  0.00    +0.000 OA
ATOM     26  C   UNL     1      -0.652  10.916  20.146  0.00  0.00    +0.000 C 
ATOM     27  O   UNL     1      -0.221   9.882  21.055  0.00  0.00    +0.000 OA
ENDBRANCH  18  19
ENDBRANCH  16  17
ENDBRANCH   1  16
TORSDOF 5
ENDMDL
MODEL 2
REMARK VINA RESULT:      -8.5      0.680      1.430
REMARK  Name = 
REMARK  5 active torsions:
REMARK  status: ('A' for Active; 'I' for Inactive)
REMARK    1  A    between atoms: C_2  and  C_3
REMARK    2  A    between atoms: C_2  and  C_14
REMARK    3  A    between atoms: C_4  and  C_5
REMARK    4  A    between atoms: C_14  and  C_15
REMARK    5  A    between atoms: C_15  and  O_16
REMARK                            x       y       z     vdW  Elec       q    Type
REMARK                         _______ _______ _______ _____ _____    ______ ____
ROOT
ATOM      1  C   UNL     1       5.380   5.405  15.961  0.00  0.00    +0.000 C 
ENDROOT
BRANCH   1   2
ATOM      2  C   UNL     1       5.460   4.158  16.835  0.00  0.00    +0.000 C 
ATOM      3  C   UNL     1       6.459   4.264  18.039  0.00  0.00    +0.000 C 
ATOM      4  O   UNL     1       7.667   4.427  17.979  0.00  0.00    +0.000 OA
ATOM      5  N   UNL     1       5.733   4.095  19.211  0.00  0.00    +0.000 N 
ATOM      6  C   UNL     1       4.389   3.893  18.946  0.00  0.00    +0.000 A 
ATOM      7  C   UNL     1       3.384   3.691  19.869  0.00  0.00    +0.000 A 
ATOM      8  C   UNL     1       2.082   3.561  19.381  0.00  0.00    +0.000 A 
ATOM      9  C   UNL     1       1.823   3.633  18.000  0.00  0.00    +0.000 A 
ATOM     10  C   UNL     1       2.863   3.816  17.082  0.00  0.00    +0.000 A 
ATOM     11  C   UNL     1       4.154   3.938  17.572  0.00  0.00    +0.000 A 
ATOM     12  H   UNL     1       6.159   4.089  20.125  0.00  0.00    +0.000 HD
BRANCH   2  13
ATOM     13  O   UNL     1       5.738   3.001  16.057  0.00  0.00    +0.000 OA
ATOM     14  H   UNL     1       4.988   2.897  15.437  0.00  0.00    +0.000 HD
ENDBRANCH   2  13
ENDBRANCH   1   2
BRANCH   1  16
ATOM     15  O   UNL     1       6.827   7.184  16.630  0.00  0.00    +0.000 OA
ATOM     16  C   UNL     1       5.713   6.667  16.722  0.00  0.00    +0.000 C 
BRANCH  16  17
ATOM     17  C   UNL     1       4.701   7.325  17.588  0.00  0.00    +0.000 C 
ATOM     18  C   UNL     1       3.411   7.480  17.257  0.00  0.00    +0.000 C 
BRANCH  18  19
ATOM     19  C   UNL     1       2.482   8.139  18.167  0.00  0.00    +0.000 A 
ATOM     20  C   UNL     1       1.788   9.304  17.771  0.00  0.00    +0.000 A 
ATOM     21  C   UNL     1       0.900   9.925  18.652  0.00  0.00    +0.000 A 
ATOM     22  C   UNL     1       0.731   9.368  19.898  0.00  0.00    +0.000 A 
ATOM     23  C   UNL     1       1.408   8.231  20.281  0.00  0.00    +0.000 A 
ATOM     24  C   UNL     1       2.290   7.592  19.442  0.00  0.00    +0.000 A 
ATOM     25  O   UNL     1       1.106   7.839  21.544  0.00  0.00    +0.000 OA
ATOM     26  C   UNL     1       0.164   8.865  21.923  0.00  0.00    +0.000 C 
ATOM     27  O   UNL     1      -0.087   9.830  20.880  0.00  0.00    +0.000 OA
ENDBRANCH  18  19
ENDBRANCH  16  17
ENDBRANCH   1  16
TORSDOF 5
ENDMDL
MODEL 3
REMARK VINA RESULT:      -8.2      4.879      6.167
REMARK  Name = 
REMARK  5 active torsions:
REMARK  status: ('A' for Active; 'I' for Inactive)
REMARK    1  A    between atoms: C_2  and  C_3
REMARK    2  A    between atoms: C_2  and  C_14
REMARK    3  A    between atoms: C_4  and  C_5
REMARK    4  A    between atoms: C_14  and  C_15
REMARK    5  A    between atoms: C_15  and  O_16
REMARK                            x       y       z     vdW  Elec       q    Type
REMARK                         _______ _______ _______ _____ _____    ______ ____
ROOT
ATOM      1  C   UNL     1       6.381   6.538  17.908  0.00  0.00    +0.000 C 
ENDROOT
BRANCH   1   2
ATOM      2  C   UNL     1       5.649   5.800  16.793  0.00  0.00    +0.000 C 
ATOM      3  C   UNL     1       6.280   4.422  16.392  0.00  0.00    +0.000 C 
ATOM      4  O   UNL     1       7.394   4.231  15.928  0.00  0.00    +0.000 OA
ATOM      5  N   UNL     1       5.329   3.436  16.616  0.00  0.00    +0.000 N 
ATOM      6  C   UNL     1       4.153   3.973  17.111  0.00  0.00    +0.000 A 
ATOM      7  C   UNL     1       3.004   3.287  17.444  0.00  0.00    +0.000 A 
ATOM      8  C   UNL     1       1.948   4.026  17.980  0.00  0.00    +0.000 A 
ATOM      9  C   UNL     1       2.066   5.416  18.164  0.00  0.00    +0.000 A 
ATOM     10  C   UNL     1       3.234   6.093  17.797  0.00  0.00    +0.000 A 
ATOM     11  C   UNL     1       4.277   5.355  17.260  0.00  0.00    +0.000 A 
ATOM     12  H   UNL     1       5.485   2.462  16.402  0.00  0.00    +0.000 HD
BRANCH   2  13
ATOM     13  O   UNL     1       5.487   6.627  15.648  0.00  0.00    +0.000 OA
ATOM     14  H   UNL     1       6.057   6.248  14.949  0.00  0.00    +0.000 HD
ENDBRANCH   2  13
ENDBRANCH   1   2
BRANCH   1  16
ATOM     15  O   UNL     1       8.070   7.068  16.304  0.00  0.00    +0.000 OA
ATOM     16  C   UNL     1       7.566   7.324  17.399  0.00  0.00    +0.000 C 
BRANCH  16  17
ATOM     17  C   UNL     1       8.144   8.436  18.197  0.00  0.00    +0.000 C 
ATOM     18  C   UNL     1       8.437   9.647  17.703  0.00  0.00    +0.000 C 
BRANCH  18  19
ATOM     19  C   UNL     1       9.003  10.683  18.557  0.00  0.00    +0.000 A 
ATOM     20  C   UNL     1       9.323  10.413  19.906  0.00  0.00    +0.000 A 
ATOM     21  C   UNL     1       9.867  11.414  20.713  0.00  0.00    +0.000 A 
ATOM     22  C   UNL     1      10.075  12.652  20.153  0.00  0.00    +0.000 A 
ATOM     23  C   UNL     1       9.765  12.914  18.837  0.00  0.00    +0.000 A 
ATOM     24  C   UNL     1       9.228  11.954  18.011  0.00  0.00    +0.000 A 
ATOM     25  O   UNL     1      10.043  14.190  18.473  0.00  0.00    +0.000 OA
ATOM     26  C   UNL     1      10.559  14.714  19.716  0.00  0.00    +0.000 C 
ATOM     27  O   UNL     1      10.594  13.741  20.781  0.00  0.00    +0.000 OA
ENDBRANCH  18  19
ENDBRANCH  16  17
ENDBRANCH   1  16
TORSDOF 5
ENDMDL
MODEL 4
REMARK VINA RESULT:      -8.2      4.561      5.906
REMARK  Name = 
REMARK  5 active torsions:
REMARK  status: ('A' for Active; 'I' for Inactive)
REMARK    1  A    between atoms: C_2  and  C_3
REMARK    2  A    between atoms: C_2  and  C_14
REMARK    3  A    between atoms: C_4  and  C_5
REMARK    4  A    between atoms: C_14  and  C_15
REMARK    5  A    between atoms: C_15  and  O_16
REMARK                            x       y       z     vdW  Elec       q    Type
REMARK                         _______ _______ _______ _____ _____    ______ ____
ROOT
ATOM      1  C   UNL     1       6.460   5.891  18.253  0.00  0.00    +0.000 C 
ENDROOT
BRANCH   1   2
ATOM      2  C   UNL     1       5.242   5.473  17.437  0.00  0.00    +0.000 C 
ATOM      3  C   UNL     1       5.375   4.085  16.721  0.00  0.00    +0.000 C 
ATOM      4  O   UNL     1       6.186   3.777  15.861  0.00  0.00    +0.000 OA
ATOM      5  N   UNL     1       4.371   3.258  17.204  0.00  0.00    +0.000 N 
ATOM      6  C   UNL     1       3.590   3.909  18.143  0.00  0.00    +0.000 A 
ATOM      7  C   UNL     1       2.509   3.391  18.825  0.00  0.00    +0.000 A 
ATOM      8  C   UNL     1       1.896   4.212  19.774  0.00  0.00    +0.000 A 
ATOM      9  C   UNL     1       2.372   5.514  20.011  0.00  0.00    +0.000 A 
ATOM     10  C   UNL     1       3.456   6.025  19.290  0.00  0.00    +0.000 A 
ATOM     11  C   UNL     1       4.058   5.208  18.345  0.00  0.00    +0.000 A 
ATOM     12  H   UNL     1       4.225   2.316  16.871  0.00  0.00    +0.000 HD
BRANCH   2  13
ATOM     13  O   UNL     1       4.876   6.483  16.504  0.00  0.00    +0.000 OA
ATOM     14  H   UNL     1       4.713   6.029  15.653  0.00  0.00    +0.000 HD
ENDBRANCH   2  13
ENDBRANCH   1   2
BRANCH   1  16
ATOM     15  O   UNL     1       7.611   6.665  16.307  0.00  0.00    +0.000 OA
ATOM     16  C   UNL     1       7.360   6.843  17.500  0.00  0.00    +0.000 C 
BRANCH  16  17
ATOM     17  C   UNL     1       7.952   8.027  18.174  0.00  0.00    +0.000 C 
ATOM     18  C   UNL     1       8.162   9.209  17.578  0.00  0.00    +0.000 C 
BRANCH  18  19
ATOM     19  C   UNL     1       8.750  10.321  18.314  0.00  0.00    +0.000 A 
ATOM     20  C   UNL     1       9.383  10.109  19.559  0.00  0.00    +0.000 A 
ATOM     21  C   UNL     1       9.943  11.184  20.253  0.00  0.00    +0.000 A 
ATOM     22  C   UNL     1       9.856  12.434  19.687  0.00  0.00    +0.000 A 
ATOM     23  C   UNL     1       9.240  12.638  18.473  0.00  0.00    +0.000 A 
ATOM     24  C   UNL     1       8.677  11.606  17.760  0.00  0.00    +0.000 A 
ATOM     25  O   UNL     1       9.257  13.937  18.085  0.00  0.00    +0.000 OA
ATOM     26  C   UNL     1       9.949  14.538  19.200  0.00  0.00    +0.000 C 
ATOM     27  O   UNL     1      10.342  13.589  20.213  0.00  0.00    +0.000 OA
ENDBRANCH  18  19
ENDBRANCH  16  17
ENDBRANCH   1  16
TORSDOF 5
ENDMDL
MODEL 5
REMARK VINA RESULT:      -8.1      4.623      5.994
REMARK  Name = 
REMARK  5 active torsions:
REMARK  status: ('A' for Active; 'I' for Inactive)
REMARK    1  A    between atoms: C_2  and  C_3
REMARK    2  A    between atoms: C_2  and  C_14
REMARK    3  A    between atoms: C_4  and  C_5
REMARK    4  A    between atoms: C_14  and  C_15
REMARK    5  A    between atoms: C_15  and  O_16
REMARK                            x       y       z     vdW  Elec       q    Type
REMARK                         _______ _______ _______ _____ _____    ______ ____
ROOT
ATOM      1  C   UNL     1       5.827   6.959  17.664  0.00  0.00    +0.000 C 
ENDROOT
BRANCH   1   2
ATOM      2  C   UNL     1       5.596   5.464  17.472  0.00  0.00    +0.000 C 
ATOM      3  C   UNL     1       6.534   4.540  18.323  0.00  0.00    +0.000 C 
ATOM      4  O   UNL     1       7.751   4.466  18.255  0.00  0.00    +0.000 OA
ATOM      5  N   UNL     1       5.733   3.771  19.155  0.00  0.00    +0.000 N 
ATOM      6  C   UNL     1       4.391   4.060  18.972  0.00  0.00    +0.000 A 
ATOM      7  C   UNL     1       3.322   3.487  19.629  0.00  0.00    +0.000 A 
ATOM      8  C   UNL     1       2.048   3.971  19.325  0.00  0.00    +0.000 A 
ATOM      9  C   UNL     1       1.878   5.000  18.381  0.00  0.00    +0.000 A 
ATOM     10  C   UNL     1       2.976   5.549  17.710  0.00  0.00    +0.000 A 
ATOM     11  C   UNL     1       4.239   5.061  18.013  0.00  0.00    +0.000 A 
ATOM     12  H   UNL     1       6.102   3.070  19.781  0.00  0.00    +0.000 HD
BRANCH   2  13
ATOM     13  O   UNL     1       5.656   5.107  16.097  0.00  0.00    +0.000 OA
ATOM     14  H   UNL     1       6.061   4.217  16.059  0.00  0.00    +0.000 HD
ENDBRANCH   2  13
ENDBRANCH   1   2
BRANCH   1  16
ATOM     15  O   UNL     1       7.796   6.714  16.333  0.00  0.00    +0.000 OA
ATOM     16  C   UNL     1       7.169   7.409  17.134  0.00  0.00    +0.000 C 
BRANCH  16  17
ATOM     17  C   UNL     1       7.758   8.707  17.552  0.00  0.00    +0.000 C 
ATOM     18  C   UNL     1       8.566   8.862  18.610  0.00  0.00    +0.000 C 
BRANCH  18  19
ATOM     19  C   UNL     1       9.102  10.174  18.952  0.00  0.00    +0.000 A 
ATOM     20  C   UNL     1       9.515  10.465  20.271  0.00  0.00    +0.000 A 
ATOM     21  C   UNL     1      10.028  11.725  20.584  0.00  0.00    +0.000 A 
ATOM     22  C   UNL     1      10.115  12.656  19.576  0.00  0.00    +0.000 A 
ATOM     23  C   UNL     1       9.714  12.370  18.290  0.00  0.00    +0.000 A 
ATOM     24  C   UNL     1       9.203  11.141  17.943  0.00  0.00    +0.000 A 
ATOM     25  O   UNL     1       9.878  13.416  17.442  0.00  0.00    +0.000 OA
ATOM     26  C   UNL     1      10.423  14.404  18.342  0.00  0.00    +0.000 C 
ATOM     27  O   UNL     1      10.586  13.925  19.693  0.00  0.00    +0.000 OA
ENDBRANCH  18  19
ENDBRANCH  16  17
ENDBRANCH   1  16
TORSDOF 5
ENDMDL
MODEL 6
REMARK VINA RESULT:      -8.1      4.504      5.973
REMARK  Name = 
REMARK  5 active torsions:
REMARK  status: ('A' for Active; 'I' for Inactive)
REMARK    1  A    between atoms: C_2  and  C_3
REMARK    2  A    between atoms: C_2  and  C_14
REMARK    3  A    between atoms: C_4  and  C_5
REMARK    4  A    between atoms: C_14  and  C_15
REMARK    5  A    between atoms: C_15  and  O_16
REMARK                            x       y       z     vdW  Elec       q    Type
REMARK                         _______ _______ _______ _____ _____    ______ ____
ROOT
ATOM      1  C   UNL     1       6.328   6.090  18.054  0.00  0.00    +0.000 C 
ENDROOT
BRANCH   1   2
ATOM      2  C   UNL     1       5.128   5.512  17.312  0.00  0.00    +0.000 C 
ATOM      3  C   UNL     1       5.326   4.052  16.777  0.00  0.00    +0.000 C 
ATOM      4  O   UNL     1       6.146   3.675  15.955  0.00  0.00    +0.000 OA
ATOM      5  N   UNL     1       4.365   3.246  17.373  0.00  0.00    +0.000 N 
ATOM      6  C   UNL     1       3.558   3.975  18.231  0.00  0.00    +0.000 A 
ATOM      7  C   UNL     1       2.507   3.497  18.985  0.00  0.00    +0.000 A 
ATOM      8  C   UNL     1       1.859   4.402  19.828  0.00  0.00    +0.000 A 
ATOM      9  C   UNL     1       2.272   5.745  19.892  0.00  0.00    +0.000 A 
ATOM     10  C   UNL     1       3.326   6.211  19.099  0.00  0.00    +0.000 A 
ATOM     11  C   UNL     1       3.963   5.309  18.260  0.00  0.00    +0.000 A 
ATOM     12  H   UNL     1       4.265   2.264  17.165  0.00  0.00    +0.000 HD
BRANCH   2  13
ATOM     13  O   UNL     1       4.708   6.375  16.262  0.00  0.00    +0.000 OA
ATOM     14  H   UNL     1       5.174   6.079  15.456  0.00  0.00    +0.000 HD
ENDBRANCH   2  13
ENDBRANCH   1   2
BRANCH   1  16
ATOM     15  O   UNL     1       7.687   6.366  16.108  0.00  0.00    +0.000 OA
ATOM     16  C   UNL     1       7.249   6.869  17.144  0.00  0.00    +0.000 C 
BRANCH  16  17
ATOM     17  C   UNL     1       7.637   8.266  17.467  0.00  0.00    +0.000 C 
ATOM     18  C   UNL     1       8.506   8.604  18.431  0.00  0.00    +0.000 C 
BRANCH  18  19
ATOM     19  C   UNL     1       8.832  10.002  18.683  0.00  0.00    +0.000 A 
ATOM     20  C   UNL     1       8.519  11.000  17.732  0.00  0.00    +0.000 A 
ATOM     21  C   UNL     1       8.835  12.336  17.987  0.00  0.00    +0.000 A 
ATOM     22  C   UNL     1       9.452  12.637  19.178  0.00  0.00    +0.000 A 
ATOM     23  C   UNL     1       9.754  11.664  20.104  0.00  0.00    +0.000 A 
ATOM     24  C   UNL     1       9.459  10.338  19.889  0.00  0.00    +0.000 A 
ATOM     25  O   UNL     1      10.360  12.160  21.211  0.00  0.00    +0.000 OA
ATOM     26  C   UNL     1      10.415  13.564  20.878  0.00  0.00    +0.000 C 
ATOM     27  O   UNL     1       9.830  13.874  19.596  0.00  0.00    +0.000 OA
ENDBRANCH  18  19
ENDBRANCH  16  17
ENDBRANCH   1  16
TORSDOF 5
ENDMDL
MODEL 7
REMARK VINA RESULT:      -8.1      3.233      6.729
REMARK  Name = 
REMARK  5 active torsions:
REMARK  status: ('A' for Active; 'I' for Inactive)
REMARK    1  A    between atoms: C_2  and  C_3
REMARK    2  A    between atoms: C_2  and  C_14
REMARK    3  A    between atoms: C_4  and  C_5
REMARK    4  A    between atoms: C_14  and  C_15
REMARK    5  A    between atoms: C_15  and  O_16
REMARK                            x       y       z     vdW  Elec       q    Type
REMARK                         _______ _______ _______ _____ _____    ______ ____
ROOT
ATOM      1  C   UNL     1       2.227   1.976  19.203  0.00  0.00    +0.000 C 
ENDROOT
BRANCH   1   2
ATOM      2  C   UNL     1       1.409   3.083  19.859  0.00  0.00    +0.000 C 
ATOM      3  C   UNL     1       1.742   3.339  21.370  0.00  0.00    +0.000 C 
ATOM      4  O   UNL     1       1.612   2.552  22.294  0.00  0.00    +0.000 OA
ATOM      5  N   UNL     1       2.178   4.651  21.494  0.00  0.00    +0.000 N 
ATOM      6  C   UNL     1       2.180   5.299  20.270  0.00  0.00    +0.000 A 
ATOM      7  C   UNL     1       2.552   6.604  20.024  0.00  0.00    +0.000 A 
ATOM      8  C   UNL     1       2.528   7.038  18.698  0.00  0.00    +0.000 A 
ATOM      9  C   UNL     1       2.134   6.168  17.665  0.00  0.00    +0.000 A 
ATOM     10  C   UNL     1       1.738   4.855  17.942  0.00  0.00    +0.000 A 
ATOM     11  C   UNL     1       1.759   4.431  19.262  0.00  0.00    +0.000 A 
ATOM     12  H   UNL     1       2.423   5.068  22.379  0.00  0.00    +0.000 HD
BRANCH   2  13
ATOM     13  O   UNL     1       0.014   2.863  19.686  0.00  0.00    +0.000 OA
ATOM     14  H   UNL     1      -0.089   1.926  19.426  0.00  0.00    +0.000 HD
ENDBRANCH   2  13
ENDBRANCH   1   2
BRANCH   1  16
ATOM     15  O   UNL     1       4.346   2.020  20.307  0.00  0.00    +0.000 OA
ATOM     16  C   UNL     1       3.713   2.239  19.272  0.00  0.00    +0.000 C 
BRANCH  16  17
ATOM     17  C   UNL     1       4.453   2.753  18.091  0.00  0.00    +0.000 C 
ATOM     18  C   UNL     1       5.119   3.916  18.064  0.00  0.00    +0.000 C 
BRANCH  18  19
ATOM     19  C   UNL     1       5.819   4.346  16.861  0.00  0.00    +0.000 A 
ATOM     20  C   UNL     1       6.692   5.457  16.891  0.00  0.00    +0.000 A 
ATOM     21  C   UNL     1       7.358   5.857  15.731  0.00  0.00    +0.000 A 
ATOM     22  C   UNL     1       7.136   5.142  14.579  0.00  0.00    +0.000 A 
ATOM     23  C   UNL     1       6.285   4.059  14.551  0.00  0.00    +0.000 A 
ATOM     24  C   UNL     1       5.612   3.634  15.673  0.00  0.00    +0.000 A 
ATOM     25  O   UNL     1       6.199   3.487  13.325  0.00  0.00    +0.000 OA
ATOM     26  C   UNL     1       7.088   4.339  12.571  0.00  0.00    +0.000 C 
ATOM     27  O   UNL     1       7.694   5.382  13.362  0.00  0.00    +0.000 OA
ENDBRANCH  18  19
ENDBRANCH  16  17
ENDBRANCH   1  16
TORSDOF 5
ENDMDL
MODEL 8
REMARK VINA RESULT:      -8.0      2.079      3.868
REMARK  Name = 
REMARK  5 active torsions:
REMARK  status: ('A' for Active; 'I' for Inactive)
REMARK    1  A    between atoms: C_2  and  C_3
REMARK    2  A    between atoms: C_2  and  C_14
REMARK    3  A    between atoms: C_4  and  C_5
REMARK    4  A    between atoms: C_14  and  C_15
REMARK    5  A    between atoms: C_15  and  O_16
REMARK                            x       y       z     vdW  Elec       q    Type
REMARK                         _______ _______ _______ _____ _____    ______ ____
ROOT
ATOM      1  C   UNL     1       3.314   3.063  20.750  0.00  0.00    +0.000 C 
ENDROOT
BRANCH   1   2
ATOM      2  C   UNL     1       3.958   2.731  19.409  0.00  0.00    +0.000 C 
ATOM      3  C   UNL     1       2.949   2.339  18.274  0.00  0.00    +0.000 C 
ATOM      4  O   UNL     1       2.191   1.382  18.264  0.00  0.00    +0.000 OA
ATOM      5  N   UNL     1       3.094   3.254  17.240  0.00  0.00    +0.000 N 
ATOM      6  C   UNL     1       4.062   4.200  17.536  0.00  0.00    +0.000 A 
ATOM      7  C   UNL     1       4.463   5.251  16.740  0.00  0.00    +0.000 A 
ATOM      8  C   UNL     1       5.423   6.121  17.262  0.00  0.00    +0.000 A 
ATOM      9  C   UNL     1       5.952   5.916  18.549  0.00  0.00    +0.000 A 
ATOM     10  C   UNL     1       5.545   4.828  19.329  0.00  0.00    +0.000 A 
ATOM     11  C   UNL     1       4.596   3.965  18.803  0.00  0.00    +0.000 A 
ATOM     12  H   UNL     1       2.575   3.196  16.377  0.00  0.00    +0.000 HD
BRANCH   2  13
ATOM     13  O   UNL     1       4.960   1.732  19.552  0.00  0.00    +0.000 OA
ATOM     14  H   UNL     1       5.722   2.023  19.013  0.00  0.00    +0.000 HD
ENDBRANCH   2  13
ENDBRANCH   1   2
BRANCH   1  16
ATOM     15  O   UNL     1       0.938   2.885  20.930  0.00  0.00    +0.000 OA
ATOM     16  C   UNL     1       1.901   3.578  20.600  0.00  0.00    +0.000 C 
BRANCH  16  17
ATOM     17  C   UNL     1       1.639   4.939  20.066  0.00  0.00    +0.000 C 
ATOM     18  C   UNL     1       2.236   6.053  20.513  0.00  0.00    +0.000 C 
BRANCH  18  19
ATOM     19  C   UNL     1       1.920   7.352  19.933  0.00  0.00    +0.000 A 
ATOM     20  C   UNL     1       2.254   7.645  18.591  0.00  0.00    +0.000 A 
ATOM     21  C   UNL     1       1.944   8.893  18.047  0.00  0.00    +0.000 A 
ATOM     22  C   UNL     1       1.312   9.810  18.853  0.00  0.00    +0.000 A 
ATOM     23  C   UNL     1       0.986   9.523  20.160  0.00  0.00    +0.000 A 
ATOM     24  C   UNL     1       1.275   8.305  20.731  0.00  0.00    +0.000 A 
ATOM     25  O   UNL     1       0.369  10.554  20.788  0.00  0.00    +0.000 OA
ATOM     26  C   UNL     1       0.348  11.535  19.730  0.00  0.00    +0.000 C 
ATOM     27  O   UNL     1       0.934  11.066  18.498  0.00  0.00    +0.000 OA
ENDBRANCH  18  19
ENDBRANCH  16  17
ENDBRANCH   1  16
TORSDOF 5
ENDMDL
MODEL 9
REMARK VINA RESULT:      -7.9      4.455      6.149
REMARK  Name = 
REMARK  5 active torsions:
REMARK  status: ('A' for Active; 'I' for Inactive)
REMARK    1  A    between atoms: C_2  and  C_3
REMARK    2  A    between atoms: C_2  and  C_14
REMARK    3  A    between atoms: C_4  and  C_5
REMARK    4  A    between atoms: C_14  and  C_15
REMARK    5  A    between atoms: C_15  and  O_16
REMARK                            x       y       z     vdW  Elec       q    Type
REMARK                         _______ _______ _______ _____ _____    ______ ____
ROOT
ATOM      1  C   UNL     1       6.742   5.816  18.444  0.00  0.00    +0.000 C 
ENDROOT
BRANCH   1   2
ATOM      2  C   UNL     1       5.399   5.168  18.122  0.00  0.00    +0.000 C 
ATOM      3  C   UNL     1       4.870   4.176  19.215  0.00  0.00    +0.000 C 
ATOM      4  O   UNL     1       5.398   3.140  19.585  0.00  0.00    +0.000 OA
ATOM      5  N   UNL     1       3.651   4.659  19.674  0.00  0.00    +0.000 N 
ATOM      6  C   UNL     1       3.302   5.836  19.033  0.00  0.00    +0.000 A 
ATOM      7  C   UNL     1       2.163   6.585  19.240  0.00  0.00    +0.000 A 
ATOM      8  C   UNL     1       2.038   7.774  18.520  0.00  0.00    +0.000 A 
ATOM      9  C   UNL     1       3.041   8.177  17.619  0.00  0.00    +0.000 A 
ATOM     10  C   UNL     1       4.177   7.387  17.410  0.00  0.00    +0.000 A 
ATOM     11  C   UNL     1       4.293   6.205  18.124  0.00  0.00    +0.000 A 
ATOM     12  H   UNL     1       3.092   4.176  20.361  0.00  0.00    +0.000 HD
BRANCH   2  13
ATOM     13  O   UNL     1       5.423   4.539  16.847  0.00  0.00    +0.000 OA
ATOM     14  H   UNL     1       6.223   4.869  16.390  0.00  0.00    +0.000 HD
ENDBRANCH   2  13
ENDBRANCH   1   2
BRANCH   1  16
ATOM     15  O   UNL     1       7.362   6.163  16.163  0.00  0.00    +0.000 OA
ATOM     16  C   UNL     1       7.275   6.640  17.296  0.00  0.00    +0.000 C 
BRANCH  16  17
ATOM     17  C   UNL     1       7.693   8.051  17.499  0.00  0.00    +0.000 C 
ATOM     18  C   UNL     1       8.462   8.472  18.513  0.00  0.00    +0.000 C 
BRANCH  18  19
ATOM     19  C   UNL     1       8.826   9.877  18.639  0.00  0.00    +0.000 A 
ATOM     20  C   UNL     1       8.418  10.819  17.668  0.00  0.00    +0.000 A 
ATOM     21  C   UNL     1       8.772  12.163  17.801  0.00  0.00    +0.000 A 
ATOM     22  C   UNL     1       9.519  12.528  18.896  0.00  0.00    +0.000 A 
ATOM     23  C   UNL     1       9.914  11.609  19.843  0.00  0.00    +0.000 A 
ATOM     24  C   UNL     1       9.585  10.278  19.746  0.00  0.00    +0.000 A 
ATOM     25  O   UNL     1      10.642  12.163  20.844  0.00  0.00    +0.000 OA
ATOM     26  C   UNL     1      10.672  13.542  20.418  0.00  0.00    +0.000 C 
ATOM     27  O   UNL     1       9.953  13.782  19.191  0.00  0.00    +0.000 OA
ENDBRANCH  18  19
ENDBRANCH  16  17
ENDBRANCH   1  16
TORSDOF 5
ENDMDL
