MODEL 1
REMARK VINA RESULT:      -8.0      0.000      0.000
REMARK  Name = 
REMARK  5 active torsions:
REMARK  status: ('A' for Active; 'I' for Inactive)
REMARK    1  A    between atoms: C_1  and  C_2
REMARK    2  A    between atoms: C_4  and  C_5
REMARK    3  A    between atoms: C_10  and  N_11
REMARK    4  A    between atoms: C_12  and  C_14
REMARK    5  A    between atoms: C_19  and  O_20
REMARK                            x       y       z     vdW  Elec       q    Type
REMARK                         _______ _______ _______ _____ _____    ______ ____
ROOT
ATOM      1  C   UNL     1       7.684   4.780  17.981  0.00  0.00    +0.000 C 
ATOM      2  C   UNL     1       6.919   4.616  16.695  0.00  0.00    +0.000 A 
ATOM      3  C   UNL     1       7.597   4.941  15.497  0.00  0.00    +0.000 A 
ATOM      4  C   UNL     1       6.982   4.783  14.249  0.00  0.00    +0.000 A 
ATOM      5  C   UNL     1       5.683   4.299  14.189  0.00  0.00    +0.000 A 
ATOM      6  C   UNL     1       5.010   3.961  15.364  0.00  0.00    +0.000 A 
ATOM      7  C   UNL     1       5.599   4.112  16.627  0.00  0.00    +0.000 A 
ENDROOT
BRANCH   4   8
ATOM      8  C   UNL     1       7.713   5.128  12.999  0.00  0.00    +0.000 C 
ATOM      9  N   UNL     1       8.692   5.979  12.967  0.00  0.00    +0.000 NA
ATOM     10  N   UNL     1       7.378   4.534  11.820  0.00  0.00    +0.000 N 
ATOM     11  H   UNL     1       8.828   6.406  13.884  0.00  0.00    +0.000 HD
ATOM     12  H   UNL     1       7.086   3.564  11.874  0.00  0.00    +0.000 HD
ATOM     13  H   UNL     1       8.098   4.688  11.122  0.00  0.00    +0.000 HD
ENDBRANCH   4   8
BRANCH   7  14
ATOM     14  N   UNL     1       4.901   3.749  17.808  0.00  0.00    +0.000 N 
ATOM     15  C   UNL     1       4.095   4.567  18.588  0.00  0.00    +0.000 C 
ATOM     16  O   UNL     1       4.029   5.790  18.481  0.00  0.00    +0.000 OA
ATOM     17  H   UNL     1       5.013   2.797  18.151  0.00  0.00    +0.000 HD
BRANCH  15  18
ATOM     18  C   UNL     1       3.256   3.914  19.648  0.00  0.00    +0.000 A 
ATOM     19  C   UNL     1       1.969   4.447  19.863  0.00  0.00    +0.000 A 
ATOM     20  C   UNL     1       1.090   3.872  20.784  0.00  0.00    +0.000 A 
ATOM     21  C   UNL     1       1.491   2.761  21.519  0.00  0.00    +0.000 A 
ATOM     22  C   UNL     1       2.769   2.228  21.334  0.00  0.00    +0.000 A 
ATOM     23  C   UNL     1       3.642   2.793  20.395  0.00  0.00    +0.000 A 
BRANCH  23  24
ATOM     24  O   UNL     1       4.872   2.220  20.209  0.00  0.00    +0.000 OA
ATOM     25  H   UNL     1       5.254   2.571  19.384  0.00  0.00    +0.000 HD
ENDBRANCH  23  24
ENDBRANCH  15  18
ENDBRANCH   7  14
TORSDOF 4
ENDMDL
MODEL 2
REMARK VINA RESULT:      -7.7      2.569      7.462
REMARK  Name = 
REMARK  5 active torsions:
REMARK  status: ('A' for Active; 'I' for Inactive)
REMARK    1  A    between atoms: C_1  and  C_2
REMARK    2  A    between atoms: C_4  and  C_5
REMARK    3  A    between atoms: C_10  and  N_11
REMARK    4  A    between atoms: C_12  and  C_14
REMARK    5  A    between atoms: C_19  and  O_20
REMARK                            x       y       z     vdW  Elec       q    Type
REMARK                         _______ _______ _______ _____ _____    ______ ____
ROOT
ATOM      1  C   UNL     1       3.773   6.246  17.815  0.00  0.00    +0.000 C 
ATOM      2  C   UNL     1       3.574   4.790  18.141  0.00  0.00    +0.000 A 
ATOM      3  C   UNL     1       2.929   4.488  19.363  0.00  0.00    +0.000 A 
ATOM      4  C   UNL     1       2.663   3.164  19.735  0.00  0.00    +0.000 A 
ATOM      5  C   UNL     1       3.042   2.132  18.888  0.00  0.00    +0.000 A 
ATOM      6  C   UNL     1       3.666   2.420  17.673  0.00  0.00    +0.000 A 
ATOM      7  C   UNL     1       3.947   3.735  17.278  0.00  0.00    +0.000 A 
ENDROOT
BRANCH   4   8
ATOM      8  C   UNL     1       1.980   2.865  21.024  0.00  0.00    +0.000 C 
ATOM      9  N   UNL     1       2.624   2.557  22.107  0.00  0.00    +0.000 NA
ATOM     10  N   UNL     1       0.622   2.922  21.112  0.00  0.00    +0.000 N 
ATOM     11  H   UNL     1       3.625   2.487  21.924  0.00  0.00    +0.000 HD
ATOM     12  H   UNL     1       0.167   3.640  20.560  0.00  0.00    +0.000 HD
ATOM     13  H   UNL     1       0.324   2.925  22.082  0.00  0.00    +0.000 HD
ENDBRANCH   4   8
BRANCH   7  14
ATOM     14  N   UNL     1       4.570   4.006  16.031  0.00  0.00    +0.000 N 
ATOM     15  C   UNL     1       5.931   4.125  15.785  0.00  0.00    +0.000 C 
ATOM     16  O   UNL     1       6.794   4.216  16.656  0.00  0.00    +0.000 OA
ATOM     17  H   UNL     1       3.969   4.158  15.224  0.00  0.00    +0.000 HD
BRANCH  15  18
ATOM     18  C   UNL     1       6.381   4.164  14.353  0.00  0.00    +0.000 A 
ATOM     19  C   UNL     1       5.689   3.339  13.444  0.00  0.00    +0.000 A 
ATOM     20  C   UNL     1       5.992   3.349  12.080  0.00  0.00    +0.000 A 
ATOM     21  C   UNL     1       7.007   4.173  11.605  0.00  0.00    +0.000 A 
ATOM     22  C   UNL     1       7.717   4.985  12.492  0.00  0.00    +0.000 A 
ATOM     23  C   UNL     1       7.398   4.990  13.857  0.00  0.00    +0.000 A 
BRANCH  23  24
ATOM     24  O   UNL     1       8.087   5.829  14.693  0.00  0.00    +0.000 OA
ATOM     25  H   UNL     1       8.179   5.392  15.559  0.00  0.00    +0.000 HD
ENDBRANCH  23  24
ENDBRANCH  15  18
ENDBRANCH   7  14
TORSDOF 4
ENDMDL
MODEL 3
REMARK VINA RESULT:      -7.6      1.054      1.087
REMARK  Name = 
REMARK  5 active torsions:
REMARK  status: ('A' for Active; 'I' for Inactive)
REMARK    1  A    between atoms: C_1  and  C_2
REMARK    2  A    between atoms: C_4  and  C_5
REMARK    3  A    between atoms: C_10  and  N_11
REMARK    4  A    between atoms: C_12  and  C_14
REMARK    5  A    between atoms: C_19  and  O_20
REMARK                            x       y       z     vdW  Elec       q    Type
REMARK                         _______ _______ _______ _____ _____    ______ ____
ROOT
ATOM      1  C   UNL     1       7.418   5.083  17.968  0.00  0.00    +0.000 C 
ATOM      2  C   UNL     1       6.776   4.776  16.641  0.00  0.00    +0.000 A 
ATOM      3  C   UNL     1       7.515   5.099  15.479  0.00  0.00    +0.000 A 
ATOM      4  C   UNL     1       7.019   4.814  14.201  0.00  0.00    +0.000 A 
ATOM      5  C   UNL     1       5.779   4.204  14.074  0.00  0.00    +0.000 A 
ATOM      6  C   UNL     1       5.048   3.867  15.215  0.00  0.00    +0.000 A 
ATOM      7  C   UNL     1       5.518   4.144  16.506  0.00  0.00    +0.000 A 
ENDROOT
BRANCH   4   8
ATOM      8  C   UNL     1       7.813   5.160  12.989  0.00  0.00    +0.000 C 
ATOM      9  N   UNL     1       8.851   5.937  13.026  0.00  0.00    +0.000 NA
ATOM     10  N   UNL     1       7.473   4.646  11.775  0.00  0.00    +0.000 N 
ATOM     11  H   UNL     1       8.988   6.312  13.965  0.00  0.00    +0.000 HD
ATOM     12  H   UNL     1       7.109   3.699  11.775  0.00  0.00    +0.000 HD
ATOM     13  H   UNL     1       8.224   4.778  11.105  0.00  0.00    +0.000 HD
ENDBRANCH   4   8
BRANCH   7  14
ATOM     14  N   UNL     1       4.765   3.779  17.652  0.00  0.00    +0.000 N 
ATOM     15  C   UNL     1       3.709   4.482  18.216  0.00  0.00    +0.000 C 
ATOM     16  O   UNL     1       3.400   5.635  17.922  0.00  0.00    +0.000 OA
ATOM     17  H   UNL     1       5.030   2.927  18.143  0.00  0.00    +0.000 HD
BRANCH  15  18
ATOM     18  C   UNL     1       2.895   3.791  19.273  0.00  0.00    +0.000 A 
ATOM     19  C   UNL     1       2.782   4.440  20.518  0.00  0.00    +0.000 A 
ATOM     20  C   UNL     1       1.998   3.907  21.545  0.00  0.00    +0.000 A 
ATOM     21  C   UNL     1       1.326   2.705  21.347  0.00  0.00    +0.000 A 
ATOM     22  C   UNL     1       1.440   2.037  20.126  0.00  0.00    +0.000 A 
ATOM     23  C   UNL     1       2.210   2.583  19.090  0.00  0.00    +0.000 A 
BRANCH  23  24
ATOM     24  O   UNL     1       2.266   1.922  17.891  0.00  0.00    +0.000 OA
ATOM     25  H   UNL     1       1.358   1.684  17.629  0.00  0.00    +0.000 HD
ENDBRANCH  23  24
ENDBRANCH  15  18
ENDBRANCH   7  14
TORSDOF 4
ENDMDL
MODEL 4
REMARK VINA RESULT:      -7.4      1.072      1.072
REMARK  Name = 
REMARK  5 active torsions:
REMARK  status: ('A' for Active; 'I' for Inactive)
REMARK    1  A    between atoms: C_1  and  C_2
REMARK    2  A    between atoms: C_4  and  C_5
REMARK    3  A    between atoms: C_10  and  N_11
REMARK    4  A    between atoms: C_12  and  C_14
REMARK    5  A    between atoms: C_19  and  O_20
REMARK                            x       y       z     vdW  Elec       q    Type
REMARK                         _______ _______ _______ _____ _____    ______ ____
ROOT
ATOM      1  C   UNL     1       6.493   6.575  17.676  0.00  0.00    +0.000 C 
ATOM      2  C   UNL     1       6.248   5.621  16.537  0.00  0.00    +0.000 A 
ATOM      3  C   UNL     1       7.030   5.797  15.372  0.00  0.00    +0.000 A 
ATOM      4  C   UNL     1       6.902   4.934  14.275  0.00  0.00    +0.000 A 
ATOM      5  C   UNL     1       5.990   3.890  14.336  0.00  0.00    +0.000 A 
ATOM      6  C   UNL     1       5.224   3.699  15.487  0.00  0.00    +0.000 A 
ATOM      7  C   UNL     1       5.329   4.549  16.597  0.00  0.00    +0.000 A 
ENDROOT
BRANCH   4   8
ATOM      8  C   UNL     1       7.736   5.133  13.058  0.00  0.00    +0.000 C 
ATOM      9  N   UNL     1       8.757   5.933  13.027  0.00  0.00    +0.000 NA
ATOM     10  N   UNL     1       7.455   4.453  11.912  0.00  0.00    +0.000 N 
ATOM     11  H   UNL     1       8.851   6.433  13.911  0.00  0.00    +0.000 HD
ATOM     12  H   UNL     1       7.109   3.507  12.027  0.00  0.00    +0.000 HD
ATOM     13  H   UNL     1       8.228   4.512  11.259  0.00  0.00    +0.000 HD
ENDBRANCH   4   8
BRANCH   7  14
ATOM     14  N   UNL     1       4.550   4.327  17.763  0.00  0.00    +0.000 N 
ATOM     15  C   UNL     1       3.313   3.701  17.835  0.00  0.00    +0.000 C 
ATOM     16  O   UNL     1       2.611   3.425  16.864  0.00  0.00    +0.000 OA
ATOM     17  H   UNL     1       4.908   4.682  18.647  0.00  0.00    +0.000 HD
BRANCH  15  18
ATOM     18  C   UNL     1       2.786   3.351  19.197  0.00  0.00    +0.000 A 
ATOM     19  C   UNL     1       1.443   3.682  19.466  0.00  0.00    +0.000 A 
ATOM     20  C   UNL     1       0.843   3.344  20.682  0.00  0.00    +0.000 A 
ATOM     21  C   UNL     1       1.583   2.683  21.657  0.00  0.00    +0.000 A 
ATOM     22  C   UNL     1       2.921   2.361  21.416  0.00  0.00    +0.000 A 
ATOM     23  C   UNL     1       3.515   2.683  20.188  0.00  0.00    +0.000 A 
BRANCH  23  24
ATOM     24  O   UNL     1       4.817   2.316  19.970  0.00  0.00    +0.000 OA
ATOM     25  H   UNL     1       5.143   2.792  19.184  0.00  0.00    +0.000 HD
ENDBRANCH  23  24
ENDBRANCH  15  18
ENDBRANCH   7  14
TORSDOF 4
ENDMDL
MODEL 5
REMARK VINA RESULT:      -7.4      1.210      1.697
REMARK  Name = 
REMARK  5 active torsions:
REMARK  status: ('A' for Active; 'I' for Inactive)
REMARK    1  A    between atoms: C_1  and  C_2
REMARK    2  A    between atoms: C_4  and  C_5
REMARK    3  A    between atoms: C_10  and  N_11
REMARK    4  A    between atoms: C_12  and  C_14
REMARK    5  A    between atoms: C_19  and  O_20
REMARK                            x       y       z     vdW  Elec       q    Type
REMARK                         _______ _______ _______ _____ _____    ______ ____
ROOT
ATOM      1  C   UNL     1       7.362   5.063  18.001  0.00  0.00    +0.000 C 
ATOM      2  C   UNL     1       6.719   4.796  16.666  0.00  0.00    +0.000 A 
ATOM      3  C   UNL     1       7.489   5.080  15.514  0.00  0.00    +0.000 A 
ATOM      4  C   UNL     1       6.992   4.828  14.229  0.00  0.00    +0.000 A 
ATOM      5  C   UNL     1       5.721   4.288  14.087  0.00  0.00    +0.000 A 
ATOM      6  C   UNL     1       4.960   3.989  15.217  0.00  0.00    +0.000 A 
ATOM      7  C   UNL     1       5.430   4.236  16.515  0.00  0.00    +0.000 A 
ENDROOT
BRANCH   4   8
ATOM      8  C   UNL     1       7.818   5.131  13.028  0.00  0.00    +0.000 C 
ATOM      9  N   UNL     1       7.552   4.654  11.852  0.00  0.00    +0.000 NA
ATOM     10  N   UNL     1       8.899   5.953  13.127  0.00  0.00    +0.000 N 
ATOM     11  H   UNL     1       6.761   4.010  11.893  0.00  0.00    +0.000 HD
ATOM     12  H   UNL     1       8.816   6.726  13.778  0.00  0.00    +0.000 HD
ATOM     13  H   UNL     1       9.214   6.246  12.208  0.00  0.00    +0.000 HD
ENDBRANCH   4   8
BRANCH   7  14
ATOM     14  N   UNL     1       4.644   3.910  17.651  0.00  0.00    +0.000 N 
ATOM     15  C   UNL     1       3.523   4.587  18.113  0.00  0.00    +0.000 C 
ATOM     16  O   UNL     1       3.163   5.694  17.719  0.00  0.00    +0.000 OA
ATOM     17  H   UNL     1       4.933   3.115  18.216  0.00  0.00    +0.000 HD
BRANCH  15  18
ATOM     18  C   UNL     1       2.701   3.926  19.182  0.00  0.00    +0.000 A 
ATOM     19  C   UNL     1       3.293   3.794  20.454  0.00  0.00    +0.000 A 
ATOM     20  C   UNL     1       2.588   3.248  21.529  0.00  0.00    +0.000 A 
ATOM     21  C   UNL     1       1.281   2.810  21.346  0.00  0.00    +0.000 A 
ATOM     22  C   UNL     1       0.681   2.916  20.089  0.00  0.00    +0.000 A 
ATOM     23  C   UNL     1       1.383   3.482  19.016  0.00  0.00    +0.000 A 
BRANCH  23  24
ATOM     24  O   UNL     1       0.750   3.608  17.808  0.00  0.00    +0.000 OA
ATOM     25  H   UNL     1       0.181   4.400  17.840  0.00  0.00    +0.000 HD
ENDBRANCH  23  24
ENDBRANCH  15  18
ENDBRANCH   7  14
TORSDOF 4
ENDMDL
MODEL 6
REMARK VINA RESULT:      -7.3      1.208      1.584
REMARK  Name = 
REMARK  5 active torsions:
REMARK  status: ('A' for Active; 'I' for Inactive)
REMARK    1  A    between atoms: C_1  and  C_2
REMARK    2  A    between atoms: C_4  and  C_5
REMARK    3  A    between atoms: C_10  and  N_11
REMARK    4  A    between atoms: C_12  and  C_14
REMARK    5  A    between atoms: C_19  and  O_20
REMARK                            x       y       z     vdW  Elec       q    Type
REMARK                         _______ _______ _______ _____ _____    ______ ____
ROOT
ATOM      1  C   UNL     1       7.404   5.049  17.919  0.00  0.00    +0.000 C 
ATOM      2  C   UNL     1       6.740   4.804  16.590  0.00  0.00    +0.000 A 
ATOM      3  C   UNL     1       7.505   5.073  15.431  0.00  0.00    +0.000 A 
ATOM      4  C   UNL     1       6.988   4.838  14.150  0.00  0.00    +0.000 A 
ATOM      5  C   UNL     1       5.702   4.334  14.020  0.00  0.00    +0.000 A 
ATOM      6  C   UNL     1       4.944   4.051  15.157  0.00  0.00    +0.000 A 
ATOM      7  C   UNL     1       5.435   4.280  16.450  0.00  0.00    +0.000 A 
ENDROOT
BRANCH   4   8
ATOM      8  C   UNL     1       7.809   5.124  12.942  0.00  0.00    +0.000 C 
ATOM      9  N   UNL     1       7.549   4.615  11.777  0.00  0.00    +0.000 NA
ATOM     10  N   UNL     1       8.879   5.963  13.020  0.00  0.00    +0.000 N 
ATOM     11  H   UNL     1       6.767   3.962  11.835  0.00  0.00    +0.000 HD
ATOM     12  H   UNL     1       8.786   6.750  13.652  0.00  0.00    +0.000 HD
ATOM     13  H   UNL     1       9.189   6.238  12.094  0.00  0.00    +0.000 HD
ENDBRANCH   4   8
BRANCH   7  14
ATOM     14  N   UNL     1       4.652   3.972  17.594  0.00  0.00    +0.000 N 
ATOM     15  C   UNL     1       3.626   4.735  18.135  0.00  0.00    +0.000 C 
ATOM     16  O   UNL     1       3.378   5.897  17.819  0.00  0.00    +0.000 OA
ATOM     17  H   UNL     1       4.869   3.116  18.101  0.00  0.00    +0.000 HD
BRANCH  15  18
ATOM     18  C   UNL     1       2.769   4.102  19.193  0.00  0.00    +0.000 A 
ATOM     19  C   UNL     1       2.383   2.763  18.986  0.00  0.00    +0.000 A 
ATOM     20  C   UNL     1       1.637   2.067  19.940  0.00  0.00    +0.000 A 
ATOM     21  C   UNL     1       1.249   2.706  21.113  0.00  0.00    +0.000 A 
ATOM     22  C   UNL     1       1.606   4.039  21.330  0.00  0.00    +0.000 A 
ATOM     23  C   UNL     1       2.372   4.730  20.381  0.00  0.00    +0.000 A 
BRANCH  23  24
ATOM     24  O   UNL     1       2.740   6.023  20.644  0.00  0.00    +0.000 OA
ATOM     25  H   UNL     1       2.128   6.618  20.173  0.00  0.00    +0.000 HD
ENDBRANCH  23  24
ENDBRANCH  15  18
ENDBRANCH   7  14
TORSDOF 4
ENDMDL
MODEL 7
REMARK VINA RESULT:      -7.2      1.059      1.278
REMARK  Name = 
REMARK  5 active torsions:
REMARK  status: ('A' for Active; 'I' for Inactive)
REMARK    1  A    between atoms: C_1  and  C_2
REMARK    2  A    between atoms: C_4  and  C_5
REMARK    3  A    between atoms: C_10  and  N_11
REMARK    4  A    between atoms: C_12  and  C_14
REMARK    5  A    between atoms: C_19  and  O_20
REMARK                            x       y       z     vdW  Elec       q    Type
REMARK                         _______ _______ _______ _____ _____    ______ ____
ROOT
ATOM      1  C   UNL     1       7.257   4.738  18.076  0.00  0.00    +0.000 C 
ATOM      2  C   UNL     1       6.570   4.706  16.736  0.00  0.00    +0.000 A 
ATOM      3  C   UNL     1       7.384   4.880  15.593  0.00  0.00    +0.000 A 
ATOM      4  C   UNL     1       6.842   4.825  14.302  0.00  0.00    +0.000 A 
ATOM      5  C   UNL     1       5.483   4.596  14.146  0.00  0.00    +0.000 A 
ATOM      6  C   UNL     1       4.673   4.408  15.267  0.00  0.00    +0.000 A 
ATOM      7  C   UNL     1       5.188   4.462  16.570  0.00  0.00    +0.000 A 
ENDROOT
BRANCH   4   8
ATOM      8  C   UNL     1       7.715   5.008  13.110  0.00  0.00    +0.000 C 
ATOM      9  N   UNL     1       7.499   4.408  11.980  0.00  0.00    +0.000 NA
ATOM     10  N   UNL     1       8.788   5.844  13.165  0.00  0.00    +0.000 N 
ATOM     11  H   UNL     1       6.709   3.766  12.058  0.00  0.00    +0.000 HD
ATOM     12  H   UNL     1       8.676   6.680  13.727  0.00  0.00    +0.000 HD
ATOM     13  H   UNL     1       9.139   6.042  12.234  0.00  0.00    +0.000 HD
ENDBRANCH   4   8
BRANCH   7  14
ATOM     14  N   UNL     1       4.349   4.253  17.696  0.00  0.00    +0.000 N 
ATOM     15  C   UNL     1       3.472   3.196  17.900  0.00  0.00    +0.000 C 
ATOM     16  O   UNL     1       3.141   2.385  17.037  0.00  0.00    +0.000 OA
ATOM     17  H   UNL     1       4.357   4.957  18.431  0.00  0.00    +0.000 HD
BRANCH  15  18
ATOM     18  C   UNL     1       2.871   3.041  19.268  0.00  0.00    +0.000 A 
ATOM     19  C   UNL     1       1.513   3.388  19.412  0.00  0.00    +0.000 A 
ATOM     20  C   UNL     1       0.848   3.222  20.629  0.00  0.00    +0.000 A 
ATOM     21  C   UNL     1       1.536   2.722  21.730  0.00  0.00    +0.000 A 
ATOM     22  C   UNL     1       2.887   2.389  21.613  0.00  0.00    +0.000 A 
ATOM     23  C   UNL     1       3.549   2.537  20.385  0.00  0.00    +0.000 A 
BRANCH  23  24
ATOM     24  O   UNL     1       4.863   2.162  20.295  0.00  0.00    +0.000 OA
ATOM     25  H   UNL     1       5.003   1.389  20.873  0.00  0.00    +0.000 HD
ENDBRANCH  23  24
ENDBRANCH  15  18
ENDBRANCH   7  14
TORSDOF 4
ENDMDL
MODEL 8
REMARK VINA RESULT:      -7.2      1.236      1.306
REMARK  Name = 
REMARK  5 active torsions:
REMARK  status: ('A' for Active; 'I' for Inactive)
REMARK    1  A    between atoms: C_1  and  C_2
REMARK    2  A    between atoms: C_4  and  C_5
REMARK    3  A    between atoms: C_10  and  N_11
REMARK    4  A    between atoms: C_12  and  C_14
REMARK    5  A    between atoms: C_19  and  O_20
REMARK                            x       y       z     vdW  Elec       q    Type
REMARK                         _______ _______ _______ _____ _____    ______ ____
ROOT
ATOM      1  C   UNL     1       4.862   6.677  16.957  0.00  0.00    +0.000 C 
ATOM      2  C   UNL     1       5.353   5.555  16.081  0.00  0.00    +0.000 A 
ATOM      3  C   UNL     1       6.229   5.901  15.025  0.00  0.00    +0.000 A 
ATOM      4  C   UNL     1       6.770   4.922  14.182  0.00  0.00    +0.000 A 
ATOM      5  C   UNL     1       6.439   3.591  14.388  0.00  0.00    +0.000 A 
ATOM      6  C   UNL     1       5.588   3.237  15.436  0.00  0.00    +0.000 A 
ATOM      7  C   UNL     1       5.029   4.196  16.293  0.00  0.00    +0.000 A 
ENDROOT
BRANCH   4   8
ATOM      8  C   UNL     1       7.692   5.305  13.077  0.00  0.00    +0.000 C 
ATOM      9  N   UNL     1       8.786   5.973  13.273  0.00  0.00    +0.000 NA
ATOM     10  N   UNL     1       7.415   4.943  11.794  0.00  0.00    +0.000 N 
ATOM     11  H   UNL     1       8.874   6.242  14.253  0.00  0.00    +0.000 HD
ATOM     12  H   UNL     1       6.972   4.040  11.669  0.00  0.00    +0.000 HD
ATOM     13  H   UNL     1       8.229   5.067  11.201  0.00  0.00    +0.000 HD
ENDBRANCH   4   8
BRANCH   7  14
ATOM     14  N   UNL     1       4.178   3.812  17.362  0.00  0.00    +0.000 N 
ATOM     15  C   UNL     1       4.523   3.682  18.700  0.00  0.00    +0.000 C 
ATOM     16  O   UNL     1       5.676   3.682  19.127  0.00  0.00    +0.000 OA
ATOM     17  H   UNL     1       3.212   3.578  17.139  0.00  0.00    +0.000 HD
BRANCH  15  18
ATOM     18  C   UNL     1       3.411   3.511  19.695  0.00  0.00    +0.000 A 
ATOM     19  C   UNL     1       2.209   4.196  19.432  0.00  0.00    +0.000 A 
ATOM     20  C   UNL     1       1.096   4.053  20.265  0.00  0.00    +0.000 A 
ATOM     21  C   UNL     1       1.174   3.234  21.387  0.00  0.00    +0.000 A 
ATOM     22  C   UNL     1       2.363   2.559  21.674  0.00  0.00    +0.000 A 
ATOM     23  C   UNL     1       3.472   2.687  20.827  0.00  0.00    +0.000 A 
BRANCH  23  24
ATOM     24  O   UNL     1       4.608   1.979  21.116  0.00  0.00    +0.000 OA
ATOM     25  H   UNL     1       5.111   2.468  21.793  0.00  0.00    +0.000 HD
ENDBRANCH  23  24
ENDBRANCH  15  18
ENDBRANCH   7  14
TORSDOF 4
ENDMDL
MODEL 9
REMARK VINA RESULT:      -7.0      1.248      1.942
REMARK  Name = 
REMARK  5 active torsions:
REMARK  status: ('A' for Active; 'I' for Inactive)
REMARK    1  A    between atoms: C_1  and  C_2
REMARK    2  A    between atoms: C_4  and  C_5
REMARK    3  A    between atoms: C_10  and  N_11
REMARK    4  A    between atoms: C_12  and  C_14
REMARK    5  A    between atoms: C_19  and  O_20
REMARK                            x       y       z     vdW  Elec       q    Type
REMARK                         _______ _______ _______ _____ _____    ______ ____
ROOT
ATOM      1  C   UNL     1       4.863   6.703  16.942  0.00  0.00    +0.000 C 
ATOM      2  C   UNL     1       5.351   5.586  16.058  0.00  0.00    +0.000 A 
ATOM      3  C   UNL     1       6.265   5.930  15.035  0.00  0.00    +0.000 A 
ATOM      4  C   UNL     1       6.806   4.955  14.187  0.00  0.00    +0.000 A 
ATOM      5  C   UNL     1       6.436   3.628  14.356  0.00  0.00    +0.000 A 
ATOM      6  C   UNL     1       5.546   3.276  15.372  0.00  0.00    +0.000 A 
ATOM      7  C   UNL     1       4.986   4.232  16.232  0.00  0.00    +0.000 A 
ENDROOT
BRANCH   4   8
ATOM      8  C   UNL     1       7.769   5.335  13.118  0.00  0.00    +0.000 C 
ATOM      9  N   UNL     1       8.869   5.981  13.357  0.00  0.00    +0.000 NA
ATOM     10  N   UNL     1       7.527   4.995  11.821  0.00  0.00    +0.000 N 
ATOM     11  H   UNL     1       8.930   6.236  14.343  0.00  0.00    +0.000 HD
ATOM     12  H   UNL     1       7.073   4.101  11.670  0.00  0.00    +0.000 HD
ATOM     13  H   UNL     1       8.362   5.112  11.257  0.00  0.00    +0.000 HD
ENDBRANCH   4   8
BRANCH   7  14
ATOM     14  N   UNL     1       4.095   3.850  17.268  0.00  0.00    +0.000 N 
ATOM     15  C   UNL     1       4.388   3.725  18.619  0.00  0.00    +0.000 C 
ATOM     16  O   UNL     1       5.522   3.730  19.092  0.00  0.00    +0.000 OA
ATOM     17  H   UNL     1       3.140   3.612  17.008  0.00  0.00    +0.000 HD
BRANCH  15  18
ATOM     18  C   UNL     1       3.238   3.554  19.570  0.00  0.00    +0.000 A 
ATOM     19  C   UNL     1       3.432   2.678  20.656  0.00  0.00    +0.000 A 
ATOM     20  C   UNL     1       2.445   2.497  21.629  0.00  0.00    +0.000 A 
ATOM     21  C   UNL     1       1.238   3.180  21.521  0.00  0.00    +0.000 A 
ATOM     22  C   UNL     1       1.019   4.040  20.442  0.00  0.00    +0.000 A 
ATOM     23  C   UNL     1       2.018   4.235  19.478  0.00  0.00    +0.000 A 
BRANCH  23  24
ATOM     24  O   UNL     1       1.785   5.117  18.456  0.00  0.00    +0.000 OA
ATOM     25  H   UNL     1       0.875   4.980  18.134  0.00  0.00    +0.000 HD
ENDBRANCH  23  24
ENDBRANCH  15  18
ENDBRANCH   7  14
TORSDOF 4
ENDMDL
