MODEL 1
REMARK VINA RESULT:      -9.7      0.000      0.000
REMARK  Name = 
REMARK  10 active torsions:
REMARK  status: ('A' for Active; 'I' for Inactive)
REMARK    1  A    between atoms: C_1  and  C_2
REMARK    2  A    between atoms: C_2  and  C_3
REMARK    3  A    between atoms: C_3  and  C_4
REMARK    4  A    between atoms: C_7  and  C_8
REMARK    5  A    between atoms: C_10  and  C_11
REMARK    6  A    between atoms: N_14  and  C_15
REMARK    7  A    between atoms: C_15  and  C_16
REMARK    8  A    between atoms: C_19  and  C_20
REMARK    9  A    between atoms: C_21  and  C_22
REMARK   10  A    between atoms: C_22  and  O_24
REMARK                            x       y       z     vdW  Elec       q    Type
REMARK                         _______ _______ _______ _____ _____    ______ ____
ROOT
ATOM      1  C   UNL     1       1.319  10.371  18.949  0.00  0.00    +0.000 A 
ATOM      2  C   UNL     1       1.168   9.639  20.126  0.00  0.00    +0.000 A 
ATOM      3  C   UNL     1       1.441   8.249  20.148  0.00  0.00    +0.000 A 
ATOM      4  C   UNL     1       1.868   7.522  19.005  0.00  0.00    +0.000 A 
ATOM      5  C   UNL     1       2.144   8.288  17.873  0.00  0.00    +0.000 A 
ATOM      6  C   UNL     1       1.871   9.682  17.843  0.00  0.00    +0.000 A 
ENDROOT
BRANCH   4   7
ATOM      7  C   UNL     1       1.989   6.031  19.098  0.00  0.00    +0.000 C 
ATOM      8  C   UNL     1       2.656   5.405  18.102  0.00  0.00    +0.000 C 
ATOM      9  C   UNL     1       1.850   4.176  17.885  0.00  0.00    +0.000 C 
ATOM     10  O   UNL     1       1.795   3.537  16.850  0.00  0.00    +0.000 OA
ATOM     11  C   UNL     1       1.360   3.777  19.194  0.00  0.00    +0.000 A 
ATOM     12  C   UNL     1       1.417   2.439  19.575  0.00  0.00    +0.000 A 
ATOM     13  C   UNL     1       1.897   2.181  20.846  0.00  0.00    +0.000 A 
ATOM     14  C   UNL     1       2.245   3.254  21.689  0.00  0.00    +0.000 A 
ATOM     15  C   UNL     1       2.076   4.606  21.294  0.00  0.00    +0.000 A 
ATOM     16  C   UNL     1       1.616   4.893  20.009  0.00  0.00    +0.000 A 
BRANCH   8  17
ATOM     17  C   UNL     1       4.090   5.179  18.534  0.00  0.00    +0.000 C 
ATOM     18  O   UNL     1       4.725   5.961  19.230  0.00  0.00    +0.000 OA
BRANCH  17  19
ATOM     19  O   UNL     1       4.594   3.974  18.184  0.00  0.00    +0.000 OA
ATOM     20  H   UNL     1       4.001   3.204  18.282  0.00  0.00    +0.000 HD
ENDBRANCH  17  19
ENDBRANCH   8  17
ENDBRANCH   4   7
BRANCH   1  21
ATOM     21  C   UNL     1       0.710  11.766  18.772  0.00  0.00    +0.000 C 
BRANCH  21  32
ATOM     22  C   UNL     1      -1.285  12.228  20.310  0.00  0.00    +0.000 A 
ATOM     23  N   UNL     1      -2.603  12.170  20.248  0.00  0.00    +0.000 NA
ATOM     24  C   UNL     1      -2.907  11.778  18.978  0.00  0.00    +0.000 A 
ATOM     25  C   UNL     1      -4.157  11.523  18.394  0.00  0.00    +0.000 A 
ATOM     26  C   UNL     1      -5.465  11.707  19.101  0.00  0.00    +0.000 C 
ATOM     27  C   UNL     1      -4.130  11.089  17.063  0.00  0.00    +0.000 A 
ATOM     28  C   UNL     1      -2.907  10.929  16.397  0.00  0.00    +0.000 A 
ATOM     29  C   UNL     1      -2.935  10.453  14.969  0.00  0.00    +0.000 C 
ATOM     30  N   UNL     1      -1.680  11.179  16.942  0.00  0.00    +0.000 NA
ATOM     31  C   UNL     1      -1.751  11.615  18.221  0.00  0.00    +0.000 A 
ATOM     32  N   UNL     1      -0.710  11.978  19.064  0.00  0.00    +0.000 N 
BRANCH  22  33
ATOM     33  C   UNL     1      -0.566  12.550  21.583  0.00  0.00    +0.000 C 
BRANCH  33  35
ATOM     34  C   UNL     1      -0.806  10.521  23.058  0.00  0.00    +0.000 C 
ATOM     35  C   UNL     1      -1.269  11.950  22.811  0.00  0.00    +0.000 C 
ENDBRANCH  33  35
ENDBRANCH  22  33
ENDBRANCH  21  32
ENDBRANCH   1  21
TORSDOF 7
ENDMDL
MODEL 2
REMARK VINA RESULT:      -9.2      4.072      9.101
REMARK  Name = 
REMARK  10 active torsions:
REMARK  status: ('A' for Active; 'I' for Inactive)
REMARK    1  A    between atoms: C_1  and  C_2
REMARK    2  A    between atoms: C_2  and  C_3
REMARK    3  A    between atoms: C_3  and  C_4
REMARK    4  A    between atoms: C_7  and  C_8
REMARK    5  A    between atoms: C_10  and  C_11
REMARK    6  A    between atoms: N_14  and  C_15
REMARK    7  A    between atoms: C_15  and  C_16
REMARK    8  A    between atoms: C_19  and  C_20
REMARK    9  A    between atoms: C_21  and  C_22
REMARK   10  A    between atoms: C_22  and  O_24
REMARK                            x       y       z     vdW  Elec       q    Type
REMARK                         _______ _______ _______ _____ _____    ______ ____
ROOT
ATOM      1  C   UNL     1       2.165   6.936  19.794  0.00  0.00    +0.000 A 
ATOM      2  C   UNL     1       1.431   7.216  20.946  0.00  0.00    +0.000 A 
ATOM      3  C   UNL     1       0.824   8.483  21.121  0.00  0.00    +0.000 A 
ATOM      4  C   UNL     1       0.923   9.532  20.167  0.00  0.00    +0.000 A 
ATOM      5  C   UNL     1       1.542   9.195  18.964  0.00  0.00    +0.000 A 
ATOM      6  C   UNL     1       2.155   7.926  18.782  0.00  0.00    +0.000 A 
ENDROOT
BRANCH   4   7
ATOM      7  C   UNL     1       0.368  10.880  20.513  0.00  0.00    +0.000 C 
ATOM      8  C   UNL     1       0.190  11.752  19.494  0.00  0.00    +0.000 C 
ATOM      9  C   UNL     1       0.615  13.046  20.087  0.00  0.00    +0.000 C 
ATOM     10  O   UNL     1       1.034  14.007  19.467  0.00  0.00    +0.000 OA
ATOM     11  C   UNL     1       0.204  13.007  21.481  0.00  0.00    +0.000 A 
ATOM     12  C   UNL     1      -0.411  14.119  22.051  0.00  0.00    +0.000 A 
ATOM     13  C   UNL     1      -1.541  13.875  22.809  0.00  0.00    +0.000 A 
ATOM     14  C   UNL     1      -1.974  12.550  23.007  0.00  0.00    +0.000 A 
ATOM     15  C   UNL     1      -1.258  11.440  22.489  0.00  0.00    +0.000 A 
ATOM     16  C   UNL     1      -0.128  11.660  21.700  0.00  0.00    +0.000 A 
BRANCH   8  17
ATOM     17  C   UNL     1      -1.251  11.685  19.033  0.00  0.00    +0.000 C 
ATOM     18  O   UNL     1      -1.875  10.642  18.890  0.00  0.00    +0.000 OA
BRANCH  17  19
ATOM     19  O   UNL     1      -1.849  12.890  18.896  0.00  0.00    +0.000 OA
ATOM     20  H   UNL     1      -1.784  13.502  19.656  0.00  0.00    +0.000 HD
ENDBRANCH  17  19
ENDBRANCH   8  17
ENDBRANCH   4   7
BRANCH   1  21
ATOM     21  C   UNL     1       3.124   5.744  19.706  0.00  0.00    +0.000 C 
BRANCH  21  32
ATOM     22  C   UNL     1       2.973   4.122  17.730  0.00  0.00    +0.000 A 
ATOM     23  N   UNL     1       3.686   3.809  16.664  0.00  0.00    +0.000 NA
ATOM     24  C   UNL     1       4.767   4.640  16.672  0.00  0.00    +0.000 A 
ATOM     25  C   UNL     1       5.856   4.702  15.789  0.00  0.00    +0.000 A 
ATOM     26  C   UNL     1       5.997   3.844  14.570  0.00  0.00    +0.000 C 
ATOM     27  C   UNL     1       6.836   5.653  16.099  0.00  0.00    +0.000 A 
ATOM     28  C   UNL     1       6.700   6.466  17.233  0.00  0.00    +0.000 A 
ATOM     29  C   UNL     1       7.787   7.466  17.524  0.00  0.00    +0.000 C 
ATOM     30  N   UNL     1       5.645   6.429  18.100  0.00  0.00    +0.000 NA
ATOM     31  C   UNL     1       4.711   5.513  17.754  0.00  0.00    +0.000 A 
ATOM     32  N   UNL     1       3.513   5.223  18.393  0.00  0.00    +0.000 N 
BRANCH  22  33
ATOM     33  C   UNL     1       1.738   3.364  18.106  0.00  0.00    +0.000 C 
BRANCH  33  35
ATOM     34  C   UNL     1       1.192   2.823  20.506  0.00  0.00    +0.000 C 
ATOM     35  C   UNL     1       1.986   2.400  19.278  0.00  0.00    +0.000 C 
ENDBRANCH  33  35
ENDBRANCH  22  33
ENDBRANCH  21  32
ENDBRANCH   1  21
TORSDOF 7
ENDMDL
MODEL 3
REMARK VINA RESULT:      -9.2      1.187      3.201
REMARK  Name = 
REMARK  10 active torsions:
REMARK  status: ('A' for Active; 'I' for Inactive)
REMARK    1  A    between atoms: C_1  and  C_2
REMARK    2  A    between atoms: C_2  and  C_3
REMARK    3  A    between atoms: C_3  and  C_4
REMARK    4  A    between atoms: C_7  and  C_8
REMARK    5  A    between atoms: C_10  and  C_11
REMARK    6  A    between atoms: N_14  and  C_15
REMARK    7  A    between atoms: C_15  and  C_16
REMARK    8  A    between atoms: C_19  and  C_20
REMARK    9  A    between atoms: C_21  and  C_22
REMARK   10  A    between atoms: C_22  and  O_24
REMARK                            x       y       z     vdW  Elec       q    Type
REMARK                         _______ _______ _______ _____ _____    ______ ____
ROOT
ATOM      1  C   UNL     1       1.387  10.039  19.022  0.00  0.00    +0.000 A 
ATOM      2  C   UNL     1       1.265   9.279  20.184  0.00  0.00    +0.000 A 
ATOM      3  C   UNL     1       1.579   7.898  20.176  0.00  0.00    +0.000 A 
ATOM      4  C   UNL     1       2.020   7.207  19.016  0.00  0.00    +0.000 A 
ATOM      5  C   UNL     1       2.268   8.003  17.899  0.00  0.00    +0.000 A 
ATOM      6  C   UNL     1       1.954   9.389  17.899  0.00  0.00    +0.000 A 
ENDROOT
BRANCH   4   7
ATOM      7  C   UNL     1       2.185   5.719  19.079  0.00  0.00    +0.000 C 
ATOM      8  C   UNL     1       2.964   5.146  18.133  0.00  0.00    +0.000 C 
ATOM      9  C   UNL     1       2.227   3.899  17.806  0.00  0.00    +0.000 C 
ATOM     10  O   UNL     1       2.292   3.292  16.753  0.00  0.00    +0.000 OA
ATOM     11  C   UNL     1       1.632   3.443  19.051  0.00  0.00    +0.000 A 
ATOM     12  C   UNL     1       1.701   2.096  19.398  0.00  0.00    +0.000 A 
ATOM     13  C   UNL     1       2.069   1.815  20.700  0.00  0.00    +0.000 A 
ATOM     14  C   UNL     1       2.299   2.871  21.603  0.00  0.00    +0.000 A 
ATOM     15  C   UNL     1       2.119   4.229  21.232  0.00  0.00    +0.000 A 
ATOM     16  C   UNL     1       1.771   4.541  19.917  0.00  0.00    +0.000 A 
BRANCH   8  17
ATOM     17  C   UNL     1       4.359   4.955  18.691  0.00  0.00    +0.000 C 
ATOM     18  O   UNL     1       4.896   5.732  19.469  0.00  0.00    +0.000 OA
BRANCH  17  19
ATOM     19  O   UNL     1       4.939   3.782  18.351  0.00  0.00    +0.000 OA
ATOM     20  H   UNL     1       5.878   3.667  18.602  0.00  0.00    +0.000 HD
ENDBRANCH  17  19
ENDBRANCH   8  17
ENDBRANCH   4   7
BRANCH   1  21
ATOM     21  C   UNL     1       0.737  11.419  18.876  0.00  0.00    +0.000 C 
BRANCH  21  32
ATOM     22  C   UNL     1      -1.751  11.151  18.335  0.00  0.00    +0.000 A 
ATOM     23  N   UNL     1      -2.904  11.626  18.768  0.00  0.00    +0.000 NA
ATOM     24  C   UNL     1      -2.606  12.458  19.807  0.00  0.00    +0.000 A 
ATOM     25  C   UNL     1      -3.457  13.248  20.594  0.00  0.00    +0.000 A 
ATOM     26  C   UNL     1      -4.948  13.271  20.454  0.00  0.00    +0.000 C 
ATOM     27  C   UNL     1      -2.829  14.033  21.569  0.00  0.00    +0.000 A 
ATOM     28  C   UNL     1      -1.434  14.004  21.709  0.00  0.00    +0.000 A 
ATOM     29  C   UNL     1      -0.810  14.873  22.768  0.00  0.00    +0.000 C 
ATOM     30  N   UNL     1      -0.588  13.236  20.961  0.00  0.00    +0.000 NA
ATOM     31  C   UNL     1      -1.236  12.478  20.046  0.00  0.00    +0.000 A 
ATOM     32  N   UNL     1      -0.696  11.575  19.141  0.00  0.00    +0.000 N 
BRANCH  22  33
ATOM     33  C   UNL     1      -1.665  10.254  17.139  0.00  0.00    +0.000 C 
BRANCH  33  35
ATOM     34  C   UNL     1      -3.085  10.070  15.065  0.00  0.00    +0.000 C 
ATOM     35  C   UNL     1      -3.052   9.904  16.578  0.00  0.00    +0.000 C 
ENDBRANCH  33  35
ENDBRANCH  22  33
ENDBRANCH  21  32
ENDBRANCH   1  21
TORSDOF 7
ENDMDL
MODEL 4
REMARK VINA RESULT:      -9.1      1.859      4.482
REMARK  Name = 
REMARK  10 active torsions:
REMARK  status: ('A' for Active; 'I' for Inactive)
REMARK    1  A    between atoms: C_1  and  C_2
REMARK    2  A    between atoms: C_2  and  C_3
REMARK    3  A    between atoms: C_3  and  C_4
REMARK    4  A    between atoms: C_7  and  C_8
REMARK    5  A    between atoms: C_10  and  C_11
REMARK    6  A    between atoms: N_14  and  C_15
REMARK    7  A    between atoms: C_15  and  C_16
REMARK    8  A    between atoms: C_19  and  C_20
REMARK    9  A    between atoms: C_21  and  C_22
REMARK   10  A    between atoms: C_22  and  O_24
REMARK                            x       y       z     vdW  Elec       q    Type
REMARK                         _______ _______ _______ _____ _____    ______ ____
ROOT
ATOM      1  C   UNL     1       1.195   9.733  19.195  0.00  0.00    +0.000 A 
ATOM      2  C   UNL     1       1.751   9.620  17.921  0.00  0.00    +0.000 A 
ATOM      3  C   UNL     1       2.541   8.495  17.579  0.00  0.00    +0.000 A 
ATOM      4  C   UNL     1       2.821   7.437  18.484  0.00  0.00    +0.000 A 
ATOM      5  C   UNL     1       2.151   7.496  19.705  0.00  0.00    +0.000 A 
ATOM      6  C   UNL     1       1.358   8.622  20.056  0.00  0.00    +0.000 A 
ENDROOT
BRANCH   4   7
ATOM      7  C   UNL     1       3.786   6.367  18.071  0.00  0.00    +0.000 C 
ATOM      8  C   UNL     1       3.610   5.139  18.611  0.00  0.00    +0.000 C 
ATOM      9  C   UNL     1       5.002   4.690  18.873  0.00  0.00    +0.000 C 
ATOM     10  O   UNL     1       5.338   3.876  19.713  0.00  0.00    +0.000 OA
ATOM     11  C   UNL     1       5.809   5.222  17.787  0.00  0.00    +0.000 A 
ATOM     12  C   UNL     1       6.753   4.409  17.166  0.00  0.00    +0.000 A 
ATOM     13  C   UNL     1       6.773   4.436  15.784  0.00  0.00    +0.000 A 
ATOM     14  C   UNL     1       5.901   5.299  15.092  0.00  0.00    +0.000 A 
ATOM     15  C   UNL     1       5.024   6.185  15.771  0.00  0.00    +0.000 A 
ATOM     16  C   UNL     1       4.968   6.159  17.164  0.00  0.00    +0.000 A 
BRANCH   8  17
ATOM     17  C   UNL     1       2.817   4.284  17.645  0.00  0.00    +0.000 C 
ATOM     18  O   UNL     1       3.273   3.310  17.062  0.00  0.00    +0.000 OA
BRANCH  17  19
ATOM     19  O   UNL     1       1.508   4.612  17.556  0.00  0.00    +0.000 OA
ATOM     20  H   UNL     1       1.089   4.971  18.363  0.00  0.00    +0.000 HD
ENDBRANCH  17  19
ENDBRANCH   8  17
ENDBRANCH   4   7
BRANCH   1  21
ATOM     21  C   UNL     1       0.647  11.059  19.731  0.00  0.00    +0.000 C 
BRANCH  21  32
ATOM     22  C   UNL     1      -1.706  11.049  18.721  0.00  0.00    +0.000 A 
ATOM     23  N   UNL     1      -2.894  11.552  19.002  0.00  0.00    +0.000 NA
ATOM     24  C   UNL     1      -2.754  12.222  20.181  0.00  0.00    +0.000 A 
ATOM     25  C   UNL     1      -3.697  12.969  20.904  0.00  0.00    +0.000 A 
ATOM     26  C   UNL     1      -5.132  13.122  20.503  0.00  0.00    +0.000 C 
ATOM     27  C   UNL     1      -3.223  13.576  22.074  0.00  0.00    +0.000 A 
ATOM     28  C   UNL     1      -1.884  13.424  22.457  0.00  0.00    +0.000 A 
ATOM     29  C   UNL     1      -1.426  14.105  23.719  0.00  0.00    +0.000 C 
ATOM     30  N   UNL     1      -0.952  12.695  21.774  0.00  0.00    +0.000 NA
ATOM     31  C   UNL     1      -1.454  12.109  20.663  0.00  0.00    +0.000 A 
ATOM     32  N   UNL     1      -0.800  11.289  19.754  0.00  0.00    +0.000 N 
BRANCH  22  33
ATOM     33  C   UNL     1      -1.442  10.306  17.448  0.00  0.00    +0.000 C 
BRANCH  33  35
ATOM     34  C   UNL     1      -2.866  10.607  15.391  0.00  0.00    +0.000 C 
ATOM     35  C   UNL     1      -2.742   9.902  16.735  0.00  0.00    +0.000 C 
ENDBRANCH  33  35
ENDBRANCH  22  33
ENDBRANCH  21  32
ENDBRANCH   1  21
TORSDOF 7
ENDMDL
MODEL 5
REMARK VINA RESULT:      -9.0      2.135      4.746
REMARK  Name = 
REMARK  10 active torsions:
REMARK  status: ('A' for Active; 'I' for Inactive)
REMARK    1  A    between atoms: C_1  and  C_2
REMARK    2  A    between atoms: C_2  and  C_3
REMARK    3  A    between atoms: C_3  and  C_4
REMARK    4  A    between atoms: C_7  and  C_8
REMARK    5  A    between atoms: C_10  and  C_11
REMARK    6  A    between atoms: N_14  and  C_15
REMARK    7  A    between atoms: C_15  and  C_16
REMARK    8  A    between atoms: C_19  and  C_20
REMARK    9  A    between atoms: C_21  and  C_22
REMARK   10  A    between atoms: C_22  and  O_24
REMARK                            x       y       z     vdW  Elec       q    Type
REMARK                         _______ _______ _______ _____ _____    ______ ____
ROOT
ATOM      1  C   UNL     1       0.955   9.106  19.756  0.00  0.00    +0.000 A 
ATOM      2  C   UNL     1       1.551   8.115  20.535  0.00  0.00    +0.000 A 
ATOM      3  C   UNL     1       2.522   7.248  19.977  0.00  0.00    +0.000 A 
ATOM      4  C   UNL     1       2.940   7.319  18.621  0.00  0.00    +0.000 A 
ATOM      5  C   UNL     1       2.440   8.397  17.892  0.00  0.00    +0.000 A 
ATOM      6  C   UNL     1       1.464   9.269  18.445  0.00  0.00    +0.000 A 
ENDROOT
BRANCH   4   7
ATOM      7  C   UNL     1       3.864   6.264  18.093  0.00  0.00    +0.000 C 
ATOM      8  C   UNL     1       3.698   5.008  18.565  0.00  0.00    +0.000 C 
ATOM      9  C   UNL     1       5.094   4.525  18.724  0.00  0.00    +0.000 C 
ATOM     10  O   UNL     1       5.460   3.656  19.494  0.00  0.00    +0.000 OA
ATOM     11  C   UNL     1       5.851   5.113  17.632  0.00  0.00    +0.000 A 
ATOM     12  C   UNL     1       6.748   4.327  16.913  0.00  0.00    +0.000 A 
ATOM     13  C   UNL     1       6.696   4.441  15.536  0.00  0.00    +0.000 A 
ATOM     14  C   UNL     1       5.804   5.356  14.945  0.00  0.00    +0.000 A 
ATOM     15  C   UNL     1       4.978   6.209  15.723  0.00  0.00    +0.000 A 
ATOM     16  C   UNL     1       4.994   6.098  17.113  0.00  0.00    +0.000 A 
BRANCH   8  17
ATOM     17  C   UNL     1       2.841   4.224  17.592  0.00  0.00    +0.000 C 
ATOM     18  O   UNL     1       3.240   3.258  16.956  0.00  0.00    +0.000 OA
BRANCH  17  19
ATOM     19  O   UNL     1       1.544   4.606  17.559  0.00  0.00    +0.000 OA
ATOM     20  H   UNL     1       1.075   4.643  18.416  0.00  0.00    +0.000 HD
ENDBRANCH  17  19
ENDBRANCH   8  17
ENDBRANCH   4   7
BRANCH   1  21
ATOM     21  C   UNL     1      -0.328   9.823  20.187  0.00  0.00    +0.000 C 
BRANCH  21  32
ATOM     22  C   UNL     1      -1.492  11.589  18.743  0.00  0.00    +0.000 A 
ATOM     23  N   UNL     1      -1.328  12.861  18.431  0.00  0.00    +0.000 NA
ATOM     24  C   UNL     1      -0.238  13.287  19.131  0.00  0.00    +0.000 A 
ATOM     25  C   UNL     1       0.390  14.541  19.134  0.00  0.00    +0.000 A 
ATOM     26  C   UNL     1      -0.097  15.726  18.357  0.00  0.00    +0.000 C 
ATOM     27  C   UNL     1       1.529  14.649  19.942  0.00  0.00    +0.000 A 
ATOM     28  C   UNL     1       1.980  13.545  20.679  0.00  0.00    +0.000 A 
ATOM     29  C   UNL     1       3.214  13.714  21.525  0.00  0.00    +0.000 C 
ATOM     30  N   UNL     1       1.379  12.319  20.698  0.00  0.00    +0.000 NA
ATOM     31  C   UNL     1       0.272  12.263  19.922  0.00  0.00    +0.000 A 
ATOM     32  N   UNL     1      -0.585  11.189  19.724  0.00  0.00    +0.000 N 
BRANCH  22  33
ATOM     33  C   UNL     1      -2.553  10.748  18.103  0.00  0.00    +0.000 C 
BRANCH  33  35
ATOM     34  C   UNL     1      -2.728  10.346  15.622  0.00  0.00    +0.000 C 
ATOM     35  C   UNL     1      -2.014   9.949  16.906  0.00  0.00    +0.000 C 
ENDBRANCH  33  35
ENDBRANCH  22  33
ENDBRANCH  21  32
ENDBRANCH   1  21
TORSDOF 7
ENDMDL
MODEL 6
REMARK VINA RESULT:      -8.9      2.262      4.877
REMARK  Name = 
REMARK  10 active torsions:
REMARK  status: ('A' for Active; 'I' for Inactive)
REMARK    1  A    between atoms: C_1  and  C_2
REMARK    2  A    between atoms: C_2  and  C_3
REMARK    3  A    between atoms: C_3  and  C_4
REMARK    4  A    between atoms: C_7  and  C_8
REMARK    5  A    between atoms: C_10  and  C_11
REMARK    6  A    between atoms: N_14  and  C_15
REMARK    7  A    between atoms: C_15  and  C_16
REMARK    8  A    between atoms: C_19  and  C_20
REMARK    9  A    between atoms: C_21  and  C_22
REMARK   10  A    between atoms: C_22  and  O_24
REMARK                            x       y       z     vdW  Elec       q    Type
REMARK                         _______ _______ _______ _____ _____    ______ ____
ROOT
ATOM      1  C   UNL     1       0.923   9.129  20.297  0.00  0.00    +0.000 A 
ATOM      2  C   UNL     1       1.454   9.281  19.016  0.00  0.00    +0.000 A 
ATOM      3  C   UNL     1       2.264   8.268  18.449  0.00  0.00    +0.000 A 
ATOM      4  C   UNL     1       2.592   7.063  19.127  0.00  0.00    +0.000 A 
ATOM      5  C   UNL     1       1.947   6.864  20.346  0.00  0.00    +0.000 A 
ATOM      6  C   UNL     1       1.134   7.877  20.922  0.00  0.00    +0.000 A 
ENDROOT
BRANCH   4   7
ATOM      7  C   UNL     1       3.574   6.123  18.497  0.00  0.00    +0.000 C 
ATOM      8  C   UNL     1       3.471   4.815  18.825  0.00  0.00    +0.000 C 
ATOM      9  C   UNL     1       4.889   4.390  18.949  0.00  0.00    +0.000 C 
ATOM     10  O   UNL     1       5.294   3.461  19.623  0.00  0.00    +0.000 OA
ATOM     11  C   UNL     1       5.623   5.134  17.939  0.00  0.00    +0.000 A 
ATOM     12  C   UNL     1       6.566   4.480  17.150  0.00  0.00    +0.000 A 
ATOM     13  C   UNL     1       6.519   4.743  15.793  0.00  0.00    +0.000 A 
ATOM     14  C   UNL     1       5.584   5.671  15.295  0.00  0.00    +0.000 A 
ATOM     15  C   UNL     1       4.708   6.389  16.151  0.00  0.00    +0.000 A 
ATOM     16  C   UNL     1       4.719   6.124  17.521  0.00  0.00    +0.000 A 
BRANCH   8  17
ATOM     17  C   UNL     1       2.665   4.101  17.760  0.00  0.00    +0.000 C 
ATOM     18  O   UNL     1       1.567   4.475  17.369  0.00  0.00    +0.000 OA
BRANCH  17  19
ATOM     19  O   UNL     1       3.306   3.062  17.178  0.00  0.00    +0.000 OA
ATOM     20  H   UNL     1       2.824   2.589  16.471  0.00  0.00    +0.000 HD
ENDBRANCH  17  19
ENDBRANCH   8  17
ENDBRANCH   4   7
BRANCH   1  21
ATOM     21  C   UNL     1       0.353  10.309  21.090  0.00  0.00    +0.000 C 
BRANCH  21  32
ATOM     22  C   UNL     1      -0.804  11.842  19.396  0.00  0.00    +0.000 A 
ATOM     23  N   UNL     1      -0.622  13.042  18.878  0.00  0.00    +0.000 NA
ATOM     24  C   UNL     1       0.489  13.553  19.482  0.00  0.00    +0.000 A 
ATOM     25  C   UNL     1       1.141  14.777  19.271  0.00  0.00    +0.000 A 
ATOM     26  C   UNL     1       0.662  15.829  18.319  0.00  0.00    +0.000 C 
ATOM     27  C   UNL     1       2.297  14.989  20.032  0.00  0.00    +0.000 A 
ATOM     28  C   UNL     1       2.741  14.010  20.932  0.00  0.00    +0.000 A 
ATOM     29  C   UNL     1       3.994  14.287  21.720  0.00  0.00    +0.000 C 
ATOM     30  N   UNL     1       2.117  12.817  21.160  0.00  0.00    +0.000 NA
ATOM     31  C   UNL     1       0.995  12.660  20.421  0.00  0.00    +0.000 A 
ATOM     32  N   UNL     1       0.113  11.587  20.415  0.00  0.00    +0.000 N 
BRANCH  22  33
ATOM     33  C   UNL     1      -1.893  10.932  18.919  0.00  0.00    +0.000 C 
BRANCH  33  35
ATOM     34  C   UNL     1      -2.764   9.934  16.775  0.00  0.00    +0.000 C 
ATOM     35  C   UNL     1      -1.521  10.224  17.606  0.00  0.00    +0.000 C 
ENDBRANCH  33  35
ENDBRANCH  22  33
ENDBRANCH  21  32
ENDBRANCH   1  21
TORSDOF 7
ENDMDL
MODEL 7
REMARK VINA RESULT:      -8.9      1.430      2.912
REMARK  Name = 
REMARK  10 active torsions:
REMARK  status: ('A' for Active; 'I' for Inactive)
REMARK    1  A    between atoms: C_1  and  C_2
REMARK    2  A    between atoms: C_2  and  C_3
REMARK    3  A    between atoms: C_3  and  C_4
REMARK    4  A    between atoms: C_7  and  C_8
REMARK    5  A    between atoms: C_10  and  C_11
REMARK    6  A    between atoms: N_14  and  C_15
REMARK    7  A    between atoms: C_15  and  C_16
REMARK    8  A    between atoms: C_19  and  C_20
REMARK    9  A    between atoms: C_21  and  C_22
REMARK   10  A    between atoms: C_22  and  O_24
REMARK                            x       y       z     vdW  Elec       q    Type
REMARK                         _______ _______ _______ _____ _____    ______ ____
ROOT
ATOM      1  C   UNL     1       0.986  10.188  19.092  0.00  0.00    +0.000 A 
ATOM      2  C   UNL     1       1.496   9.889  17.829  0.00  0.00    +0.000 A 
ATOM      3  C   UNL     1       2.220   8.691  17.611  0.00  0.00    +0.000 A 
ATOM      4  C   UNL     1       2.477   7.740  18.635  0.00  0.00    +0.000 A 
ATOM      5  C   UNL     1       1.848   7.984  19.855  0.00  0.00    +0.000 A 
ATOM      6  C   UNL     1       1.122   9.184  20.081  0.00  0.00    +0.000 A 
ENDROOT
BRANCH   4   7
ATOM      7  C   UNL     1       3.375   6.579  18.336  0.00  0.00    +0.000 C 
ATOM      8  C   UNL     1       2.996   5.370  18.809  0.00  0.00    +0.000 C 
ATOM      9  C   UNL     1       4.280   4.771  19.257  0.00  0.00    +0.000 C 
ATOM     10  O   UNL     1       4.402   3.915  20.114  0.00  0.00    +0.000 OA
ATOM     11  C   UNL     1       5.289   5.228  18.316  0.00  0.00    +0.000 A 
ATOM     12  C   UNL     1       6.225   4.327  17.815  0.00  0.00    +0.000 A 
ATOM     13  C   UNL     1       6.451   4.371  16.452  0.00  0.00    +0.000 A 
ATOM     14  C   UNL     1       5.785   5.331  15.666  0.00  0.00    +0.000 A 
ATOM     15  C   UNL     1       4.914   6.296  16.235  0.00  0.00    +0.000 A 
ATOM     16  C   UNL     1       4.651   6.258  17.605  0.00  0.00    +0.000 A 
BRANCH   8  17
ATOM     17  C   UNL     1       2.270   4.617  17.714  0.00  0.00    +0.000 C 
ATOM     18  O   UNL     1       2.708   3.613  17.168  0.00  0.00    +0.000 OA
BRANCH  17  19
ATOM     19  O   UNL     1       1.025   5.076  17.453  0.00  0.00    +0.000 OA
ATOM     20  H   UNL     1       0.961   5.928  16.978  0.00  0.00    +0.000 HD
ENDBRANCH  17  19
ENDBRANCH   8  17
ENDBRANCH   4   7
BRANCH   1  21
ATOM     21  C   UNL     1       0.519  11.596  19.471  0.00  0.00    +0.000 C 
BRANCH  21  32
ATOM     22  C   UNL     1      -1.612  12.114  20.794  0.00  0.00    +0.000 A 
ATOM     23  N   UNL     1      -2.915  12.124  20.585  0.00  0.00    +0.000 NA
ATOM     24  C   UNL     1      -3.094  11.782  19.277  0.00  0.00    +0.000 A 
ATOM     25  C   UNL     1      -4.281  11.607  18.551  0.00  0.00    +0.000 A 
ATOM     26  C   UNL     1      -5.650  11.835  19.115  0.00  0.00    +0.000 C 
ATOM     27  C   UNL     1      -4.126  11.210  17.218  0.00  0.00    +0.000 A 
ATOM     28  C   UNL     1      -2.845  11.007  16.685  0.00  0.00    +0.000 A 
ATOM     29  C   UNL     1      -2.735  10.573  15.247  0.00  0.00    +0.000 C 
ATOM     30  N   UNL     1      -1.676  11.181  17.370  0.00  0.00    +0.000 NA
ATOM     31  C   UNL     1      -1.869  11.584  18.647  0.00  0.00    +0.000 A 
ATOM     32  N   UNL     1      -0.914  11.871  19.612  0.00  0.00    +0.000 N 
BRANCH  22  33
ATOM     33  C   UNL     1      -1.026  12.364  22.149  0.00  0.00    +0.000 C 
BRANCH  33  35
ATOM     34  C   UNL     1      -0.640  10.052  23.073  0.00  0.00    +0.000 C 
ATOM     35  C   UNL     1      -1.480  11.317  23.178  0.00  0.00    +0.000 C 
ENDBRANCH  33  35
ENDBRANCH  22  33
ENDBRANCH  21  32
ENDBRANCH   1  21
TORSDOF 7
ENDMDL
MODEL 8
REMARK VINA RESULT:      -8.8      2.256      4.951
REMARK  Name = 
REMARK  10 active torsions:
REMARK  status: ('A' for Active; 'I' for Inactive)
REMARK    1  A    between atoms: C_1  and  C_2
REMARK    2  A    between atoms: C_2  and  C_3
REMARK    3  A    between atoms: C_3  and  C_4
REMARK    4  A    between atoms: C_7  and  C_8
REMARK    5  A    between atoms: C_10  and  C_11
REMARK    6  A    between atoms: N_14  and  C_15
REMARK    7  A    between atoms: C_15  and  C_16
REMARK    8  A    between atoms: C_19  and  C_20
REMARK    9  A    between atoms: C_21  and  C_22
REMARK   10  A    between atoms: C_22  and  O_24
REMARK                            x       y       z     vdW  Elec       q    Type
REMARK                         _______ _______ _______ _____ _____    ______ ____
ROOT
ATOM      1  C   UNL     1       0.960   8.802  20.009  0.00  0.00    +0.000 A 
ATOM      2  C   UNL     1       1.608   9.064  18.802  0.00  0.00    +0.000 A 
ATOM      3  C   UNL     1       2.616   8.191  18.324  0.00  0.00    +0.000 A 
ATOM      4  C   UNL     1       3.033   7.026  19.022  0.00  0.00    +0.000 A 
ATOM      5  C   UNL     1       2.286   6.704  20.154  0.00  0.00    +0.000 A 
ATOM      6  C   UNL     1       1.275   7.575  20.641  0.00  0.00    +0.000 A 
ENDROOT
BRANCH   4   7
ATOM      7  C   UNL     1       4.206   6.252  18.503  0.00  0.00    +0.000 C 
ATOM      8  C   UNL     1       4.748   5.328  19.329  0.00  0.00    +0.000 C 
ATOM      9  C   UNL     1       6.206   5.483  19.091  0.00  0.00    +0.000 C 
ATOM     10  O   UNL     1       7.088   5.196  19.879  0.00  0.00    +0.000 OA
ATOM     11  C   UNL     1       6.352   5.802  17.680  0.00  0.00    +0.000 A 
ATOM     12  C   UNL     1       7.337   5.167  16.927  0.00  0.00    +0.000 A 
ATOM     13  C   UNL     1       6.949   4.682  15.692  0.00  0.00    +0.000 A 
ATOM     14  C   UNL     1       5.630   4.894  15.244  0.00  0.00    +0.000 A 
ATOM     15  C   UNL     1       4.688   5.635  16.003  0.00  0.00    +0.000 A 
ATOM     16  C   UNL     1       5.048   6.114  17.263  0.00  0.00    +0.000 A 
BRANCH   8  17
ATOM     17  C   UNL     1       4.171   3.968  18.995  0.00  0.00    +0.000 C 
ATOM     18  O   UNL     1       3.048   3.795  18.540  0.00  0.00    +0.000 OA
BRANCH  17  19
ATOM     19  O   UNL     1       5.044   2.944  19.132  0.00  0.00    +0.000 OA
ATOM     20  H   UNL     1       5.994   3.167  19.081  0.00  0.00    +0.000 HD
ENDBRANCH  17  19
ENDBRANCH   8  17
ENDBRANCH   4   7
BRANCH   1  21
ATOM     21  C   UNL     1       0.139   9.867  20.742  0.00  0.00    +0.000 C 
BRANCH  21  32
ATOM     22  C   UNL     1      -1.031  11.367  19.028  0.00  0.00    +0.000 A 
ATOM     23  N   UNL     1      -0.897  12.588  18.543  0.00  0.00    +0.000 NA
ATOM     24  C   UNL     1       0.155  13.147  19.206  0.00  0.00    +0.000 A 
ATOM     25  C   UNL     1       0.743  14.411  19.048  0.00  0.00    +0.000 A 
ATOM     26  C   UNL     1       0.245  15.455  18.096  0.00  0.00    +0.000 C 
ATOM     27  C   UNL     1       1.850  14.673  19.864  0.00  0.00    +0.000 A 
ATOM     28  C   UNL     1       2.311  13.701  20.763  0.00  0.00    +0.000 A 
ATOM     29  C   UNL     1       3.510  14.032  21.612  0.00  0.00    +0.000 C 
ATOM     30  N   UNL     1       1.749  12.469  20.940  0.00  0.00    +0.000 NA
ATOM     31  C   UNL     1       0.670  12.264  20.149  0.00  0.00    +0.000 A 
ATOM     32  N   UNL     1      -0.146  11.144  20.082  0.00  0.00    +0.000 N 
BRANCH  22  33
ATOM     33  C   UNL     1      -2.043  10.407  18.486  0.00  0.00    +0.000 C 
BRANCH  33  35
ATOM     34  C   UNL     1      -2.719  10.078  16.080  0.00  0.00    +0.000 C 
ATOM     35  C   UNL     1      -1.629   9.843  17.117  0.00  0.00    +0.000 C 
ENDBRANCH  33  35
ENDBRANCH  22  33
ENDBRANCH  21  32
ENDBRANCH   1  21
TORSDOF 7
ENDMDL
MODEL 9
REMARK VINA RESULT:      -8.8      4.104      9.081
REMARK  Name = 
REMARK  10 active torsions:
REMARK  status: ('A' for Active; 'I' for Inactive)
REMARK    1  A    between atoms: C_1  and  C_2
REMARK    2  A    between atoms: C_2  and  C_3
REMARK    3  A    between atoms: C_3  and  C_4
REMARK    4  A    between atoms: C_7  and  C_8
REMARK    5  A    between atoms: C_10  and  C_11
REMARK    6  A    between atoms: N_14  and  C_15
REMARK    7  A    between atoms: C_15  and  C_16
REMARK    8  A    between atoms: C_19  and  C_20
REMARK    9  A    between atoms: C_21  and  C_22
REMARK   10  A    between atoms: C_22  and  O_24
REMARK                            x       y       z     vdW  Elec       q    Type
REMARK                         _______ _______ _______ _____ _____    ______ ____
ROOT
ATOM      1  C   UNL     1       2.289   7.471  19.511  0.00  0.00    +0.000 A 
ATOM      2  C   UNL     1       2.095   8.129  18.297  0.00  0.00    +0.000 A 
ATOM      3  C   UNL     1       1.070   9.097  18.160  0.00  0.00    +0.000 A 
ATOM      4  C   UNL     1       0.188   9.451  19.216  0.00  0.00    +0.000 A 
ATOM      5  C   UNL     1       0.478   8.888  20.457  0.00  0.00    +0.000 A 
ATOM      6  C   UNL     1       1.503   7.915  20.602  0.00  0.00    +0.000 A 
ENDROOT
BRANCH   4   7
ATOM      7  C   UNL     1      -0.953  10.379  18.925  0.00  0.00    +0.000 C 
ATOM      8  C   UNL     1      -0.914  11.601  19.503  0.00  0.00    +0.000 C 
ATOM      9  C   UNL     1      -2.329  11.830  19.891  0.00  0.00    +0.000 C 
ATOM     10  O   UNL     1      -2.709  12.559  20.790  0.00  0.00    +0.000 OA
ATOM     11  C   UNL     1      -3.138  11.218  18.850  0.00  0.00    +0.000 A 
ATOM     12  C   UNL     1      -4.239  11.902  18.340  0.00  0.00    +0.000 A 
ATOM     13  C   UNL     1      -4.370  11.914  16.963  0.00  0.00    +0.000 A 
ATOM     14  C   UNL     1      -3.443  11.212  16.169  0.00  0.00    +0.000 A 
ATOM     15  C   UNL     1      -2.393  10.446  16.739  0.00  0.00    +0.000 A 
ATOM     16  C   UNL     1      -2.225  10.437  18.123  0.00  0.00    +0.000 A 
BRANCH   8  17
ATOM     17  C   UNL     1      -0.337  12.594  18.516  0.00  0.00    +0.000 C 
ATOM     18  O   UNL     1       0.753  12.467  17.975  0.00  0.00    +0.000 OA
BRANCH  17  19
ATOM     19  O   UNL     1      -1.179  13.599  18.180  0.00  0.00    +0.000 OA
ATOM     20  H   UNL     1      -1.064  13.989  17.290  0.00  0.00    +0.000 HD
ENDBRANCH  17  19
ENDBRANCH   8  17
ENDBRANCH   4   7
BRANCH   1  21
ATOM     21  C   UNL     1       3.120   6.189  19.622  0.00  0.00    +0.000 C 
BRANCH  21  32
ATOM     22  C   UNL     1       3.052   4.331  17.861  0.00  0.00    +0.000 A 
ATOM     23  N   UNL     1       3.811   3.889  16.875  0.00  0.00    +0.000 NA
ATOM     24  C   UNL     1       4.894   4.716  16.827  0.00  0.00    +0.000 A 
ATOM     25  C   UNL     1       6.021   4.669  15.994  0.00  0.00    +0.000 A 
ATOM     26  C   UNL     1       6.214   3.664  14.900  0.00  0.00    +0.000 C 
ATOM     27  C   UNL     1       6.990   5.653  16.226  0.00  0.00    +0.000 A 
ATOM     28  C   UNL     1       6.806   6.601  17.241  0.00  0.00    +0.000 A 
ATOM     29  C   UNL     1       7.883   7.632  17.452  0.00  0.00    +0.000 C 
ATOM     30  N   UNL     1       5.713   6.671  18.058  0.00  0.00    +0.000 NA
ATOM     31  C   UNL     1       4.792   5.718  17.788  0.00  0.00    +0.000 A 
ATOM     32  N   UNL     1       3.566   5.508  18.403  0.00  0.00    +0.000 N 
BRANCH  22  33
ATOM     33  C   UNL     1       1.799   3.624  18.273  0.00  0.00    +0.000 C 
BRANCH  33  35
ATOM     34  C   UNL     1       1.269   3.113  20.683  0.00  0.00    +0.000 C 
ATOM     35  C   UNL     1       2.038   2.663  19.449  0.00  0.00    +0.000 C 
ENDBRANCH  33  35
ENDBRANCH  22  33
ENDBRANCH  21  32
ENDBRANCH   1  21
TORSDOF 7
ENDMDL
