MODEL 1
REMARK VINA RESULT:      -7.4      0.000      0.000
REMARK  Name = 
REMARK  4 active torsions:
REMARK  status: ('A' for Active; 'I' for Inactive)
REMARK    1  A    between atoms: C_1  and  C_2
REMARK    2  A    between atoms: C_6  and  C_7
REMARK    3  A    between atoms: C_8  and  C_9
REMARK    4  A    between atoms: C_14  and  C_15
REMARK                            x       y       z     vdW  Elec       q    Type
REMARK                         _______ _______ _______ _____ _____    ______ ____
ROOT
ATOM      1  C   UNL     1       3.078   5.828  18.099  0.00  0.00    +0.000 C 
ATOM      2  O   UNL     1       2.489   4.956  18.731  0.00  0.00    +0.000 OA
ATOM      3  N   UNL     1       4.142   5.580  17.249  0.00  0.00    +0.000 N 
ATOM      4  C   UNL     1       4.443   4.194  16.919  0.00  0.00    +0.000 C 
ATOM      5  C   UNL     1       5.942   3.907  17.002  0.00  0.00    +0.000 C 
ATOM      6  C   UNL     1       6.783   4.891  16.165  0.00  0.00    +0.000 C 
ATOM      7  C   UNL     1       6.397   6.329  16.576  0.00  0.00    +0.000 C 
ATOM      8  C   UNL     1       4.894   6.586  16.494  0.00  0.00    +0.000 C 
ENDROOT
BRANCH   6   9
ATOM      9  C   UNL     1       6.791   4.665  14.653  0.00  0.00    +0.000 A 
ATOM     10  C   UNL     1       5.998   3.701  14.013  0.00  0.00    +0.000 A 
ATOM     11  C   UNL     1       6.077   3.492  12.633  0.00  0.00    +0.000 A 
ATOM     12  C   UNL     1       6.966   4.233  11.863  0.00  0.00    +0.000 A 
ATOM     13  C   UNL     1       7.778   5.182  12.475  0.00  0.00    +0.000 A 
ATOM     14  C   UNL     1       7.695   5.391  13.854  0.00  0.00    +0.000 A 
ENDBRANCH   6   9
BRANCH   1  16
ATOM     15  C   UNL     1       2.017   7.603  19.354  0.00  0.00    +0.000 C 
ATOM     16  C   UNL     1       2.634   7.234  18.223  0.00  0.00    +0.000 C 
BRANCH  15  22
ATOM     17  C   UNL     1       0.856   9.055  22.047  0.00  0.00    +0.000 C 
ATOM     18  C   UNL     1       0.983   9.577  20.658  0.00  0.00    +0.000 A 
ATOM     19  N   UNL     1       0.589  10.891  20.439  0.00  0.00    +0.000 NA
ATOM     20  C   UNL     1       0.829  11.226  19.194  0.00  0.00    +0.000 A 
ATOM     21  S   UNL     1       1.510  10.012  18.205  0.00  0.00    +0.000 S 
ATOM     22  C   UNL     1       1.497   8.914  19.544  0.00  0.00    +0.000 A 
ENDBRANCH  15  22
ENDBRANCH   1  16
TORSDOF 3
ENDMDL
MODEL 2
REMARK VINA RESULT:      -7.3      0.151      1.033
REMARK  Name = 
REMARK  4 active torsions:
REMARK  status: ('A' for Active; 'I' for Inactive)
REMARK    1  A    between atoms: C_1  and  C_2
REMARK    2  A    between atoms: C_6  and  C_7
REMARK    3  A    between atoms: C_8  and  C_9
REMARK    4  A    between atoms: C_14  and  C_15
REMARK                            x       y       z     vdW  Elec       q    Type
REMARK                         _______ _______ _______ _____ _____    ______ ____
ROOT
ATOM      1  C   UNL     1       3.163   5.765  18.140  0.00  0.00    +0.000 C 
ATOM      2  O   UNL     1       2.630   4.882  18.806  0.00  0.00    +0.000 OA
ATOM      3  N   UNL     1       4.241   5.551  17.299  0.00  0.00    +0.000 N 
ATOM      4  C   UNL     1       4.631   4.175  17.022  0.00  0.00    +0.000 C 
ATOM      5  C   UNL     1       6.144   3.987  17.115  0.00  0.00    +0.000 C 
ATOM      6  C   UNL     1       6.923   4.988  16.240  0.00  0.00    +0.000 C 
ATOM      7  C   UNL     1       6.446   6.414  16.595  0.00  0.00    +0.000 C 
ATOM      8  C   UNL     1       4.929   6.572  16.505  0.00  0.00    +0.000 C 
ENDROOT
BRANCH   6   9
ATOM      9  C   UNL     1       6.947   4.704  14.738  0.00  0.00    +0.000 A 
ATOM     10  C   UNL     1       7.749   5.414  13.831  0.00  0.00    +0.000 A 
ATOM     11  C   UNL     1       7.699   5.157  12.458  0.00  0.00    +0.000 A 
ATOM     12  C   UNL     1       6.832   4.192  11.958  0.00  0.00    +0.000 A 
ATOM     13  C   UNL     1       6.012   3.488  12.832  0.00  0.00    +0.000 A 
ATOM     14  C   UNL     1       6.065   3.744  14.205  0.00  0.00    +0.000 A 
ENDBRANCH   6   9
BRANCH   1  16
ATOM     15  C   UNL     1       2.098   7.556  19.368  0.00  0.00    +0.000 C 
ATOM     16  C   UNL     1       2.631   7.143  18.210  0.00  0.00    +0.000 C 
BRANCH  15  22
ATOM     17  C   UNL     1       0.769   8.986  21.993  0.00  0.00    +0.000 C 
ATOM     18  C   UNL     1       0.917   9.493  20.601  0.00  0.00    +0.000 A 
ATOM     19  N   UNL     1       0.462  10.780  20.346  0.00  0.00    +0.000 NA
ATOM     20  C   UNL     1       0.728  11.108  19.104  0.00  0.00    +0.000 A 
ATOM     21  S   UNL     1       1.506   9.916  18.160  0.00  0.00    +0.000 S 
ATOM     22  C   UNL     1       1.503   8.840  19.517  0.00  0.00    +0.000 A 
ENDBRANCH  15  22
ENDBRANCH   1  16
TORSDOF 3
ENDMDL
MODEL 3
REMARK VINA RESULT:      -7.2      2.659      8.280
REMARK  Name = 
REMARK  4 active torsions:
REMARK  status: ('A' for Active; 'I' for Inactive)
REMARK    1  A    between atoms: C_1  and  C_2
REMARK    2  A    between atoms: C_6  and  C_7
REMARK    3  A    between atoms: C_8  and  C_9
REMARK    4  A    between atoms: C_14  and  C_15
REMARK                            x       y       z     vdW  Elec       q    Type
REMARK                         _______ _______ _______ _____ _____    ______ ____
ROOT
ATOM      1  C   UNL     1       2.388   6.474  19.627  0.00  0.00    +0.000 C 
ATOM      2  O   UNL     1       2.059   5.796  20.596  0.00  0.00    +0.000 OA
ATOM      3  N   UNL     1       2.022   7.797  19.451  0.00  0.00    +0.000 N 
ATOM      4  C   UNL     1       1.395   8.488  20.570  0.00  0.00    +0.000 C 
ATOM      5  C   UNL     1       0.179   9.296  20.123  0.00  0.00    +0.000 C 
ATOM      6  C   UNL     1       0.497  10.259  18.962  0.00  0.00    +0.000 C 
ATOM      7  C   UNL     1       1.159   9.447  17.828  0.00  0.00    +0.000 C 
ATOM      8  C   UNL     1       2.366   8.639  18.302  0.00  0.00    +0.000 C 
ENDROOT
BRANCH   6   9
ATOM      9  C   UNL     1       1.254  11.537  19.325  0.00  0.00    +0.000 A 
ATOM     10  C   UNL     1       1.131  12.180  20.566  0.00  0.00    +0.000 A 
ATOM     11  C   UNL     1       1.801  13.377  20.836  0.00  0.00    +0.000 A 
ATOM     12  C   UNL     1       2.598  13.968  19.862  0.00  0.00    +0.000 A 
ATOM     13  C   UNL     1       2.721  13.362  18.616  0.00  0.00    +0.000 A 
ATOM     14  C   UNL     1       2.053  12.164  18.350  0.00  0.00    +0.000 A 
ENDBRANCH   6   9
BRANCH   1  16
ATOM     15  C   UNL     1       4.541   5.692  18.849  0.00  0.00    +0.000 C 
ATOM     16  C   UNL     1       3.240   5.869  18.580  0.00  0.00    +0.000 C 
BRANCH  15  22
ATOM     17  C   UNL     1       7.811   5.780  18.766  0.00  0.00    +0.000 C 
ATOM     18  C   UNL     1       6.845   5.195  17.796  0.00  0.00    +0.000 A 
ATOM     19  N   UNL     1       7.378   4.549  16.687  0.00  0.00    +0.000 NA
ATOM     20  C   UNL     1       6.412   4.026  15.971  0.00  0.00    +0.000 A 
ATOM     21  S   UNL     1       4.824   4.281  16.545  0.00  0.00    +0.000 S 
ATOM     22  C   UNL     1       5.454   5.178  17.886  0.00  0.00    +0.000 A 
ENDBRANCH  15  22
ENDBRANCH   1  16
TORSDOF 3
ENDMDL
MODEL 4
REMARK VINA RESULT:      -7.2      2.569      8.273
REMARK  Name = 
REMARK  4 active torsions:
REMARK  status: ('A' for Active; 'I' for Inactive)
REMARK    1  A    between atoms: C_1  and  C_2
REMARK    2  A    between atoms: C_6  and  C_7
REMARK    3  A    between atoms: C_8  and  C_9
REMARK    4  A    between atoms: C_14  and  C_15
REMARK                            x       y       z     vdW  Elec       q    Type
REMARK                         _______ _______ _______ _____ _____    ______ ____
ROOT
ATOM      1  C   UNL     1       2.481   6.524  19.497  0.00  0.00    +0.000 C 
ATOM      2  O   UNL     1       2.236   5.852  20.494  0.00  0.00    +0.000 OA
ATOM      3  N   UNL     1       2.079   7.838  19.334  0.00  0.00    +0.000 N 
ATOM      4  C   UNL     1       1.523   8.531  20.488  0.00  0.00    +0.000 C 
ATOM      5  C   UNL     1       0.263   9.313  20.124  0.00  0.00    +0.000 C 
ATOM      6  C   UNL     1       0.478  10.268  18.933  0.00  0.00    +0.000 C 
ATOM      7  C   UNL     1       1.069   9.454  17.761  0.00  0.00    +0.000 C 
ATOM      8  C   UNL     1       2.322   8.673  18.154  0.00  0.00    +0.000 C 
ENDROOT
BRANCH   6   9
ATOM      9  C   UNL     1       1.236  11.563  19.226  0.00  0.00    +0.000 A 
ATOM     10  C   UNL     1       2.091  12.182  18.302  0.00  0.00    +0.000 A 
ATOM     11  C   UNL     1       2.806  13.338  18.632  0.00  0.00    +0.000 A 
ATOM     12  C   UNL     1       2.694  13.891  19.903  0.00  0.00    +0.000 A 
ATOM     13  C   UNL     1       1.868  13.285  20.844  0.00  0.00    +0.000 A 
ATOM     14  C   UNL     1       1.152  12.133  20.511  0.00  0.00    +0.000 A 
ENDBRANCH   6   9
BRANCH   1  16
ATOM     15  C   UNL     1       4.601   5.949  18.484  0.00  0.00    +0.000 C 
ATOM     16  C   UNL     1       3.264   5.921  18.396  0.00  0.00    +0.000 C 
BRANCH  15  22
ATOM     17  C   UNL     1       7.534   6.976  17.461  0.00  0.00    +0.000 C 
ATOM     18  C   UNL     1       6.688   5.854  16.967  0.00  0.00    +0.000 A 
ATOM     19  N   UNL     1       7.204   5.080  15.935  0.00  0.00    +0.000 NA
ATOM     20  C   UNL     1       6.382   4.095  15.664  0.00  0.00    +0.000 A 
ATOM     21  S   UNL     1       4.948   4.034  16.589  0.00  0.00    +0.000 S 
ATOM     22  C   UNL     1       5.443   5.453  17.450  0.00  0.00    +0.000 A 
ENDBRANCH  15  22
ENDBRANCH   1  16
TORSDOF 3
ENDMDL
MODEL 5
REMARK VINA RESULT:      -7.1      1.055      1.406
REMARK  Name = 
REMARK  4 active torsions:
REMARK  status: ('A' for Active; 'I' for Inactive)
REMARK    1  A    between atoms: C_1  and  C_2
REMARK    2  A    between atoms: C_6  and  C_7
REMARK    3  A    between atoms: C_8  and  C_9
REMARK    4  A    between atoms: C_14  and  C_15
REMARK                            x       y       z     vdW  Elec       q    Type
REMARK                         _______ _______ _______ _____ _____    ______ ____
ROOT
ATOM      1  C   UNL     1       3.288   5.493  18.510  0.00  0.00    +0.000 C 
ATOM      2  O   UNL     1       2.912   4.570  19.226  0.00  0.00    +0.000 OA
ATOM      3  N   UNL     1       4.303   5.380  17.577  0.00  0.00    +0.000 N 
ATOM      4  C   UNL     1       4.809   4.048  17.274  0.00  0.00    +0.000 C 
ATOM      5  C   UNL     1       6.336   4.021  17.231  0.00  0.00    +0.000 C 
ATOM      6  C   UNL     1       6.924   5.085  16.283  0.00  0.00    +0.000 C 
ATOM      7  C   UNL     1       6.333   6.458  16.671  0.00  0.00    +0.000 C 
ATOM      8  C   UNL     1       4.806   6.456  16.718  0.00  0.00    +0.000 C 
ENDROOT
BRANCH   6   9
ATOM      9  C   UNL     1       6.844   4.782  14.787  0.00  0.00    +0.000 A 
ATOM     10  C   UNL     1       6.010   3.793  14.243  0.00  0.00    +0.000 A 
ATOM     11  C   UNL     1       6.009   3.514  12.873  0.00  0.00    +0.000 A 
ATOM     12  C   UNL     1       6.857   4.207  12.017  0.00  0.00    +0.000 A 
ATOM     13  C   UNL     1       7.708   5.179  12.533  0.00  0.00    +0.000 A 
ATOM     14  C   UNL     1       7.705   5.459  13.901  0.00  0.00    +0.000 A 
ENDBRANCH   6   9
BRANCH   1  16
ATOM     15  C   UNL     1       2.224   7.216  19.833  0.00  0.00    +0.000 C 
ATOM     16  C   UNL     1       2.621   6.809  18.620  0.00  0.00    +0.000 C 
BRANCH  15  22
ATOM     17  C   UNL     1       1.666   9.705  17.784  0.00  0.00    +0.000 C 
ATOM     18  C   UNL     1       1.260   9.527  19.205  0.00  0.00    +0.000 A 
ATOM     19  N   UNL     1       0.497  10.539  19.775  0.00  0.00    +0.000 NA
ATOM     20  C   UNL     1       0.158  10.205  20.997  0.00  0.00    +0.000 A 
ATOM     21  S   UNL     1       0.733   8.697  21.554  0.00  0.00    +0.000 S 
ATOM     22  C   UNL     1       1.518   8.435  20.033  0.00  0.00    +0.000 A 
ENDBRANCH  15  22
ENDBRANCH   1  16
TORSDOF 3
ENDMDL
MODEL 6
REMARK VINA RESULT:      -6.8      1.085      1.589
REMARK  Name = 
REMARK  4 active torsions:
REMARK  status: ('A' for Active; 'I' for Inactive)
REMARK    1  A    between atoms: C_1  and  C_2
REMARK    2  A    between atoms: C_6  and  C_7
REMARK    3  A    between atoms: C_8  and  C_9
REMARK    4  A    between atoms: C_14  and  C_15
REMARK                            x       y       z     vdW  Elec       q    Type
REMARK                         _______ _______ _______ _____ _____    ______ ____
ROOT
ATOM      1  C   UNL     1       3.037   6.131  19.366  0.00  0.00    +0.000 C 
ATOM      2  O   UNL     1       2.757   5.344  20.265  0.00  0.00    +0.000 OA
ATOM      3  N   UNL     1       4.039   5.915  18.436  0.00  0.00    +0.000 N 
ATOM      4  C   UNL     1       4.651   4.594  18.385  0.00  0.00    +0.000 C 
ATOM      5  C   UNL     1       6.174   4.682  18.291  0.00  0.00    +0.000 C 
ATOM      6  C   UNL     1       6.648   5.577  17.130  0.00  0.00    +0.000 C 
ATOM      7  C   UNL     1       5.950   6.948  17.259  0.00  0.00    +0.000 C 
ATOM      8  C   UNL     1       4.430   6.833  17.363  0.00  0.00    +0.000 C 
ENDROOT
BRANCH   6   9
ATOM      9  C   UNL     1       6.564   4.975  15.727  0.00  0.00    +0.000 A 
ATOM     10  C   UNL     1       7.444   5.311  14.688  0.00  0.00    +0.000 A 
ATOM     11  C   UNL     1       7.297   4.775  13.405  0.00  0.00    +0.000 A 
ATOM     12  C   UNL     1       6.252   3.901  13.128  0.00  0.00    +0.000 A 
ATOM     13  C   UNL     1       5.353   3.566  14.135  0.00  0.00    +0.000 A 
ATOM     14  C   UNL     1       5.504   4.100  15.417  0.00  0.00    +0.000 A 
ENDBRANCH   6   9
BRANCH   1  16
ATOM     15  C   UNL     1       1.750   7.927  20.350  0.00  0.00    +0.000 C 
ATOM     16  C   UNL     1       2.263   7.385  19.237  0.00  0.00    +0.000 C 
BRANCH  15  22
ATOM     17  C   UNL     1       0.014   9.360  22.725  0.00  0.00    +0.000 C 
ATOM     18  C   UNL     1       0.174   9.741  21.295  0.00  0.00    +0.000 A 
ATOM     19  N   UNL     1      -0.473  10.896  20.873  0.00  0.00    +0.000 NA
ATOM     20  C   UNL     1      -0.178  11.138  19.619  0.00  0.00    +0.000 A 
ATOM     21  S   UNL     1       0.855  10.012  18.857  0.00  0.00    +0.000 S 
ATOM     22  C   UNL     1       0.938   9.096  20.323  0.00  0.00    +0.000 A 
ENDBRANCH  15  22
ENDBRANCH   1  16
TORSDOF 3
ENDMDL
MODEL 7
REMARK VINA RESULT:      -6.8      1.294      1.885
REMARK  Name = 
REMARK  4 active torsions:
REMARK  status: ('A' for Active; 'I' for Inactive)
REMARK    1  A    between atoms: C_1  and  C_2
REMARK    2  A    between atoms: C_6  and  C_7
REMARK    3  A    between atoms: C_8  and  C_9
REMARK    4  A    between atoms: C_14  and  C_15
REMARK                            x       y       z     vdW  Elec       q    Type
REMARK                         _______ _______ _______ _____ _____    ______ ____
ROOT
ATOM      1  C   UNL     1       3.385   5.334  19.037  0.00  0.00    +0.000 C 
ATOM      2  O   UNL     1       3.338   4.492  19.928  0.00  0.00    +0.000 OA
ATOM      3  N   UNL     1       4.328   5.334  18.024  0.00  0.00    +0.000 N 
ATOM      4  C   UNL     1       5.176   4.158  17.880  0.00  0.00    +0.000 C 
ATOM      5  C   UNL     1       6.640   4.542  17.669  0.00  0.00    +0.000 C 
ATOM      6  C   UNL     1       6.834   5.532  16.504  0.00  0.00    +0.000 C 
ATOM      7  C   UNL     1       5.898   6.739  16.735  0.00  0.00    +0.000 C 
ATOM      8  C   UNL     1       4.443   6.329  16.954  0.00  0.00    +0.000 C 
ENDROOT
BRANCH   6   9
ATOM      9  C   UNL     1       6.749   4.950  15.093  0.00  0.00    +0.000 A 
ATOM     10  C   UNL     1       7.612   5.323  14.052  0.00  0.00    +0.000 A 
ATOM     11  C   UNL     1       7.464   4.804  12.762  0.00  0.00    +0.000 A 
ATOM     12  C   UNL     1       6.436   3.910  12.481  0.00  0.00    +0.000 A 
ATOM     13  C   UNL     1       5.555   3.539  13.491  0.00  0.00    +0.000 A 
ATOM     14  C   UNL     1       5.707   4.056  14.779  0.00  0.00    +0.000 A 
ENDBRANCH   6   9
BRANCH   1  16
ATOM     15  C   UNL     1       2.456   7.376  19.943  0.00  0.00    +0.000 C 
ATOM     16  C   UNL     1       2.375   6.416  19.012  0.00  0.00    +0.000 C 
BRANCH  15  22
ATOM     17  C   UNL     1       1.687   9.755  17.833  0.00  0.00    +0.000 C 
ATOM     18  C   UNL     1       1.136   9.461  19.185  0.00  0.00    +0.000 A 
ATOM     19  N   UNL     1       0.114  10.283  19.642  0.00  0.00    +0.000 NA
ATOM     20  C   UNL     1      -0.313   9.855  20.806  0.00  0.00    +0.000 A 
ATOM     21  S   UNL     1       0.476   8.480  21.440  0.00  0.00    +0.000 S 
ATOM     22  C   UNL     1       1.497   8.422  20.042  0.00  0.00    +0.000 A 
ENDBRANCH  15  22
ENDBRANCH   1  16
TORSDOF 3
ENDMDL
MODEL 8
REMARK VINA RESULT:      -6.7      4.040      4.625
REMARK  Name = 
REMARK  4 active torsions:
REMARK  status: ('A' for Active; 'I' for Inactive)
REMARK    1  A    between atoms: C_1  and  C_2
REMARK    2  A    between atoms: C_6  and  C_7
REMARK    3  A    between atoms: C_8  and  C_9
REMARK    4  A    between atoms: C_14  and  C_15
REMARK                            x       y       z     vdW  Elec       q    Type
REMARK                         _______ _______ _______ _____ _____    ______ ____
ROOT
ATOM      1  C   UNL     1       6.123   4.503  18.020  0.00  0.00    +0.000 C 
ATOM      2  O   UNL     1       7.147   4.490  18.696  0.00  0.00    +0.000 OA
ATOM      3  N   UNL     1       6.112   4.469  16.636  0.00  0.00    +0.000 N 
ATOM      4  C   UNL     1       7.365   4.189  15.949  0.00  0.00    +0.000 C 
ATOM      5  C   UNL     1       7.586   5.137  14.772  0.00  0.00    +0.000 C 
ATOM      6  C   UNL     1       6.393   5.165  13.797  0.00  0.00    +0.000 C 
ATOM      7  C   UNL     1       5.113   5.464  14.607  0.00  0.00    +0.000 C 
ATOM      8  C   UNL     1       4.920   4.509  15.784  0.00  0.00    +0.000 C 
ENDROOT
BRANCH   6   9
ATOM      9  C   UNL     1       6.258   3.971  12.851  0.00  0.00    +0.000 A 
ATOM     10  C   UNL     1       7.355   3.324  12.265  0.00  0.00    +0.000 A 
ATOM     11  C   UNL     1       7.182   2.269  11.363  0.00  0.00    +0.000 A 
ATOM     12  C   UNL     1       5.904   1.849  11.014  0.00  0.00    +0.000 A 
ATOM     13  C   UNL     1       4.798   2.487  11.566  0.00  0.00    +0.000 A 
ATOM     14  C   UNL     1       4.973   3.539  12.469  0.00  0.00    +0.000 A 
ENDBRANCH   6   9
BRANCH   1  16
ATOM     15  C   UNL     1       4.285   3.380  19.120  0.00  0.00    +0.000 C 
ATOM     16  C   UNL     1       4.810   4.539  18.701  0.00  0.00    +0.000 C 
BRANCH  15  22
ATOM     17  C   UNL     1       1.323   4.083  17.919  0.00  0.00    +0.000 C 
ATOM     18  C   UNL     1       1.716   3.596  19.270  0.00  0.00    +0.000 A 
ATOM     19  N   UNL     1       0.692   3.361  20.179  0.00  0.00    +0.000 NA
ATOM     20  C   UNL     1       1.187   2.869  21.289  0.00  0.00    +0.000 A 
ATOM     21  S   UNL     1       2.883   2.676  21.338  0.00  0.00    +0.000 S 
ATOM     22  C   UNL     1       3.000   3.303  19.728  0.00  0.00    +0.000 A 
ENDBRANCH  15  22
ENDBRANCH   1  16
TORSDOF 3
ENDMDL
MODEL 9
REMARK VINA RESULT:      -6.7      2.446      8.263
REMARK  Name = 
REMARK  4 active torsions:
REMARK  status: ('A' for Active; 'I' for Inactive)
REMARK    1  A    between atoms: C_1  and  C_2
REMARK    2  A    between atoms: C_6  and  C_7
REMARK    3  A    between atoms: C_8  and  C_9
REMARK    4  A    between atoms: C_14  and  C_15
REMARK                            x       y       z     vdW  Elec       q    Type
REMARK                         _______ _______ _______ _____ _____    ______ ____
ROOT
ATOM      1  C   UNL     1       2.114   6.621  19.768  0.00  0.00    +0.000 C 
ATOM      2  O   UNL     1       1.851   6.005  20.796  0.00  0.00    +0.000 OA
ATOM      3  N   UNL     1       1.829   7.962  19.578  0.00  0.00    +0.000 N 
ATOM      4  C   UNL     1       1.390   8.737  20.730  0.00  0.00    +0.000 C 
ATOM      5  C   UNL     1       0.192   9.623  20.390  0.00  0.00    +0.000 C 
ATOM      6  C   UNL     1       0.444  10.518  19.161  0.00  0.00    +0.000 C 
ATOM      7  C   UNL     1       0.907   9.619  17.995  0.00  0.00    +0.000 C 
ATOM      8  C   UNL     1       2.099   8.736  18.363  0.00  0.00    +0.000 C 
ENDROOT
BRANCH   6   9
ATOM      9  C   UNL     1       1.329  11.745  19.382  0.00  0.00    +0.000 A 
ATOM     10  C   UNL     1       1.384  12.448  20.594  0.00  0.00    +0.000 A 
ATOM     11  C   UNL     1       2.169  13.597  20.735  0.00  0.00    +0.000 A 
ATOM     12  C   UNL     1       2.904  14.079  19.658  0.00  0.00    +0.000 A 
ATOM     13  C   UNL     1       2.852  13.411  18.439  0.00  0.00    +0.000 A 
ATOM     14  C   UNL     1       2.070  12.261  18.302  0.00  0.00    +0.000 A 
ENDBRANCH   6   9
BRANCH   1  16
ATOM     15  C   UNL     1       4.125   5.795  18.707  0.00  0.00    +0.000 C 
ATOM     16  C   UNL     1       2.792   5.916  18.657  0.00  0.00    +0.000 C 
BRANCH  15  22
ATOM     17  C   UNL     1       3.890   2.816  17.375  0.00  0.00    +0.000 C 
ATOM     18  C   UNL     1       4.824   3.932  17.062  0.00  0.00    +0.000 A 
ATOM     19  N   UNL     1       5.729   3.726  16.028  0.00  0.00    +0.000 NA
ATOM     20  C   UNL     1       6.427   4.817  15.825  0.00  0.00    +0.000 A 
ATOM     21  S   UNL     1       6.077   6.138  16.849  0.00  0.00    +0.000 S 
ATOM     22  C   UNL     1       4.874   5.191  17.658  0.00  0.00    +0.000 A 
ENDBRANCH  15  22
ENDBRANCH   1  16
TORSDOF 3
ENDMDL
