MODEL 1
REMARK VINA RESULT:      -8.1      0.000      0.000
REMARK  Name = 
REMARK  10 active torsions:
REMARK  status: ('A' for Active; 'I' for Inactive)
REMARK    1  A    between atoms: C_1  and  O_2
REMARK    2  A    between atoms: O_2  and  C_3
REMARK    3  A    between atoms: C_5  and  C_6
REMARK    4  A    between atoms: N_11  and  C_12
REMARK    5  A    between atoms: C_15  and  C_16
REMARK    6  A    between atoms: C_18  and  C_19
REMARK    7  A    between atoms: C_23  and  O_24
REMARK    8  A    between atoms: O_24  and  C_25
REMARK    9  A    between atoms: C_26  and  O_27
REMARK   10  A    between atoms: O_27  and  C_28
REMARK                            x       y       z     vdW  Elec       q    Type
REMARK                         _______ _______ _______ _____ _____    ______ ____
ROOT
ATOM      1  C   UNL     1       3.931   4.067  17.544  0.00  0.00    +0.000 C 
ATOM      2  O   UNL     1       3.770   2.901  17.898  0.00  0.00    +0.000 OA
ATOM      3  N   UNL     1       3.087   5.100  17.948  0.00  0.00    +0.000 N 
ATOM      4  C   UNL     1       2.078   4.836  18.989  0.00  0.00    +0.000 C 
ATOM      5  C   UNL     1       2.173   5.864  20.144  0.00  0.00    +0.000 C 
ATOM      6  N   UNL     1       2.179   7.236  19.588  0.00  0.00    +0.000 N 
ATOM      7  C   UNL     1       3.261   7.463  18.617  0.00  0.00    +0.000 C 
ATOM      8  C   UNL     1       3.045   6.484  17.445  0.00  0.00    +0.000 C 
ENDROOT
BRANCH   6   9
ATOM      9  C   UNL     1       1.527   8.285  20.211  0.00  0.00    +0.000 A 
ATOM     10  C   UNL     1       1.315   8.264  21.603  0.00  0.00    +0.000 A 
ATOM     11  C   UNL     1       0.590   9.259  22.269  0.00  0.00    +0.000 A 
ATOM     12  C   UNL     1       0.057  10.334  21.564  0.00  0.00    +0.000 A 
ATOM     13  C   UNL     1      -0.751  11.397  22.239  0.00  0.00    +0.000 C 
ATOM     14  C   UNL     1       0.269  10.389  20.185  0.00  0.00    +0.000 A 
ATOM     15  C   UNL     1       0.974   9.379  19.499  0.00  0.00    +0.000 A 
ATOM     16  C   UNL     1       1.040   9.514  17.999  0.00  0.00    +0.000 C 
ENDBRANCH   6   9
BRANCH   1  19
ATOM     17  C   UNL     1       6.141   4.021  14.478  0.00  0.00    +0.000 A 
ATOM     18  C   UNL     1       5.151   3.680  15.415  0.00  0.00    +0.000 A 
ATOM     19  C   UNL     1       5.067   4.352  16.634  0.00  0.00    +0.000 A 
ATOM     20  C   UNL     1       6.064   5.254  16.975  0.00  0.00    +0.000 A 
ATOM     21  C   UNL     1       7.040   5.641  16.053  0.00  0.00    +0.000 A 
ATOM     22  C   UNL     1       7.100   5.018  14.788  0.00  0.00    +0.000 A 
BRANCH  17  24
ATOM     23  C   UNL     1       5.089   3.437  12.410  0.00  0.00    +0.000 C 
ATOM     24  O   UNL     1       6.223   3.376  13.270  0.00  0.00    +0.000 OA
ENDBRANCH  17  24
BRANCH  21  25
ATOM     25  O   UNL     1       7.809   6.654  16.565  0.00  0.00    +0.000 OA
ATOM     26  C   UNL     1       7.459   7.250  17.802  0.00  0.00    +0.000 C 
ENDBRANCH  21  25
BRANCH  22  27
ATOM     27  O   UNL     1       8.120   5.434  13.975  0.00  0.00    +0.000 OA
ATOM     28  C   UNL     1       7.912   5.626  12.586  0.00  0.00    +0.000 C 
ENDBRANCH  22  27
ENDBRANCH   1  19
TORSDOF 5
ENDMDL
MODEL 2
REMARK VINA RESULT:      -7.9      0.322      2.485
REMARK  Name = 
REMARK  10 active torsions:
REMARK  status: ('A' for Active; 'I' for Inactive)
REMARK    1  A    between atoms: C_1  and  O_2
REMARK    2  A    between atoms: O_2  and  C_3
REMARK    3  A    between atoms: C_5  and  C_6
REMARK    4  A    between atoms: N_11  and  C_12
REMARK    5  A    between atoms: C_15  and  C_16
REMARK    6  A    between atoms: C_18  and  C_19
REMARK    7  A    between atoms: C_23  and  O_24
REMARK    8  A    between atoms: O_24  and  C_25
REMARK    9  A    between atoms: C_26  and  O_27
REMARK   10  A    between atoms: O_27  and  C_28
REMARK                            x       y       z     vdW  Elec       q    Type
REMARK                         _______ _______ _______ _____ _____    ______ ____
ROOT
ATOM      1  C   UNL     1       3.795   4.321  17.622  0.00  0.00    +0.000 C 
ATOM      2  O   UNL     1       3.674   3.147  17.965  0.00  0.00    +0.000 OA
ATOM      3  N   UNL     1       2.936   5.326  18.060  0.00  0.00    +0.000 N 
ATOM      4  C   UNL     1       1.962   5.024  19.124  0.00  0.00    +0.000 C 
ATOM      5  C   UNL     1       2.061   6.041  20.288  0.00  0.00    +0.000 C 
ATOM      6  N   UNL     1       2.016   7.418  19.749  0.00  0.00    +0.000 N 
ATOM      7  C   UNL     1       3.065   7.685  18.752  0.00  0.00    +0.000 C 
ATOM      8  C   UNL     1       2.844   6.714  17.575  0.00  0.00    +0.000 C 
ENDROOT
BRANCH   6   9
ATOM      9  C   UNL     1       1.352   8.443  20.401  0.00  0.00    +0.000 A 
ATOM     10  C   UNL     1       1.218   8.423  21.803  0.00  0.00    +0.000 A 
ATOM     11  C   UNL     1       0.488   9.390  22.503  0.00  0.00    +0.000 A 
ATOM     12  C   UNL     1      -0.130  10.435  21.822  0.00  0.00    +0.000 A 
ATOM     13  C   UNL     1      -0.946  11.467  22.535  0.00  0.00    +0.000 C 
ATOM     14  C   UNL     1       0.004  10.490  20.434  0.00  0.00    +0.000 A 
ATOM     15  C   UNL     1       0.714   9.506  19.716  0.00  0.00    +0.000 A 
ATOM     16  C   UNL     1       0.692   9.633  18.213  0.00  0.00    +0.000 C 
ENDBRANCH   6   9
BRANCH   1  19
ATOM     17  C   UNL     1       6.917   5.916  16.209  0.00  0.00    +0.000 A 
ATOM     18  C   UNL     1       5.789   5.671  17.009  0.00  0.00    +0.000 A 
ATOM     19  C   UNL     1       4.900   4.646  16.686  0.00  0.00    +0.000 A 
ATOM     20  C   UNL     1       5.059   3.971  15.485  0.00  0.00    +0.000 A 
ATOM     21  C   UNL     1       6.189   4.165  14.687  0.00  0.00    +0.000 A 
ATOM     22  C   UNL     1       7.135   5.154  15.033  0.00  0.00    +0.000 A 
BRANCH  17  24
ATOM     23  C   UNL     1       7.712   7.494  17.822  0.00  0.00    +0.000 C 
ATOM     24  O   UNL     1       7.805   6.913  16.525  0.00  0.00    +0.000 OA
ENDBRANCH  17  24
BRANCH  21  25
ATOM     25  O   UNL     1       6.198   3.275  13.644  0.00  0.00    +0.000 OA
ATOM     26  C   UNL     1       5.331   3.471  12.541  0.00  0.00    +0.000 C 
ENDBRANCH  21  25
BRANCH  22  27
ATOM     27  O   UNL     1       8.181   5.299  14.162  0.00  0.00    +0.000 OA
ATOM     28  C   UNL     1       7.963   5.724  12.827  0.00  0.00    +0.000 C 
ENDBRANCH  22  27
ENDBRANCH   1  19
TORSDOF 5
ENDMDL
MODEL 3
REMARK VINA RESULT:      -7.6      2.856      4.687
REMARK  Name = 
REMARK  10 active torsions:
REMARK  status: ('A' for Active; 'I' for Inactive)
REMARK    1  A    between atoms: C_1  and  O_2
REMARK    2  A    between atoms: O_2  and  C_3
REMARK    3  A    between atoms: C_5  and  C_6
REMARK    4  A    between atoms: N_11  and  C_12
REMARK    5  A    between atoms: C_15  and  C_16
REMARK    6  A    between atoms: C_18  and  C_19
REMARK    7  A    between atoms: C_23  and  O_24
REMARK    8  A    between atoms: O_24  and  C_25
REMARK    9  A    between atoms: C_26  and  O_27
REMARK   10  A    between atoms: O_27  and  C_28
REMARK                            x       y       z     vdW  Elec       q    Type
REMARK                         _______ _______ _______ _____ _____    ______ ____
ROOT
ATOM      1  C   UNL     1       2.135   7.148  19.458  0.00  0.00    +0.000 C 
ATOM      2  O   UNL     1       1.923   6.559  20.515  0.00  0.00    +0.000 OA
ATOM      3  N   UNL     1       1.575   8.390  19.163  0.00  0.00    +0.000 N 
ATOM      4  C   UNL     1       0.859   9.123  20.221  0.00  0.00    +0.000 C 
ATOM      5  C   UNL     1       1.397  10.568  20.372  0.00  0.00    +0.000 C 
ATOM      6  N   UNL     1       1.433  11.226  19.047  0.00  0.00    +0.000 N 
ATOM      7  C   UNL     1       2.233  10.488  18.055  0.00  0.00    +0.000 C 
ATOM      8  C   UNL     1       1.582   9.102  17.873  0.00  0.00    +0.000 C 
ENDROOT
BRANCH   6   9
ATOM      9  C   UNL     1       1.117  12.562  18.879  0.00  0.00    +0.000 A 
ATOM     10  C   UNL     1       2.122  13.545  18.958  0.00  0.00    +0.000 A 
ATOM     11  C   UNL     1       1.844  14.914  18.878  0.00  0.00    +0.000 A 
ATOM     12  C   UNL     1       0.538  15.358  18.696  0.00  0.00    +0.000 A 
ATOM     13  C   UNL     1       0.201  16.815  18.640  0.00  0.00    +0.000 C 
ATOM     14  C   UNL     1      -0.476  14.404  18.596  0.00  0.00    +0.000 A 
ATOM     15  C   UNL     1      -0.211  13.023  18.703  0.00  0.00    +0.000 A 
ATOM     16  C   UNL     1      -1.412  12.111  18.677  0.00  0.00    +0.000 C 
ENDBRANCH   6   9
BRANCH   1  19
ATOM     17  C   UNL     1       5.054   6.487  17.148  0.00  0.00    +0.000 A 
ATOM     18  C   UNL     1       4.137   7.144  17.986  0.00  0.00    +0.000 A 
ATOM     19  C   UNL     1       3.011   6.476  18.467  0.00  0.00    +0.000 A 
ATOM     20  C   UNL     1       2.727   5.206  17.987  0.00  0.00    +0.000 A 
ATOM     21  C   UNL     1       3.636   4.513  17.184  0.00  0.00    +0.000 A 
ATOM     22  C   UNL     1       4.814   5.151  16.741  0.00  0.00    +0.000 A 
BRANCH  17  24
ATOM     23  C   UNL     1       7.328   7.135  17.514  0.00  0.00    +0.000 C 
ATOM     24  O   UNL     1       6.172   7.132  16.682  0.00  0.00    +0.000 OA
ENDBRANCH  17  24
BRANCH  21  25
ATOM     25  O   UNL     1       3.207   3.227  16.974  0.00  0.00    +0.000 OA
ATOM     26  C   UNL     1       2.428   2.573  17.959  0.00  0.00    +0.000 C 
ENDBRANCH  21  25
BRANCH  22  27
ATOM     27  O   UNL     1       5.615   4.404  15.920  0.00  0.00    +0.000 OA
ATOM     28  C   UNL     1       5.470   4.461  14.511  0.00  0.00    +0.000 C 
ENDBRANCH  22  27
ENDBRANCH   1  19
TORSDOF 5
ENDMDL
MODEL 4
REMARK VINA RESULT:      -7.6      2.945      4.851
REMARK  Name = 
REMARK  10 active torsions:
REMARK  status: ('A' for Active; 'I' for Inactive)
REMARK    1  A    between atoms: C_1  and  O_2
REMARK    2  A    between atoms: O_2  and  C_3
REMARK    3  A    between atoms: C_5  and  C_6
REMARK    4  A    between atoms: N_11  and  C_12
REMARK    5  A    between atoms: C_15  and  C_16
REMARK    6  A    between atoms: C_18  and  C_19
REMARK    7  A    between atoms: C_23  and  O_24
REMARK    8  A    between atoms: O_24  and  C_25
REMARK    9  A    between atoms: C_26  and  O_27
REMARK   10  A    between atoms: O_27  and  C_28
REMARK                            x       y       z     vdW  Elec       q    Type
REMARK                         _______ _______ _______ _____ _____    ______ ____
ROOT
ATOM      1  C   UNL     1       2.773   7.757  17.866  0.00  0.00    +0.000 C 
ATOM      2  O   UNL     1       3.052   8.114  16.723  0.00  0.00    +0.000 OA
ATOM      3  N   UNL     1       2.198   8.613  18.803  0.00  0.00    +0.000 N 
ATOM      4  C   UNL     1       1.723   9.938  18.368  0.00  0.00    +0.000 C 
ATOM      5  C   UNL     1       0.253  10.180  18.789  0.00  0.00    +0.000 C 
ATOM      6  N   UNL     1       0.094   9.882  20.230  0.00  0.00    +0.000 N 
ATOM      7  C   UNL     1       0.506   8.516  20.589  0.00  0.00    +0.000 C 
ATOM      8  C   UNL     1       2.002   8.377  20.244  0.00  0.00    +0.000 C 
ENDROOT
BRANCH   6   9
ATOM      9  C   UNL     1      -0.727  10.635  21.052  0.00  0.00    +0.000 A 
ATOM     10  C   UNL     1      -1.526  11.661  20.510  0.00  0.00    +0.000 A 
ATOM     11  C   UNL     1      -2.310  12.504  21.305  0.00  0.00    +0.000 A 
ATOM     12  C   UNL     1      -2.340  12.341  22.687  0.00  0.00    +0.000 A 
ATOM     13  C   UNL     1      -3.141  13.244  23.571  0.00  0.00    +0.000 C 
ATOM     14  C   UNL     1      -1.572  11.318  23.249  0.00  0.00    +0.000 A 
ATOM     15  C   UNL     1      -0.757  10.481  22.460  0.00  0.00    +0.000 A 
ATOM     16  C   UNL     1       0.095   9.486  23.206  0.00  0.00    +0.000 C 
ENDBRANCH   6   9
BRANCH   1  19
ATOM     17  C   UNL     1       2.387   4.035  18.405  0.00  0.00    +0.000 A 
ATOM     18  C   UNL     1       2.087   5.390  18.184  0.00  0.00    +0.000 A 
ATOM     19  C   UNL     1       3.091   6.357  18.238  0.00  0.00    +0.000 A 
ATOM     20  C   UNL     1       4.359   5.986  18.662  0.00  0.00    +0.000 A 
ATOM     21  C   UNL     1       4.698   4.644  18.853  0.00  0.00    +0.000 A 
ATOM     22  C   UNL     1       3.709   3.644  18.738  0.00  0.00    +0.000 A 
BRANCH  17  24
ATOM     23  C   UNL     1       0.756   2.714  19.552  0.00  0.00    +0.000 C 
ATOM     24  O   UNL     1       1.409   3.076  18.339  0.00  0.00    +0.000 OA
ENDBRANCH  17  24
BRANCH  21  25
ATOM     25  O   UNL     1       6.039   4.520  19.110  0.00  0.00    +0.000 OA
ATOM     26  C   UNL     1       6.984   4.864  18.112  0.00  0.00    +0.000 C 
ENDBRANCH  21  25
BRANCH  22  27
ATOM     27  O   UNL     1       4.130   2.367  18.990  0.00  0.00    +0.000 OA
ATOM     28  C   UNL     1       4.434   1.948  20.310  0.00  0.00    +0.000 C 
ENDBRANCH  22  27
ENDBRANCH   1  19
TORSDOF 5
ENDMDL
MODEL 5
REMARK VINA RESULT:      -7.6      3.236      5.228
REMARK  Name = 
REMARK  10 active torsions:
REMARK  status: ('A' for Active; 'I' for Inactive)
REMARK    1  A    between atoms: C_1  and  O_2
REMARK    2  A    between atoms: O_2  and  C_3
REMARK    3  A    between atoms: C_5  and  C_6
REMARK    4  A    between atoms: N_11  and  C_12
REMARK    5  A    between atoms: C_15  and  C_16
REMARK    6  A    between atoms: C_18  and  C_19
REMARK    7  A    between atoms: C_23  and  O_24
REMARK    8  A    between atoms: O_24  and  C_25
REMARK    9  A    between atoms: C_26  and  O_27
REMARK   10  A    between atoms: O_27  and  C_28
REMARK                            x       y       z     vdW  Elec       q    Type
REMARK                         _______ _______ _______ _____ _____    ______ ____
ROOT
ATOM      1  C   UNL     1       2.696   7.853  17.873  0.00  0.00    +0.000 C 
ATOM      2  O   UNL     1       2.980   8.226  16.737  0.00  0.00    +0.000 OA
ATOM      3  N   UNL     1       2.121   8.697  18.821  0.00  0.00    +0.000 N 
ATOM      4  C   UNL     1       1.653  10.031  18.405  0.00  0.00    +0.000 C 
ATOM      5  C   UNL     1       0.182  10.271  18.825  0.00  0.00    +0.000 C 
ATOM      6  N   UNL     1       0.018   9.953  20.261  0.00  0.00    +0.000 N 
ATOM      7  C   UNL     1       0.424   8.579  20.601  0.00  0.00    +0.000 C 
ATOM      8  C   UNL     1       1.921   8.441  20.258  0.00  0.00    +0.000 C 
ENDROOT
BRANCH   6   9
ATOM      9  C   UNL     1      -0.803  10.696  21.091  0.00  0.00    +0.000 A 
ATOM     10  C   UNL     1      -1.611  11.720  20.560  0.00  0.00    +0.000 A 
ATOM     11  C   UNL     1      -2.396  12.553  21.365  0.00  0.00    +0.000 A 
ATOM     12  C   UNL     1      -2.416  12.383  22.746  0.00  0.00    +0.000 A 
ATOM     13  C   UNL     1      -3.217  13.277  23.638  0.00  0.00    +0.000 C 
ATOM     14  C   UNL     1      -1.639  11.363  23.297  0.00  0.00    +0.000 A 
ATOM     15  C   UNL     1      -0.823  10.535  22.499  0.00  0.00    +0.000 A 
ATOM     16  C   UNL     1       0.040   9.541  23.235  0.00  0.00    +0.000 C 
ENDBRANCH   6   9
BRANCH   1  19
ATOM     17  C   UNL     1       4.647   4.788  18.915  0.00  0.00    +0.000 A 
ATOM     18  C   UNL     1       4.334   6.078  18.455  0.00  0.00    +0.000 A 
ATOM     19  C   UNL     1       3.009   6.446  18.225  0.00  0.00    +0.000 A 
ATOM     20  C   UNL     1       2.017   5.480  18.310  0.00  0.00    +0.000 A 
ATOM     21  C   UNL     1       2.291   4.200  18.800  0.00  0.00    +0.000 A 
ATOM     22  C   UNL     1       3.619   3.829  19.100  0.00  0.00    +0.000 A 
BRANCH  17  24
ATOM     23  C   UNL     1       6.928   5.451  19.198  0.00  0.00    +0.000 C 
ATOM     24  O   UNL     1       5.946   4.420  19.157  0.00  0.00    +0.000 OA
ENDBRANCH  17  24
BRANCH  21  25
ATOM     25  O   UNL     1       1.130   3.483  18.941  0.00  0.00    +0.000 OA
ATOM     26  C   UNL     1       0.656   3.154  20.235  0.00  0.00    +0.000 C 
ENDBRANCH  21  25
BRANCH  22  27
ATOM     27  O   UNL     1       3.788   2.540  19.528  0.00  0.00    +0.000 OA
ATOM     28  C   UNL     1       3.776   1.460  18.609  0.00  0.00    +0.000 C 
ENDBRANCH  22  27
ENDBRANCH   1  19
TORSDOF 5
ENDMDL
MODEL 6
REMARK VINA RESULT:      -7.3      2.919      4.398
REMARK  Name = 
REMARK  10 active torsions:
REMARK  status: ('A' for Active; 'I' for Inactive)
REMARK    1  A    between atoms: C_1  and  O_2
REMARK    2  A    between atoms: O_2  and  C_3
REMARK    3  A    between atoms: C_5  and  C_6
REMARK    4  A    between atoms: N_11  and  C_12
REMARK    5  A    between atoms: C_15  and  C_16
REMARK    6  A    between atoms: C_18  and  C_19
REMARK    7  A    between atoms: C_23  and  O_24
REMARK    8  A    between atoms: O_24  and  C_25
REMARK    9  A    between atoms: C_26  and  O_27
REMARK   10  A    between atoms: O_27  and  C_28
REMARK                            x       y       z     vdW  Elec       q    Type
REMARK                         _______ _______ _______ _____ _____    ______ ____
ROOT
ATOM      1  C   UNL     1       2.046   7.194  19.672  0.00  0.00    +0.000 C 
ATOM      2  O   UNL     1       1.833   6.642  20.749  0.00  0.00    +0.000 OA
ATOM      3  N   UNL     1       1.506   8.436  19.343  0.00  0.00    +0.000 N 
ATOM      4  C   UNL     1       0.814   9.216  20.384  0.00  0.00    +0.000 C 
ATOM      5  C   UNL     1       1.380  10.654  20.485  0.00  0.00    +0.000 C 
ATOM      6  N   UNL     1       1.416  11.269  19.139  0.00  0.00    +0.000 N 
ATOM      7  C   UNL     1       2.192  10.486  18.164  0.00  0.00    +0.000 C 
ATOM      8  C   UNL     1       1.514   9.108  18.032  0.00  0.00    +0.000 C 
ENDROOT
BRANCH   6   9
ATOM      9  C   UNL     1       1.123  12.605  18.932  0.00  0.00    +0.000 A 
ATOM     10  C   UNL     1       2.138  13.578  19.024  0.00  0.00    +0.000 A 
ATOM     11  C   UNL     1       1.881  14.948  18.905  0.00  0.00    +0.000 A 
ATOM     12  C   UNL     1       0.587  15.404  18.669  0.00  0.00    +0.000 A 
ATOM     13  C   UNL     1       0.271  16.863  18.570  0.00  0.00    +0.000 C 
ATOM     14  C   UNL     1      -0.436  14.460  18.554  0.00  0.00    +0.000 A 
ATOM     15  C   UNL     1      -0.192  13.079  18.700  0.00  0.00    +0.000 A 
ATOM     16  C   UNL     1      -1.403  12.181  18.653  0.00  0.00    +0.000 C 
ENDBRANCH   6   9
BRANCH   1  19
ATOM     17  C   UNL     1       3.261   4.530  17.281  0.00  0.00    +0.000 A 
ATOM     18  C   UNL     1       2.547   5.186  18.298  0.00  0.00    +0.000 A 
ATOM     19  C   UNL     1       2.900   6.475  18.695  0.00  0.00    +0.000 A 
ATOM     20  C   UNL     1       4.056   7.044  18.182  0.00  0.00    +0.000 A 
ATOM     21  C   UNL     1       4.766   6.434  17.144  0.00  0.00    +0.000 A 
ATOM     22  C   UNL     1       4.384   5.156  16.684  0.00  0.00    +0.000 A 
BRANCH  17  24
ATOM     23  C   UNL     1       2.545   2.327  17.879  0.00  0.00    +0.000 C 
ATOM     24  O   UNL     1       2.913   3.267  16.875  0.00  0.00    +0.000 OA
ENDBRANCH  17  24
BRANCH  21  25
ATOM     25  O   UNL     1       5.769   7.259  16.701  0.00  0.00    +0.000 OA
ATOM     26  C   UNL     1       7.006   7.299  17.390  0.00  0.00    +0.000 C 
ENDBRANCH  21  25
BRANCH  22  27
ATOM     27  O   UNL     1       5.172   4.626  15.698  0.00  0.00    +0.000 OA
ATOM     28  C   UNL     1       6.364   3.927  16.015  0.00  0.00    +0.000 C 
ENDBRANCH  22  27
ENDBRANCH   1  19
TORSDOF 5
ENDMDL
MODEL 7
REMARK VINA RESULT:      -7.2      2.759      4.880
REMARK  Name = 
REMARK  10 active torsions:
REMARK  status: ('A' for Active; 'I' for Inactive)
REMARK    1  A    between atoms: C_1  and  O_2
REMARK    2  A    between atoms: O_2  and  C_3
REMARK    3  A    between atoms: C_5  and  C_6
REMARK    4  A    between atoms: N_11  and  C_12
REMARK    5  A    between atoms: C_15  and  C_16
REMARK    6  A    between atoms: C_18  and  C_19
REMARK    7  A    between atoms: C_23  and  O_24
REMARK    8  A    between atoms: O_24  and  C_25
REMARK    9  A    between atoms: C_26  and  O_27
REMARK   10  A    between atoms: O_27  and  C_28
REMARK                            x       y       z     vdW  Elec       q    Type
REMARK                         _______ _______ _______ _____ _____    ______ ____
ROOT
ATOM      1  C   UNL     1       2.730   7.637  17.999  0.00  0.00    +0.000 C 
ATOM      2  O   UNL     1       2.984   7.901  16.826  0.00  0.00    +0.000 OA
ATOM      3  N   UNL     1       2.174   8.566  18.877  0.00  0.00    +0.000 N 
ATOM      4  C   UNL     1       1.688   9.852  18.347  0.00  0.00    +0.000 C 
ATOM      5  C   UNL     1       0.227  10.127  18.779  0.00  0.00    +0.000 C 
ATOM      6  N   UNL     1       0.099   9.946  20.243  0.00  0.00    +0.000 N 
ATOM      7  C   UNL     1       0.521   8.613  20.701  0.00  0.00    +0.000 C 
ATOM      8  C   UNL     1       2.010   8.447  20.336  0.00  0.00    +0.000 C 
ENDROOT
BRANCH   6   9
ATOM      9  C   UNL     1      -0.705  10.762  21.018  0.00  0.00    +0.000 A 
ATOM     10  C   UNL     1      -0.759  10.587  22.415  0.00  0.00    +0.000 A 
ATOM     11  C   UNL     1      -1.617  11.329  23.234  0.00  0.00    +0.000 A 
ATOM     12  C   UNL     1      -2.450  12.299  22.686  0.00  0.00    +0.000 A 
ATOM     13  C   UNL     1      -3.402  13.088  23.527  0.00  0.00    +0.000 C 
ATOM     14  C   UNL     1      -2.402  12.508  21.306  0.00  0.00    +0.000 A 
ATOM     15  C   UNL     1      -1.562  11.747  20.467  0.00  0.00    +0.000 A 
ATOM     16  C   UNL     1      -1.686  12.008  18.987  0.00  0.00    +0.000 C 
ENDBRANCH   6   9
BRANCH   1  19
ATOM     17  C   UNL     1       2.296   4.066  19.161  0.00  0.00    +0.000 A 
ATOM     18  C   UNL     1       2.025   5.404  18.830  0.00  0.00    +0.000 A 
ATOM     19  C   UNL     1       3.058   6.271  18.476  0.00  0.00    +0.000 A 
ATOM     20  C   UNL     1       4.371   5.839  18.601  0.00  0.00    +0.000 A 
ATOM     21  C   UNL     1       4.672   4.506  18.891  0.00  0.00    +0.000 A 
ATOM     22  C   UNL     1       3.635   3.597  19.189  0.00  0.00    +0.000 A 
BRANCH  17  24
ATOM     23  C   UNL     1       1.017   3.004  20.881  0.00  0.00    +0.000 C 
ATOM     24  O   UNL     1       1.285   3.202  19.497  0.00  0.00    +0.000 OA
ENDBRANCH  17  24
BRANCH  21  25
ATOM     25  O   UNL     1       6.024   4.290  18.802  0.00  0.00    +0.000 OA
ATOM     26  C   UNL     1       6.726   4.683  17.637  0.00  0.00    +0.000 C 
ENDBRANCH  21  25
BRANCH  22  27
ATOM     27  O   UNL     1       4.036   2.328  19.506  0.00  0.00    +0.000 OA
ATOM     28  C   UNL     1       3.822   1.250  18.609  0.00  0.00    +0.000 C 
ENDBRANCH  22  27
ENDBRANCH   1  19
TORSDOF 5
ENDMDL
MODEL 8
REMARK VINA RESULT:      -7.1      2.971      5.118
REMARK  Name = 
REMARK  10 active torsions:
REMARK  status: ('A' for Active; 'I' for Inactive)
REMARK    1  A    between atoms: C_1  and  O_2
REMARK    2  A    between atoms: O_2  and  C_3
REMARK    3  A    between atoms: C_5  and  C_6
REMARK    4  A    between atoms: N_11  and  C_12
REMARK    5  A    between atoms: C_15  and  C_16
REMARK    6  A    between atoms: C_18  and  C_19
REMARK    7  A    between atoms: C_23  and  O_24
REMARK    8  A    between atoms: O_24  and  C_25
REMARK    9  A    between atoms: C_26  and  O_27
REMARK   10  A    between atoms: O_27  and  C_28
REMARK                            x       y       z     vdW  Elec       q    Type
REMARK                         _______ _______ _______ _____ _____    ______ ____
ROOT
ATOM      1  C   UNL     1       2.689   7.789  17.941  0.00  0.00    +0.000 C 
ATOM      2  O   UNL     1       2.960   8.083  16.779  0.00  0.00    +0.000 OA
ATOM      3  N   UNL     1       2.126   8.697  18.836  0.00  0.00    +0.000 N 
ATOM      4  C   UNL     1       1.653   9.999  18.334  0.00  0.00    +0.000 C 
ATOM      5  C   UNL     1       0.187  10.270  18.754  0.00  0.00    +0.000 C 
ATOM      6  N   UNL     1       0.040  10.051  20.210  0.00  0.00    +0.000 N 
ATOM      7  C   UNL     1       0.449   8.704  20.638  0.00  0.00    +0.000 C 
ATOM      8  C   UNL     1       1.941   8.540  20.289  0.00  0.00    +0.000 C 
ENDROOT
BRANCH   6   9
ATOM      9  C   UNL     1      -0.771  10.851  20.997  0.00  0.00    +0.000 A 
ATOM     10  C   UNL     1      -0.786  10.689  22.396  0.00  0.00    +0.000 A 
ATOM     11  C   UNL     1      -1.646  11.414  23.228  0.00  0.00    +0.000 A 
ATOM     12  C   UNL     1      -2.522  12.351  22.690  0.00  0.00    +0.000 A 
ATOM     13  C   UNL     1      -3.479  13.120  23.547  0.00  0.00    +0.000 C 
ATOM     14  C   UNL     1      -2.514  12.546  21.307  0.00  0.00    +0.000 A 
ATOM     15  C   UNL     1      -1.672  11.802  20.457  0.00  0.00    +0.000 A 
ATOM     16  C   UNL     1      -1.839  12.042  18.977  0.00  0.00    +0.000 C 
ENDBRANCH   6   9
BRANCH   1  19
ATOM     17  C   UNL     1       4.670   4.756  19.020  0.00  0.00    +0.000 A 
ATOM     18  C   UNL     1       4.336   6.009  18.481  0.00  0.00    +0.000 A 
ATOM     19  C   UNL     1       3.004   6.409  18.386  0.00  0.00    +0.000 A 
ATOM     20  C   UNL     1       2.005   5.495  18.688  0.00  0.00    +0.000 A 
ATOM     21  C   UNL     1       2.303   4.256  19.261  0.00  0.00    +0.000 A 
ATOM     22  C   UNL     1       3.647   3.861  19.426  0.00  0.00    +0.000 A 
BRANCH  17  24
ATOM     23  C   UNL     1       6.856   4.667  18.052  0.00  0.00    +0.000 C 
ATOM     24  O   UNL     1       5.979   4.359  19.131  0.00  0.00    +0.000 OA
ENDBRANCH  17  24
BRANCH  21  25
ATOM     25  O   UNL     1       1.150   3.603  19.616  0.00  0.00    +0.000 OA
ATOM     26  C   UNL     1       0.613   2.605  18.766  0.00  0.00    +0.000 C 
ENDBRANCH  21  25
BRANCH  22  27
ATOM     27  O   UNL     1       3.833   2.611  19.951  0.00  0.00    +0.000 OA
ATOM     28  C   UNL     1       3.977   1.480  19.108  0.00  0.00    +0.000 C 
ENDBRANCH  22  27
ENDBRANCH   1  19
TORSDOF 5
ENDMDL
MODEL 9
REMARK VINA RESULT:      -7.0      5.308     10.591
REMARK  Name = 
REMARK  10 active torsions:
REMARK  status: ('A' for Active; 'I' for Inactive)
REMARK    1  A    between atoms: C_1  and  O_2
REMARK    2  A    between atoms: O_2  and  C_3
REMARK    3  A    between atoms: C_5  and  C_6
REMARK    4  A    between atoms: N_11  and  C_12
REMARK    5  A    between atoms: C_15  and  C_16
REMARK    6  A    between atoms: C_18  and  C_19
REMARK    7  A    between atoms: C_23  and  O_24
REMARK    8  A    between atoms: O_24  and  C_25
REMARK    9  A    between atoms: C_26  and  O_27
REMARK   10  A    between atoms: O_27  and  C_28
REMARK                            x       y       z     vdW  Elec       q    Type
REMARK                         _______ _______ _______ _____ _____    ______ ____
ROOT
ATOM      1  C   UNL     1      -1.275  11.729  19.471  0.00  0.00    +0.000 C 
ATOM      2  O   UNL     1      -1.884  12.214  18.521  0.00  0.00    +0.000 OA
ATOM      3  N   UNL     1      -0.621  10.500  19.399  0.00  0.00    +0.000 N 
ATOM      4  C   UNL     1      -0.482   9.838  18.090  0.00  0.00    +0.000 C 
ATOM      5  C   UNL     1       0.992   9.461  17.800  0.00  0.00    +0.000 C 
ATOM      6  N   UNL     1       1.553   8.725  18.955  0.00  0.00    +0.000 N 
ATOM      7  C   UNL     1       1.460   9.472  20.220  0.00  0.00    +0.000 C 
ATOM      8  C   UNL     1      -0.035   9.720  20.503  0.00  0.00    +0.000 C 
ENDROOT
BRANCH   6   9
ATOM      9  C   UNL     1       2.428   7.665  18.798  0.00  0.00    +0.000 A 
ATOM     10  C   UNL     1       3.343   7.651  17.728  0.00  0.00    +0.000 A 
ATOM     11  C   UNL     1       4.192   6.568  17.476  0.00  0.00    +0.000 A 
ATOM     12  C   UNL     1       4.171   5.450  18.305  0.00  0.00    +0.000 A 
ATOM     13  C   UNL     1       5.040   4.260  18.046  0.00  0.00    +0.000 C 
ATOM     14  C   UNL     1       3.286   5.445  19.386  0.00  0.00    +0.000 A 
ATOM     15  C   UNL     1       2.407   6.519  19.632  0.00  0.00    +0.000 A 
ATOM     16  C   UNL     1       1.437   6.338  20.772  0.00  0.00    +0.000 C 
ENDBRANCH   6   9
BRANCH   1  19
ATOM     17  C   UNL     1      -2.248  12.913  22.927  0.00  0.00    +0.000 A 
ATOM     18  C   UNL     1      -2.294  12.298  21.665  0.00  0.00    +0.000 A 
ATOM     19  C   UNL     1      -1.270  12.498  20.740  0.00  0.00    +0.000 A 
ATOM     20  C   UNL     1      -0.281  13.429  21.023  0.00  0.00    +0.000 A 
ATOM     21  C   UNL     1      -0.187  14.029  22.281  0.00  0.00    +0.000 A 
ATOM     22  C   UNL     1      -1.181  13.787  23.254  0.00  0.00    +0.000 A 
BRANCH  17  24
ATOM     23  C   UNL     1      -4.528  13.261  23.565  0.00  0.00    +0.000 C 
ATOM     24  O   UNL     1      -3.245  12.711  23.848  0.00  0.00    +0.000 OA
ENDBRANCH  17  24
BRANCH  21  25
ATOM     25  O   UNL     1       0.956  14.782  22.369  0.00  0.00    +0.000 OA
ATOM     26  C   UNL     1       1.010  16.057  21.754  0.00  0.00    +0.000 C 
ENDBRANCH  21  25
BRANCH  22  27
ATOM     27  O   UNL     1      -1.023  14.458  24.436  0.00  0.00    +0.000 OA
ATOM     28  C   UNL     1      -1.613  15.733  24.634  0.00  0.00    +0.000 C 
ENDBRANCH  22  27
ENDBRANCH   1  19
TORSDOF 5
ENDMDL
