MODEL 1
REMARK VINA RESULT:      -6.9      0.000      0.000
REMARK  Name = 
REMARK  12 active torsions:
REMARK  status: ('A' for Active; 'I' for Inactive)
REMARK    1  A    between atoms: C_1  and  O_2
REMARK    2  A    between atoms: O_2  and  C_3
REMARK    3  A    between atoms: C_6  and  O_7
REMARK    4  A    between atoms: O_7  and  C_8
REMARK    5  A    between atoms: C_9  and  S_10
REMARK    6  A    between atoms: S_10  and  N_13
REMARK    7  A    between atoms: N_13  and  C_14
REMARK    8  A    between atoms: N_13  and  C_15
REMARK    9  A    between atoms: C_15  and  C_16
REMARK   10  A    between atoms: N_18  and  C_19
REMARK   11  A    between atoms: C_24  and  O_25
REMARK   12  A    between atoms: O_25  and  C_26
REMARK                            x       y       z     vdW  Elec       q    Type
REMARK                         _______ _______ _______ _____ _____    ______ ____
ROOT
ATOM      1  N   UNL     1       1.017   9.798  18.749  0.00  0.00    +0.000 NA
ATOM      2  C   UNL     1       2.019  10.613  18.011  0.00  0.00    +0.000 C 
ENDROOT
BRANCH   1   3
ATOM      3  S   UNL     1      -0.194  10.745  19.550  0.00  0.00    +0.000 S 
ATOM      4  O   UNL     1       0.313  12.105  19.546  0.00  0.00    +0.000 OA
ATOM      5  O   UNL     1      -0.515  10.093  20.806  0.00  0.00    +0.000 OA
BRANCH   3  10
ATOM      6  C   UNL     1      -2.625  10.156  16.387  0.00  0.00    +0.000 A 
ATOM      7  C   UNL     1      -3.733  10.941  16.695  0.00  0.00    +0.000 A 
ATOM      8  C   UNL     1      -3.817  11.604  17.920  0.00  0.00    +0.000 A 
ATOM      9  C   UNL     1      -2.771  11.537  18.849  0.00  0.00    +0.000 A 
ATOM     10  C   UNL     1      -1.670  10.720  18.555  0.00  0.00    +0.000 A 
ATOM     11  C   UNL     1      -1.606  10.024  17.327  0.00  0.00    +0.000 A 
BRANCH   6  13
ATOM     12  C   UNL     1      -3.634  10.122  14.233  0.00  0.00    +0.000 C 
ATOM     13  O   UNL     1      -2.652   9.622  15.131  0.00  0.00    +0.000 OA
ENDBRANCH   6  13
BRANCH   9  14
ATOM     14  O   UNL     1      -2.794  12.236  20.026  0.00  0.00    +0.000 OA
ATOM     15  C   UNL     1      -4.001  12.958  20.283  0.00  0.00    +0.000 C 
ENDBRANCH   9  14
ENDBRANCH   3  10
ENDBRANCH   1   3
BRANCH   1  16
ATOM     16  C   UNL     1       1.682   8.904  19.769  0.00  0.00    +0.000 C 
BRANCH  16  17
ATOM     17  C   UNL     1       1.935   7.467  19.343  0.00  0.00    +0.000 C 
ATOM     18  O   UNL     1       2.096   7.163  18.164  0.00  0.00    +0.000 OA
ATOM     19  N   UNL     1       1.983   6.589  20.416  0.00  0.00    +0.000 N 
ATOM     20  H   UNL     1       1.340   6.848  21.159  0.00  0.00    +0.000 HD
BRANCH  19  21
ATOM     21  C   UNL     1       2.261   5.212  20.251  0.00  0.00    +0.000 A 
ATOM     22  C   UNL     1       1.196   4.334  20.501  0.00  0.00    +0.000 A 
ATOM     23  C   UNL     1       1.334   2.960  20.292  0.00  0.00    +0.000 A 
ATOM     24  C   UNL     1       2.550   2.441  19.860  0.00  0.00    +0.000 A 
ATOM     25  C   UNL     1       3.629   3.300  19.648  0.00  0.00    +0.000 A 
ATOM     26  C   UNL     1       3.504   4.683  19.854  0.00  0.00    +0.000 A 
BRANCH  26  27
ATOM     27  O   UNL     1       4.666   5.374  19.628  0.00  0.00    +0.000 OA
ATOM     28  C   UNL     1       5.143   5.366  18.287  0.00  0.00    +0.000 C 
ENDBRANCH  26  27
ENDBRANCH  19  21
ENDBRANCH  16  17
ENDBRANCH   1  16
TORSDOF 8
ENDMDL
MODEL 2
REMARK VINA RESULT:      -6.9      3.422      8.682
REMARK  Name = 
REMARK  12 active torsions:
REMARK  status: ('A' for Active; 'I' for Inactive)
REMARK    1  A    between atoms: C_1  and  O_2
REMARK    2  A    between atoms: O_2  and  C_3
REMARK    3  A    between atoms: C_6  and  O_7
REMARK    4  A    between atoms: O_7  and  C_8
REMARK    5  A    between atoms: C_9  and  S_10
REMARK    6  A    between atoms: S_10  and  N_13
REMARK    7  A    between atoms: N_13  and  C_14
REMARK    8  A    between atoms: N_13  and  C_15
REMARK    9  A    between atoms: C_15  and  C_16
REMARK   10  A    between atoms: N_18  and  C_19
REMARK   11  A    between atoms: C_24  and  O_25
REMARK   12  A    between atoms: O_25  and  C_26
REMARK                            x       y       z     vdW  Elec       q    Type
REMARK                         _______ _______ _______ _____ _____    ______ ____
ROOT
ATOM      1  N   UNL     1       2.917   4.117  19.605  0.00  0.00    +0.000 NA
ATOM      2  C   UNL     1       2.304   3.611  20.863  0.00  0.00    +0.000 C 
ENDROOT
BRANCH   1   3
ATOM      3  S   UNL     1       4.155   3.082  18.971  0.00  0.00    +0.000 S 
ATOM      4  O   UNL     1       3.452   2.012  18.286  0.00  0.00    +0.000 OA
ATOM      5  O   UNL     1       5.076   2.773  20.047  0.00  0.00    +0.000 OA
BRANCH   3  10
ATOM      6  C   UNL     1       5.445   4.343  15.364  0.00  0.00    +0.000 A 
ATOM      7  C   UNL     1       6.634   4.999  15.670  0.00  0.00    +0.000 A 
ATOM      8  C   UNL     1       7.037   5.160  16.997  0.00  0.00    +0.000 A 
ATOM      9  C   UNL     1       6.283   4.624  18.049  0.00  0.00    +0.000 A 
ATOM     10  C   UNL     1       5.069   3.994  17.744  0.00  0.00    +0.000 A 
ATOM     11  C   UNL     1       4.649   3.864  16.401  0.00  0.00    +0.000 A 
BRANCH   6  13
ATOM     12  C   UNL     1       6.325   3.870  13.205  0.00  0.00    +0.000 C 
ATOM     13  O   UNL     1       5.214   4.205  14.026  0.00  0.00    +0.000 OA
ENDBRANCH   6  13
BRANCH   9  14
ATOM     14  O   UNL     1       6.692   4.703  19.353  0.00  0.00    +0.000 OA
ATOM     15  C   UNL     1       7.674   5.706  19.625  0.00  0.00    +0.000 C 
ENDBRANCH   9  14
ENDBRANCH   3  10
ENDBRANCH   1   3
BRANCH   1  16
ATOM     16  C   UNL     1       3.497   5.499  19.794  0.00  0.00    +0.000 C 
BRANCH  16  17
ATOM     17  C   UNL     1       2.681   6.655  19.240  0.00  0.00    +0.000 C 
ATOM     18  O   UNL     1       2.488   6.787  18.034  0.00  0.00    +0.000 OA
ATOM     19  N   UNL     1       2.185   7.488  20.232  0.00  0.00    +0.000 N 
ATOM     20  H   UNL     1       2.824   7.579  21.017  0.00  0.00    +0.000 HD
BRANCH  19  21
ATOM     21  C   UNL     1       1.355   8.596  19.941  0.00  0.00    +0.000 A 
ATOM     22  C   UNL     1       1.592   9.239  18.718  0.00  0.00    +0.000 A 
ATOM     23  C   UNL     1       0.779  10.293  18.291  0.00  0.00    +0.000 A 
ATOM     24  C   UNL     1      -0.261  10.738  19.098  0.00  0.00    +0.000 A 
ATOM     25  C   UNL     1      -0.481  10.133  20.336  0.00  0.00    +0.000 A 
ATOM     26  C   UNL     1       0.327   9.074  20.776  0.00  0.00    +0.000 A 
BRANCH  26  27
ATOM     27  O   UNL     1      -0.008   8.616  22.025  0.00  0.00    +0.000 OA
ATOM     28  C   UNL     1      -0.062   9.599  23.052  0.00  0.00    +0.000 C 
ENDBRANCH  26  27
ENDBRANCH  19  21
ENDBRANCH  16  17
ENDBRANCH   1  16
TORSDOF 8
ENDMDL
MODEL 3
REMARK VINA RESULT:      -6.8      5.625      9.036
REMARK  Name = 
REMARK  12 active torsions:
REMARK  status: ('A' for Active; 'I' for Inactive)
REMARK    1  A    between atoms: C_1  and  O_2
REMARK    2  A    between atoms: O_2  and  C_3
REMARK    3  A    between atoms: C_6  and  O_7
REMARK    4  A    between atoms: O_7  and  C_8
REMARK    5  A    between atoms: C_9  and  S_10
REMARK    6  A    between atoms: S_10  and  N_13
REMARK    7  A    between atoms: N_13  and  C_14
REMARK    8  A    between atoms: N_13  and  C_15
REMARK    9  A    between atoms: C_15  and  C_16
REMARK   10  A    between atoms: N_18  and  C_19
REMARK   11  A    between atoms: C_24  and  O_25
REMARK   12  A    between atoms: O_25  and  C_26
REMARK                            x       y       z     vdW  Elec       q    Type
REMARK                         _______ _______ _______ _____ _____    ______ ____
ROOT
ATOM      1  N   UNL     1       6.961   6.735  18.230  0.00  0.00    +0.000 NA
ATOM      2  C   UNL     1       7.480   5.852  19.310  0.00  0.00    +0.000 C 
ENDROOT
BRANCH   1   3
ATOM      3  S   UNL     1       6.127   5.880  16.974  0.00  0.00    +0.000 S 
ATOM      4  O   UNL     1       6.913   4.685  16.731  0.00  0.00    +0.000 OA
ATOM      5  O   UNL     1       5.867   6.812  15.893  0.00  0.00    +0.000 OA
BRANCH   3  10
ATOM      6  C   UNL     1       3.041   3.482  17.969  0.00  0.00    +0.000 A 
ATOM      7  C   UNL     1       1.998   4.382  18.173  0.00  0.00    +0.000 A 
ATOM      8  C   UNL     1       2.224   5.758  18.104  0.00  0.00    +0.000 A 
ATOM      9  C   UNL     1       3.488   6.266  17.781  0.00  0.00    +0.000 A 
ATOM     10  C   UNL     1       4.546   5.362  17.610  0.00  0.00    +0.000 A 
ATOM     11  C   UNL     1       4.319   3.971  17.714  0.00  0.00    +0.000 A 
BRANCH   6  13
ATOM     12  C   UNL     1       1.680   1.804  18.965  0.00  0.00    +0.000 C 
ATOM     13  O   UNL     1       2.659   2.171  18.002  0.00  0.00    +0.000 OA
ENDBRANCH   6  13
BRANCH   9  14
ATOM     14  O   UNL     1       3.720   7.607  17.636  0.00  0.00    +0.000 OA
ATOM     15  C   UNL     1       2.591   8.451  17.876  0.00  0.00    +0.000 C 
ENDBRANCH   9  14
ENDBRANCH   3  10
ENDBRANCH   1   3
BRANCH   1  16
ATOM     16  C   UNL     1       8.072   7.546  17.604  0.00  0.00    +0.000 C 
BRANCH  16  17
ATOM     17  C   UNL     1       8.192   8.991  18.059  0.00  0.00    +0.000 C 
ATOM     18  O   UNL     1       7.436   9.863  17.638  0.00  0.00    +0.000 OA
ATOM     19  N   UNL     1       9.205   9.181  18.987  0.00  0.00    +0.000 N 
ATOM     20  H   UNL     1      10.005   8.580  18.815  0.00  0.00    +0.000 HD
BRANCH  19  21
ATOM     21  C   UNL     1       9.456  10.439  19.582  0.00  0.00    +0.000 A 
ATOM     22  C   UNL     1       8.962  10.614  20.883  0.00  0.00    +0.000 A 
ATOM     23  C   UNL     1       9.221  11.787  21.598  0.00  0.00    +0.000 A 
ATOM     24  C   UNL     1       9.950  12.813  21.008  0.00  0.00    +0.000 A 
ATOM     25  C   UNL     1      10.411  12.668  19.699  0.00  0.00    +0.000 A 
ATOM     26  C   UNL     1      10.159  11.495  18.970  0.00  0.00    +0.000 A 
BRANCH  26  27
ATOM     27  O   UNL     1      10.657  11.530  17.693  0.00  0.00    +0.000 OA
ATOM     28  C   UNL     1      10.963  12.822  17.182  0.00  0.00    +0.000 C 
ENDBRANCH  26  27
ENDBRANCH  19  21
ENDBRANCH  16  17
ENDBRANCH   1  16
TORSDOF 8
ENDMDL
MODEL 4
REMARK VINA RESULT:      -6.7      3.601      8.577
REMARK  Name = 
REMARK  12 active torsions:
REMARK  status: ('A' for Active; 'I' for Inactive)
REMARK    1  A    between atoms: C_1  and  O_2
REMARK    2  A    between atoms: O_2  and  C_3
REMARK    3  A    between atoms: C_6  and  O_7
REMARK    4  A    between atoms: O_7  and  C_8
REMARK    5  A    between atoms: C_9  and  S_10
REMARK    6  A    between atoms: S_10  and  N_13
REMARK    7  A    between atoms: N_13  and  C_14
REMARK    8  A    between atoms: N_13  and  C_15
REMARK    9  A    between atoms: C_15  and  C_16
REMARK   10  A    between atoms: N_18  and  C_19
REMARK   11  A    between atoms: C_24  and  O_25
REMARK   12  A    between atoms: O_25  and  C_26
REMARK                            x       y       z     vdW  Elec       q    Type
REMARK                         _______ _______ _______ _____ _____    ______ ____
ROOT
ATOM      1  N   UNL     1       3.037   4.757  18.417  0.00  0.00    +0.000 NA
ATOM      2  C   UNL     1       1.691   4.177  18.164  0.00  0.00    +0.000 C 
ENDROOT
BRANCH   1   3
ATOM      3  S   UNL     1       4.338   3.654  18.108  0.00  0.00    +0.000 S 
ATOM      4  O   UNL     1       3.711   2.453  17.588  0.00  0.00    +0.000 OA
ATOM      5  O   UNL     1       5.161   3.586  19.300  0.00  0.00    +0.000 OA
BRANCH   3  10
ATOM      6  C   UNL     1       6.242   4.002  14.570  0.00  0.00    +0.000 A 
ATOM      7  C   UNL     1       7.177   5.004  14.816  0.00  0.00    +0.000 A 
ATOM      8  C   UNL     1       7.198   5.672  16.041  0.00  0.00    +0.000 A 
ATOM      9  C   UNL     1       6.314   5.320  17.069  0.00  0.00    +0.000 A 
ATOM     10  C   UNL     1       5.350   4.336  16.811  0.00  0.00    +0.000 A 
ATOM     11  C   UNL     1       5.312   3.686  15.557  0.00  0.00    +0.000 A 
BRANCH   6  13
ATOM     12  C   UNL     1       5.313   3.534  12.431  0.00  0.00    +0.000 C 
ATOM     13  O   UNL     1       6.383   3.395  13.356  0.00  0.00    +0.000 OA
ENDBRANCH   6  13
BRANCH   9  14
ATOM     14  O   UNL     1       6.360   5.908  18.305  0.00  0.00    +0.000 OA
ATOM     15  C   UNL     1       7.660   5.984  18.896  0.00  0.00    +0.000 C 
ENDBRANCH   9  14
ENDBRANCH   3  10
ENDBRANCH   1   3
BRANCH   1  16
ATOM     16  C   UNL     1       3.159   5.259  19.837  0.00  0.00    +0.000 C 
BRANCH  16  17
ATOM     17  C   UNL     1       2.023   6.132  20.344  0.00  0.00    +0.000 C 
ATOM     18  O   UNL     1       1.018   5.648  20.857  0.00  0.00    +0.000 OA
ATOM     19  N   UNL     1       2.272   7.487  20.181  0.00  0.00    +0.000 N 
ATOM     20  H   UNL     1       2.797   7.685  19.334  0.00  0.00    +0.000 HD
BRANCH  19  21
ATOM     21  C   UNL     1       1.371   8.479  20.632  0.00  0.00    +0.000 A 
ATOM     22  C   UNL     1       1.141   8.518  22.015  0.00  0.00    +0.000 A 
ATOM     23  C   UNL     1       0.332   9.508  22.581  0.00  0.00    +0.000 A 
ATOM     24  C   UNL     1      -0.282  10.452  21.767  0.00  0.00    +0.000 A 
ATOM     25  C   UNL     1      -0.094  10.399  20.385  0.00  0.00    +0.000 A 
ATOM     26  C   UNL     1       0.716   9.410  19.804  0.00  0.00    +0.000 A 
BRANCH  26  27
ATOM     27  O   UNL     1       0.769   9.485  18.436  0.00  0.00    +0.000 OA
ATOM     28  C   UNL     1       1.948  10.066  17.891  0.00  0.00    +0.000 C 
ENDBRANCH  26  27
ENDBRANCH  19  21
ENDBRANCH  16  17
ENDBRANCH   1  16
TORSDOF 8
ENDMDL
MODEL 5
REMARK VINA RESULT:      -6.7      6.812     10.018
REMARK  Name = 
REMARK  12 active torsions:
REMARK  status: ('A' for Active; 'I' for Inactive)
REMARK    1  A    between atoms: C_1  and  O_2
REMARK    2  A    between atoms: O_2  and  C_3
REMARK    3  A    between atoms: C_6  and  O_7
REMARK    4  A    between atoms: O_7  and  C_8
REMARK    5  A    between atoms: C_9  and  S_10
REMARK    6  A    between atoms: S_10  and  N_13
REMARK    7  A    between atoms: N_13  and  C_14
REMARK    8  A    between atoms: N_13  and  C_15
REMARK    9  A    between atoms: C_15  and  C_16
REMARK   10  A    between atoms: N_18  and  C_19
REMARK   11  A    between atoms: C_24  and  O_25
REMARK   12  A    between atoms: O_25  and  C_26
REMARK                            x       y       z     vdW  Elec       q    Type
REMARK                         _______ _______ _______ _____ _____    ______ ____
ROOT
ATOM      1  N   UNL     1       7.648   6.679  17.501  0.00  0.00    +0.000 NA
ATOM      2  C   UNL     1       6.402   7.300  16.975  0.00  0.00    +0.000 C 
ENDROOT
BRANCH   1   3
ATOM      3  S   UNL     1       7.434   5.047  18.044  0.00  0.00    +0.000 S 
ATOM      4  O   UNL     1       7.850   5.044  19.434  0.00  0.00    +0.000 OA
ATOM      5  O   UNL     1       8.082   4.168  17.089  0.00  0.00    +0.000 OA
BRANCH   3  10
ATOM      6  C   UNL     1       3.660   4.416  19.319  0.00  0.00    +0.000 A 
ATOM      7  C   UNL     1       3.077   3.744  18.248  0.00  0.00    +0.000 A 
ATOM      8  C   UNL     1       3.787   3.541  17.064  0.00  0.00    +0.000 A 
ATOM      9  C   UNL     1       5.117   3.963  16.940  0.00  0.00    +0.000 A 
ATOM     10  C   UNL     1       5.693   4.671  18.004  0.00  0.00    +0.000 A 
ATOM     11  C   UNL     1       4.958   4.903  19.188  0.00  0.00    +0.000 A 
BRANCH   6  13
ATOM     12  C   UNL     1       1.624   3.802  20.385  0.00  0.00    +0.000 C 
ATOM     13  O   UNL     1       2.871   4.483  20.431  0.00  0.00    +0.000 OA
ENDBRANCH   6  13
BRANCH   9  14
ATOM     14  O   UNL     1       5.860   3.713  15.817  0.00  0.00    +0.000 OA
ATOM     15  C   UNL     1       5.502   4.481  14.665  0.00  0.00    +0.000 C 
ENDBRANCH   9  14
ENDBRANCH   3  10
ENDBRANCH   1   3
BRANCH   1  16
ATOM     16  C   UNL     1       8.228   7.491  18.636  0.00  0.00    +0.000 C 
BRANCH  16  17
ATOM     17  C   UNL     1       8.413   8.977  18.376  0.00  0.00    +0.000 C 
ATOM     18  O   UNL     1       7.733   9.576  17.547  0.00  0.00    +0.000 OA
ATOM     19  N   UNL     1       9.391   9.546  19.179  0.00  0.00    +0.000 N 
ATOM     20  H   UNL     1      10.160   8.909  19.363  0.00  0.00    +0.000 HD
BRANCH  19  21
ATOM     21  C   UNL     1       9.689  10.928  19.140  0.00  0.00    +0.000 A 
ATOM     22  C   UNL     1      10.306  11.392  17.970  0.00  0.00    +0.000 A 
ATOM     23  C   UNL     1      10.572  12.752  17.789  0.00  0.00    +0.000 A 
ATOM     24  C   UNL     1      10.253  13.661  18.790  0.00  0.00    +0.000 A 
ATOM     25  C   UNL     1       9.676  13.206  19.977  0.00  0.00    +0.000 A 
ATOM     26  C   UNL     1       9.403  11.843  20.171  0.00  0.00    +0.000 A 
BRANCH  26  27
ATOM     27  O   UNL     1       8.864  11.566  21.401  0.00  0.00    +0.000 OA
ATOM     28  C   UNL     1       8.719  12.676  22.280  0.00  0.00    +0.000 C 
ENDBRANCH  26  27
ENDBRANCH  19  21
ENDBRANCH  16  17
ENDBRANCH   1  16
TORSDOF 8
ENDMDL
MODEL 6
REMARK VINA RESULT:      -6.6      1.453      1.658
REMARK  Name = 
REMARK  12 active torsions:
REMARK  status: ('A' for Active; 'I' for Inactive)
REMARK    1  A    between atoms: C_1  and  O_2
REMARK    2  A    between atoms: O_2  and  C_3
REMARK    3  A    between atoms: C_6  and  O_7
REMARK    4  A    between atoms: O_7  and  C_8
REMARK    5  A    between atoms: C_9  and  S_10
REMARK    6  A    between atoms: S_10  and  N_13
REMARK    7  A    between atoms: N_13  and  C_14
REMARK    8  A    between atoms: N_13  and  C_15
REMARK    9  A    between atoms: C_15  and  C_16
REMARK   10  A    between atoms: N_18  and  C_19
REMARK   11  A    between atoms: C_24  and  O_25
REMARK   12  A    between atoms: O_25  and  C_26
REMARK                            x       y       z     vdW  Elec       q    Type
REMARK                         _______ _______ _______ _____ _____    ______ ____
ROOT
ATOM      1  N   UNL     1       0.955  10.789  18.599  0.00  0.00    +0.000 NA
ATOM      2  C   UNL     1       1.910  11.918  18.435  0.00  0.00    +0.000 C 
ENDROOT
BRANCH   1   3
ATOM      3  S   UNL     1      -0.461  11.204  19.508  0.00  0.00    +0.000 S 
ATOM      4  O   UNL     1      -0.325  12.617  19.814  0.00  0.00    +0.000 OA
ATOM      5  O   UNL     1      -0.605  10.239  20.581  0.00  0.00    +0.000 OA
BRANCH   3  10
ATOM      6  C   UNL     1      -2.660  10.409  16.221  0.00  0.00    +0.000 A 
ATOM      7  C   UNL     1      -3.874  11.032  16.500  0.00  0.00    +0.000 A 
ATOM      8  C   UNL     1      -4.095  11.636  17.738  0.00  0.00    +0.000 A 
ATOM      9  C   UNL     1      -3.089  11.676  18.711  0.00  0.00    +0.000 A 
ATOM     10  C   UNL     1      -1.879  11.020  18.445  0.00  0.00    +0.000 A 
ATOM     11  C   UNL     1      -1.672  10.380  17.202  0.00  0.00    +0.000 A 
BRANCH   6  13
ATOM     12  C   UNL     1      -3.702  10.062  14.111  0.00  0.00    +0.000 C 
ATOM     13  O   UNL     1      -2.564   9.919  14.951  0.00  0.00    +0.000 OA
ENDBRANCH   6  13
BRANCH   9  14
ATOM     14  O   UNL     1      -3.254  12.325  19.905  0.00  0.00    +0.000 OA
ATOM     15  C   UNL     1      -4.556  12.871  20.128  0.00  0.00    +0.000 C 
ENDBRANCH   9  14
ENDBRANCH   3  10
ENDBRANCH   1   3
BRANCH   1  16
ATOM     16  C   UNL     1       1.618   9.602  19.256  0.00  0.00    +0.000 C 
BRANCH  16  17
ATOM     17  C   UNL     1       2.071   8.484  18.332  0.00  0.00    +0.000 C 
ATOM     18  O   UNL     1       2.148   8.645  17.116  0.00  0.00    +0.000 OA
ATOM     19  N   UNL     1       2.394   7.320  19.013  0.00  0.00    +0.000 N 
ATOM     20  H   UNL     1       1.804   7.170  19.826  0.00  0.00    +0.000 HD
BRANCH  19  21
ATOM     21  C   UNL     1       2.890   6.172  18.352  0.00  0.00    +0.000 A 
ATOM     22  C   UNL     1       2.096   5.019  18.441  0.00  0.00    +0.000 A 
ATOM     23  C   UNL     1       2.448   3.851  17.759  0.00  0.00    +0.000 A 
ATOM     24  C   UNL     1       3.615   3.811  17.005  0.00  0.00    +0.000 A 
ATOM     25  C   UNL     1       4.434   4.939  16.942  0.00  0.00    +0.000 A 
ATOM     26  C   UNL     1       4.092   6.119  17.622  0.00  0.00    +0.000 A 
BRANCH  26  27
ATOM     27  O   UNL     1       5.020   7.118  17.477  0.00  0.00    +0.000 OA
ATOM     28  C   UNL     1       6.379   6.701  17.421  0.00  0.00    +0.000 C 
ENDBRANCH  26  27
ENDBRANCH  19  21
ENDBRANCH  16  17
ENDBRANCH   1  16
TORSDOF 8
ENDMDL
MODEL 7
REMARK VINA RESULT:      -6.6      1.397      1.401
REMARK  Name = 
REMARK  12 active torsions:
REMARK  status: ('A' for Active; 'I' for Inactive)
REMARK    1  A    between atoms: C_1  and  O_2
REMARK    2  A    between atoms: O_2  and  C_3
REMARK    3  A    between atoms: C_6  and  O_7
REMARK    4  A    between atoms: O_7  and  C_8
REMARK    5  A    between atoms: C_9  and  S_10
REMARK    6  A    between atoms: S_10  and  N_13
REMARK    7  A    between atoms: N_13  and  C_14
REMARK    8  A    between atoms: N_13  and  C_15
REMARK    9  A    between atoms: C_15  and  C_16
REMARK   10  A    between atoms: N_18  and  C_19
REMARK   11  A    between atoms: C_24  and  O_25
REMARK   12  A    between atoms: O_25  and  C_26
REMARK                            x       y       z     vdW  Elec       q    Type
REMARK                         _______ _______ _______ _____ _____    ______ ____
ROOT
ATOM      1  N   UNL     1       1.103   9.311  19.034  0.00  0.00    +0.000 NA
ATOM      2  C   UNL     1       1.989   9.637  17.885  0.00  0.00    +0.000 C 
ENDROOT
BRANCH   1   3
ATOM      3  S   UNL     1       0.286  10.690  19.695  0.00  0.00    +0.000 S 
ATOM      4  O   UNL     1       1.038  11.842  19.234  0.00  0.00    +0.000 OA
ATOM      5  O   UNL     1       0.101  10.463  21.116  0.00  0.00    +0.000 OA
BRANCH   3  10
ATOM      6  C   UNL     1      -2.727  10.138  17.071  0.00  0.00    +0.000 A 
ATOM      7  C   UNL     1      -3.651  11.107  17.449  0.00  0.00    +0.000 A 
ATOM      8  C   UNL     1      -3.429  11.902  18.575  0.00  0.00    +0.000 A 
ATOM      9  C   UNL     1      -2.251  11.779  19.322  0.00  0.00    +0.000 A 
ATOM     10  C   UNL     1      -1.335  10.780  18.963  0.00  0.00    +0.000 A 
ATOM     11  C   UNL     1      -1.582   9.956  17.842  0.00  0.00    +0.000 A 
BRANCH   6  13
ATOM     12  C   UNL     1      -2.973  10.226  14.707  0.00  0.00    +0.000 C 
ATOM     13  O   UNL     1      -3.046   9.483  15.916  0.00  0.00    +0.000 OA
ENDBRANCH   6  13
BRANCH   9  14
ATOM     14  O   UNL     1      -1.974  12.594  20.387  0.00  0.00    +0.000 OA
ATOM     15  C   UNL     1      -2.940  12.572  21.440  0.00  0.00    +0.000 C 
ENDBRANCH   9  14
ENDBRANCH   3  10
ENDBRANCH   1   3
BRANCH   1  16
ATOM     16  C   UNL     1       1.871   8.631  20.143  0.00  0.00    +0.000 C 
BRANCH  16  17
ATOM     17  C   UNL     1       2.020   7.122  20.034  0.00  0.00    +0.000 C 
ATOM     18  O   UNL     1       1.473   6.361  20.829  0.00  0.00    +0.000 OA
ATOM     19  N   UNL     1       2.799   6.734  18.953  0.00  0.00    +0.000 N 
ATOM     20  H   UNL     1       3.555   7.387  18.767  0.00  0.00    +0.000 HD
BRANCH  19  21
ATOM     21  C   UNL     1       3.022   5.375  18.634  0.00  0.00    +0.000 A 
ATOM     22  C   UNL     1       2.023   4.748  17.875  0.00  0.00    +0.000 A 
ATOM     23  C   UNL     1       2.177   3.431  17.434  0.00  0.00    +0.000 A 
ATOM     24  C   UNL     1       3.317   2.713  17.773  0.00  0.00    +0.000 A 
ATOM     25  C   UNL     1       4.300   3.312  18.563  0.00  0.00    +0.000 A 
ATOM     26  C   UNL     1       4.158   4.634  19.013  0.00  0.00    +0.000 A 
BRANCH  26  27
ATOM     27  O   UNL     1       5.199   5.055  19.800  0.00  0.00    +0.000 OA
ATOM     28  C   UNL     1       6.361   5.499  19.109  0.00  0.00    +0.000 C 
ENDBRANCH  26  27
ENDBRANCH  19  21
ENDBRANCH  16  17
ENDBRANCH   1  16
TORSDOF 8
ENDMDL
MODEL 8
REMARK VINA RESULT:      -6.6      3.784      8.721
REMARK  Name = 
REMARK  12 active torsions:
REMARK  status: ('A' for Active; 'I' for Inactive)
REMARK    1  A    between atoms: C_1  and  O_2
REMARK    2  A    between atoms: O_2  and  C_3
REMARK    3  A    between atoms: C_6  and  O_7
REMARK    4  A    between atoms: O_7  and  C_8
REMARK    5  A    between atoms: C_9  and  S_10
REMARK    6  A    between atoms: S_10  and  N_13
REMARK    7  A    between atoms: N_13  and  C_14
REMARK    8  A    between atoms: N_13  and  C_15
REMARK    9  A    between atoms: C_15  and  C_16
REMARK   10  A    between atoms: N_18  and  C_19
REMARK   11  A    between atoms: C_24  and  O_25
REMARK   12  A    between atoms: O_25  and  C_26
REMARK                            x       y       z     vdW  Elec       q    Type
REMARK                         _______ _______ _______ _____ _____    ______ ____
ROOT
ATOM      1  N   UNL     1       3.108   3.372  18.641  0.00  0.00    +0.000 NA
ATOM      2  C   UNL     1       2.810   1.930  18.860  0.00  0.00    +0.000 C 
ENDROOT
BRANCH   1   3
ATOM      3  S   UNL     1       4.725   3.820  19.075  0.00  0.00    +0.000 S 
ATOM      4  O   UNL     1       5.347   2.602  19.561  0.00  0.00    +0.000 OA
ATOM      5  O   UNL     1       4.652   4.989  19.930  0.00  0.00    +0.000 OA
BRANCH   3  10
ATOM      6  C   UNL     1       5.616   4.208  15.161  0.00  0.00    +0.000 A 
ATOM      7  C   UNL     1       6.948   4.610  15.182  0.00  0.00    +0.000 A 
ATOM      8  C   UNL     1       7.594   4.867  16.393  0.00  0.00    +0.000 A 
ATOM      9  C   UNL     1       6.937   4.679  17.615  0.00  0.00    +0.000 A 
ATOM     10  C   UNL     1       5.585   4.307  17.594  0.00  0.00    +0.000 A 
ATOM     11  C   UNL     1       4.926   4.082  16.364  0.00  0.00    +0.000 A 
BRANCH   6  13
ATOM     12  C   UNL     1       6.093   3.699  12.887  0.00  0.00    +0.000 C 
ATOM     13  O   UNL     1       5.137   3.932  13.913  0.00  0.00    +0.000 OA
ENDBRANCH   6  13
BRANCH   9  14
ATOM     14  O   UNL     1       7.568   4.852  18.818  0.00  0.00    +0.000 OA
ATOM     15  C   UNL     1       8.017   6.183  19.084  0.00  0.00    +0.000 C 
ENDBRANCH   9  14
ENDBRANCH   3  10
ENDBRANCH   1   3
BRANCH   1  16
ATOM     16  C   UNL     1       2.144   4.252  19.401  0.00  0.00    +0.000 C 
BRANCH  16  17
ATOM     17  C   UNL     1       1.919   5.647  18.841  0.00  0.00    +0.000 C 
ATOM     18  O   UNL     1       1.638   5.829  17.659  0.00  0.00    +0.000 OA
ATOM     19  N   UNL     1       2.043   6.639  19.803  0.00  0.00    +0.000 N 
ATOM     20  H   UNL     1       2.754   6.421  20.495  0.00  0.00    +0.000 HD
BRANCH  19  21
ATOM     21  C   UNL     1       1.821   8.005  19.510  0.00  0.00    +0.000 A 
ATOM     22  C   UNL     1       2.196   8.428  18.226  0.00  0.00    +0.000 A 
ATOM     23  C   UNL     1       1.948   9.736  17.801  0.00  0.00    +0.000 A 
ATOM     24  C   UNL     1       1.351  10.646  18.665  0.00  0.00    +0.000 A 
ATOM     25  C   UNL     1       1.011  10.248  19.958  0.00  0.00    +0.000 A 
ATOM     26  C   UNL     1       1.254   8.938  20.399  0.00  0.00    +0.000 A 
BRANCH  26  27
ATOM     27  O   UNL     1       0.886   8.725  21.702  0.00  0.00    +0.000 OA
ATOM     28  C   UNL     1      -0.512   8.621  21.944  0.00  0.00    +0.000 C 
ENDBRANCH  26  27
ENDBRANCH  19  21
ENDBRANCH  16  17
ENDBRANCH   1  16
TORSDOF 8
ENDMDL
MODEL 9
REMARK VINA RESULT:      -6.6      5.586      8.895
REMARK  Name = 
REMARK  12 active torsions:
REMARK  status: ('A' for Active; 'I' for Inactive)
REMARK    1  A    between atoms: C_1  and  O_2
REMARK    2  A    between atoms: O_2  and  C_3
REMARK    3  A    between atoms: C_6  and  O_7
REMARK    4  A    between atoms: O_7  and  C_8
REMARK    5  A    between atoms: C_9  and  S_10
REMARK    6  A    between atoms: S_10  and  N_13
REMARK    7  A    between atoms: N_13  and  C_14
REMARK    8  A    between atoms: N_13  and  C_15
REMARK    9  A    between atoms: C_15  and  C_16
REMARK   10  A    between atoms: N_18  and  C_19
REMARK   11  A    between atoms: C_24  and  O_25
REMARK   12  A    between atoms: O_25  and  C_26
REMARK                            x       y       z     vdW  Elec       q    Type
REMARK                         _______ _______ _______ _____ _____    ______ ____
ROOT
ATOM      1  N   UNL     1       7.174   6.826  18.372  0.00  0.00    +0.000 NA
ATOM      2  C   UNL     1       7.921   5.823  19.178  0.00  0.00    +0.000 C 
ENDROOT
BRANCH   1   3
ATOM      3  S   UNL     1       6.025   6.124  17.281  0.00  0.00    +0.000 S 
ATOM      4  O   UNL     1       6.341   4.708  17.244  0.00  0.00    +0.000 OA
ATOM      5  O   UNL     1       6.034   6.903  16.057  0.00  0.00    +0.000 OA
BRANCH   3  10
ATOM      6  C   UNL     1       2.452   7.729  18.245  0.00  0.00    +0.000 A 
ATOM      7  C   UNL     1       2.036   6.944  19.316  0.00  0.00    +0.000 A 
ATOM      8  C   UNL     1       2.787   5.840  19.723  0.00  0.00    +0.000 A 
ATOM      9  C   UNL     1       4.000   5.523  19.098  0.00  0.00    +0.000 A 
ATOM     10  C   UNL     1       4.403   6.292  17.997  0.00  0.00    +0.000 A 
ATOM     11  C   UNL     1       3.621   7.389  17.568  0.00  0.00    +0.000 A 
BRANCH   6  13
ATOM     12  C   UNL     1       1.133   9.499  19.132  0.00  0.00    +0.000 C 
ATOM     13  O   UNL     1       1.654   8.810  18.003  0.00  0.00    +0.000 OA
ENDBRANCH   6  13
BRANCH   9  14
ATOM     14  O   UNL     1       4.793   4.491  19.523  0.00  0.00    +0.000 OA
ATOM     15  C   UNL     1       4.158   3.210  19.559  0.00  0.00    +0.000 C 
ENDBRANCH   9  14
ENDBRANCH   3  10
ENDBRANCH   1   3
BRANCH   1  16
ATOM     16  C   UNL     1       8.115   7.703  17.580  0.00  0.00    +0.000 C 
BRANCH  16  17
ATOM     17  C   UNL     1       8.256   9.141  18.052  0.00  0.00    +0.000 C 
ATOM     18  O   UNL     1       7.513  10.029  17.643  0.00  0.00    +0.000 OA
ATOM     19  N   UNL     1       9.274   9.305  18.982  0.00  0.00    +0.000 N 
ATOM     20  H   UNL     1      10.065   8.694  18.802  0.00  0.00    +0.000 HD
BRANCH  19  21
ATOM     21  C   UNL     1       9.543  10.551  19.592  0.00  0.00    +0.000 A 
ATOM     22  C   UNL     1       9.012  10.736  20.877  0.00  0.00    +0.000 A 
ATOM     23  C   UNL     1       9.283  11.896  21.607  0.00  0.00    +0.000 A 
ATOM     24  C   UNL     1      10.063  12.901  21.048  0.00  0.00    +0.000 A 
ATOM     25  C   UNL     1      10.563  12.748  19.755  0.00  0.00    +0.000 A 
ATOM     26  C   UNL     1      10.299  11.587  19.011  0.00  0.00    +0.000 A 
BRANCH  26  27
ATOM     27  O   UNL     1      10.840  11.613  17.751  0.00  0.00    +0.000 OA
ATOM     28  C   UNL     1      11.053  12.904  17.193  0.00  0.00    +0.000 C 
ENDBRANCH  26  27
ENDBRANCH  19  21
ENDBRANCH  16  17
ENDBRANCH   1  16
TORSDOF 8
ENDMDL
