MODEL 1
REMARK VINA RESULT:      -5.2      0.000      0.000
REMARK  Name = 
REMARK  2 active torsions:
REMARK  status: ('A' for Active; 'I' for Inactive)
REMARK    1  A    between atoms: N_3  and  C_4
REMARK    2  A    between atoms: C_7  and  N_8
REMARK                            x       y       z     vdW  Elec       q    Type
REMARK                         _______ _______ _______ _____ _____    ______ ____
ROOT
ATOM      1  C   UNL     1       6.732   5.229  15.793  0.00  0.00    +0.000 A 
ATOM      2  C   UNL     1       5.494   5.871  15.903  0.00  0.00    +0.000 A 
ATOM      3  C   UNL     1       4.803   5.910  17.122  0.00  0.00    +0.000 A 
ATOM      4  C   UNL     1       5.321   5.300  18.269  0.00  0.00    +0.000 A 
ATOM      5  C   UNL     1       6.562   4.656  18.161  0.00  0.00    +0.000 A 
ATOM      6  C   UNL     1       7.246   4.603  16.939  0.00  0.00    +0.000 A 
ENDROOT
BRANCH   1   9
ATOM      7  S   UNL     1       6.186   3.536  12.630  0.00  0.00    +0.000 S 
ATOM      8  C   UNL     1       6.843   4.478  13.736  0.00  0.00    +0.000 C 
ATOM      9  N   UNL     1       7.343   5.199  14.519  0.00  0.00    +0.000 NA
ENDBRANCH   1   9
BRANCH   4  10
ATOM     10  N   UNL     1       4.593   5.440  19.468  0.00  0.00    +0.000 NA
ATOM     11  C   UNL     1       3.479   5.063  19.452  0.00  0.00    +0.000 C 
ATOM     12  S   UNL     1       1.972   4.547  19.489  0.00  0.00    +0.000 S 
ENDBRANCH   4  10
TORSDOF 2
ENDMDL
MODEL 2
REMARK VINA RESULT:      -5.1      2.880      5.551
REMARK  Name = 
REMARK  2 active torsions:
REMARK  status: ('A' for Active; 'I' for Inactive)
REMARK    1  A    between atoms: N_3  and  C_4
REMARK    2  A    between atoms: C_7  and  N_8
REMARK                            x       y       z     vdW  Elec       q    Type
REMARK                         _______ _______ _______ _____ _____    ______ ____
ROOT
ATOM      1  C   UNL     1       2.285   4.150  18.164  0.00  0.00    +0.000 A 
ATOM      2  C   UNL     1       2.602   5.509  18.264  0.00  0.00    +0.000 A 
ATOM      3  C   UNL     1       3.724   6.042  17.615  0.00  0.00    +0.000 A 
ATOM      4  C   UNL     1       4.572   5.233  16.850  0.00  0.00    +0.000 A 
ATOM      5  C   UNL     1       4.256   3.871  16.748  0.00  0.00    +0.000 A 
ATOM      6  C   UNL     1       3.143   3.335  17.410  0.00  0.00    +0.000 A 
ENDROOT
BRANCH   1   9
ATOM      7  S   UNL     1       1.639   2.713  21.432  0.00  0.00    +0.000 S 
ATOM      8  C   UNL     1       1.388   3.266  19.958  0.00  0.00    +0.000 C 
ATOM      9  N   UNL     1       1.161   3.685  18.883  0.00  0.00    +0.000 NA
ENDBRANCH   1   9
BRANCH   4  10
ATOM     10  N   UNL     1       5.641   5.860  16.179  0.00  0.00    +0.000 NA
ATOM     11  C   UNL     1       6.423   6.425  16.852  0.00  0.00    +0.000 C 
ATOM     12  S   UNL     1       7.523   7.184  17.719  0.00  0.00    +0.000 S 
ENDBRANCH   4  10
TORSDOF 2
ENDMDL
MODEL 3
REMARK VINA RESULT:      -5.1      0.525      5.078
REMARK  Name = 
REMARK  2 active torsions:
REMARK  status: ('A' for Active; 'I' for Inactive)
REMARK    1  A    between atoms: N_3  and  C_4
REMARK    2  A    between atoms: C_7  and  N_8
REMARK                            x       y       z     vdW  Elec       q    Type
REMARK                         _______ _______ _______ _____ _____    ______ ____
ROOT
ATOM      1  C   UNL     1       4.837   5.435  18.515  0.00  0.00    +0.000 A 
ATOM      2  C   UNL     1       4.453   6.067  17.327  0.00  0.00    +0.000 A 
ATOM      3  C   UNL     1       5.270   6.029  16.188  0.00  0.00    +0.000 A 
ATOM      4  C   UNL     1       6.501   5.364  16.201  0.00  0.00    +0.000 A 
ATOM      5  C   UNL     1       6.887   4.729  17.390  0.00  0.00    +0.000 A 
ATOM      6  C   UNL     1       6.079   4.781  18.533  0.00  0.00    +0.000 A 
ENDROOT
BRANCH   1   9
ATOM      7  S   UNL     1       1.688   3.998  19.601  0.00  0.00    +0.000 S 
ATOM      8  C   UNL     1       3.005   4.896  19.591  0.00  0.00    +0.000 C 
ATOM      9  N   UNL     1       3.976   5.557  19.629  0.00  0.00    +0.000 NA
ENDBRANCH   1   9
BRANCH   4  10
ATOM     10  N   UNL     1       7.230   5.320  14.995  0.00  0.00    +0.000 NA
ATOM     11  C   UNL     1       6.804   4.624  14.149  0.00  0.00    +0.000 C 
ATOM     12  S   UNL     1       6.254   3.714  12.962  0.00  0.00    +0.000 S 
ENDBRANCH   4  10
TORSDOF 2
ENDMDL
MODEL 4
REMARK VINA RESULT:      -5.1      3.038      3.627
REMARK  Name = 
REMARK  2 active torsions:
REMARK  status: ('A' for Active; 'I' for Inactive)
REMARK    1  A    between atoms: N_3  and  C_4
REMARK    2  A    between atoms: C_7  and  N_8
REMARK                            x       y       z     vdW  Elec       q    Type
REMARK                         _______ _______ _______ _____ _____    ______ ____
ROOT
ATOM      1  C   UNL     1       4.250   5.659  17.060  0.00  0.00    +0.000 A 
ATOM      2  C   UNL     1       3.138   6.026  17.826  0.00  0.00    +0.000 A 
ATOM      3  C   UNL     1       2.270   5.060  18.352  0.00  0.00    +0.000 A 
ATOM      4  C   UNL     1       2.479   3.695  18.125  0.00  0.00    +0.000 A 
ATOM      5  C   UNL     1       3.594   3.325  17.359  0.00  0.00    +0.000 A 
ATOM      6  C   UNL     1       4.453   4.292  16.819  0.00  0.00    +0.000 A 
ENDROOT
BRANCH   1   9
ATOM      7  S   UNL     1       7.525   7.076  17.717  0.00  0.00    +0.000 S 
ATOM      8  C   UNL     1       6.092   6.848  17.057  0.00  0.00    +0.000 C 
ATOM      9  N   UNL     1       5.051   6.696  16.532  0.00  0.00    +0.000 NA
ENDBRANCH   1   9
BRANCH   4  10
ATOM     10  N   UNL     1       1.595   2.787  18.743  0.00  0.00    +0.000 NA
ATOM     11  C   UNL     1       1.608   2.760  19.918  0.00  0.00    +0.000 C 
ATOM     12  S   UNL     1       1.572   2.700  21.510  0.00  0.00    +0.000 S 
ENDBRANCH   4  10
TORSDOF 2
ENDMDL
MODEL 5
REMARK VINA RESULT:      -5.1      2.989      3.608
REMARK  Name = 
REMARK  2 active torsions:
REMARK  status: ('A' for Active; 'I' for Inactive)
REMARK    1  A    between atoms: N_3  and  C_4
REMARK    2  A    between atoms: C_7  and  N_8
REMARK                            x       y       z     vdW  Elec       q    Type
REMARK                         _______ _______ _______ _____ _____    ______ ____
ROOT
ATOM      1  C   UNL     1       4.597   5.816  16.850  0.00  0.00    +0.000 A 
ATOM      2  C   UNL     1       4.470   4.432  16.697  0.00  0.00    +0.000 A 
ATOM      3  C   UNL     1       3.402   3.732  17.276  0.00  0.00    +0.000 A 
ATOM      4  C   UNL     1       2.430   4.392  18.036  0.00  0.00    +0.000 A 
ATOM      5  C   UNL     1       2.555   5.781  18.191  0.00  0.00    +0.000 A 
ATOM      6  C   UNL     1       3.632   6.477  17.625  0.00  0.00    +0.000 A 
ENDROOT
BRANCH   1   9
ATOM      7  S   UNL     1       7.749   7.195  18.001  0.00  0.00    +0.000 S 
ATOM      8  C   UNL     1       6.567   6.762  17.023  0.00  0.00    +0.000 C 
ATOM      9  N   UNL     1       5.725   6.439  16.270  0.00  0.00    +0.000 NA
ENDBRANCH   1   9
BRANCH   4  10
ATOM     10  N   UNL     1       1.356   3.625  18.531  0.00  0.00    +0.000 NA
ATOM     11  C   UNL     1       1.419   3.300  19.659  0.00  0.00    +0.000 C 
ATOM     12  S   UNL     1       1.445   2.855  21.189  0.00  0.00    +0.000 S 
ENDBRANCH   4  10
TORSDOF 2
ENDMDL
MODEL 6
REMARK VINA RESULT:      -5.0      2.105      2.920
REMARK  Name = 
REMARK  2 active torsions:
REMARK  status: ('A' for Active; 'I' for Inactive)
REMARK    1  A    between atoms: N_3  and  C_4
REMARK    2  A    between atoms: C_7  and  N_8
REMARK                            x       y       z     vdW  Elec       q    Type
REMARK                         _______ _______ _______ _____ _____    ______ ____
ROOT
ATOM      1  C   UNL     1       4.573   5.327  16.888  0.00  0.00    +0.000 A 
ATOM      2  C   UNL     1       4.285   3.975  17.101  0.00  0.00    +0.000 A 
ATOM      3  C   UNL     1       3.178   3.581  17.866  0.00  0.00    +0.000 A 
ATOM      4  C   UNL     1       2.328   4.526  18.451  0.00  0.00    +0.000 A 
ATOM      5  C   UNL     1       2.614   5.882  18.238  0.00  0.00    +0.000 A 
ATOM      6  C   UNL     1       3.730   6.275  17.486  0.00  0.00    +0.000 A 
ENDROOT
BRANCH   1   9
ATOM      7  S   UNL     1       6.242   4.050  13.930  0.00  0.00    +0.000 S 
ATOM      8  C   UNL     1       5.936   4.945  15.213  0.00  0.00    +0.000 C 
ATOM      9  N   UNL     1       5.731   5.639  16.140  0.00  0.00    +0.000 NA
ENDBRANCH   1   9
BRANCH   4  10
ATOM     10  N   UNL     1       1.203   4.045  19.151  0.00  0.00    +0.000 NA
ATOM     11  C   UNL     1       1.416   3.456  20.146  0.00  0.00    +0.000 C 
ATOM     12  S   UNL     1       1.651   2.671  21.512  0.00  0.00    +0.000 S 
ENDBRANCH   4  10
TORSDOF 2
ENDMDL
MODEL 7
REMARK VINA RESULT:      -5.0      1.240      1.446
REMARK  Name = 
REMARK  2 active torsions:
REMARK  status: ('A' for Active; 'I' for Inactive)
REMARK    1  A    between atoms: N_3  and  C_4
REMARK    2  A    between atoms: C_7  and  N_8
REMARK                            x       y       z     vdW  Elec       q    Type
REMARK                         _______ _______ _______ _____ _____    ______ ____
ROOT
ATOM      1  C   UNL     1       6.150   5.626  16.924  0.00  0.00    +0.000 A 
ATOM      2  C   UNL     1       4.992   6.360  16.649  0.00  0.00    +0.000 A 
ATOM      3  C   UNL     1       3.950   6.449  17.583  0.00  0.00    +0.000 A 
ATOM      4  C   UNL     1       4.029   5.800  18.820  0.00  0.00    +0.000 A 
ATOM      5  C   UNL     1       5.190   5.064  19.098  0.00  0.00    +0.000 A 
ATOM      6  C   UNL     1       6.223   4.962  18.158  0.00  0.00    +0.000 A 
ENDROOT
BRANCH   1   9
ATOM      7  S   UNL     1       6.492   4.060  13.669  0.00  0.00    +0.000 S 
ATOM      8  C   UNL     1       6.846   4.904  14.974  0.00  0.00    +0.000 C 
ATOM      9  N   UNL     1       7.134   5.552  15.912  0.00  0.00    +0.000 NA
ENDBRANCH   1   9
BRANCH   4  10
ATOM     10  N   UNL     1       2.966   5.993  19.726  0.00  0.00    +0.000 NA
ATOM     11  C   UNL     1       2.607   5.046  20.323  0.00  0.00    +0.000 C 
ATOM     12  S   UNL     1       2.099   3.798  21.173  0.00  0.00    +0.000 S 
ENDBRANCH   4  10
TORSDOF 2
ENDMDL
MODEL 8
REMARK VINA RESULT:      -5.0      1.538      5.321
REMARK  Name = 
REMARK  2 active torsions:
REMARK  status: ('A' for Active; 'I' for Inactive)
REMARK    1  A    between atoms: N_3  and  C_4
REMARK    2  A    between atoms: C_7  and  N_8
REMARK                            x       y       z     vdW  Elec       q    Type
REMARK                         _______ _______ _______ _____ _____    ______ ____
ROOT
ATOM      1  C   UNL     1       3.624   5.196  17.835  0.00  0.00    +0.000 A 
ATOM      2  C   UNL     1       4.114   4.009  17.281  0.00  0.00    +0.000 A 
ATOM      3  C   UNL     1       5.092   4.026  16.276  0.00  0.00    +0.000 A 
ATOM      4  C   UNL     1       5.606   5.232  15.786  0.00  0.00    +0.000 A 
ATOM      5  C   UNL     1       5.116   6.423  16.341  0.00  0.00    +0.000 A 
ATOM      6  C   UNL     1       4.127   6.406  17.333  0.00  0.00    +0.000 A 
ENDROOT
BRANCH   1   9
ATOM      7  S   UNL     1       1.144   2.741  18.830  0.00  0.00    +0.000 S 
ATOM      8  C   UNL     1       1.992   4.091  18.795  0.00  0.00    +0.000 C 
ATOM      9  N   UNL     1       2.609   5.091  18.813  0.00  0.00    +0.000 NA
ENDBRANCH   1   9
BRANCH   4  10
ATOM     10  N   UNL     1       6.631   5.159  14.821  0.00  0.00    +0.000 NA
ATOM     11  C   UNL     1       6.445   4.440  13.910  0.00  0.00    +0.000 C 
ATOM     12  S   UNL     1       6.230   3.495  12.645  0.00  0.00    +0.000 S 
ENDBRANCH   4  10
TORSDOF 2
ENDMDL
MODEL 9
REMARK VINA RESULT:      -5.0      2.930      5.352
REMARK  Name = 
REMARK  2 active torsions:
REMARK  status: ('A' for Active; 'I' for Inactive)
REMARK    1  A    between atoms: N_3  and  C_4
REMARK    2  A    between atoms: C_7  and  N_8
REMARK                            x       y       z     vdW  Elec       q    Type
REMARK                         _______ _______ _______ _____ _____    ______ ____
ROOT
ATOM      1  C   UNL     1       2.849   4.736  17.730  0.00  0.00    +0.000 A 
ATOM      2  C   UNL     1       3.772   3.900  17.093  0.00  0.00    +0.000 A 
ATOM      3  C   UNL     1       5.007   4.390  16.647  0.00  0.00    +0.000 A 
ATOM      4  C   UNL     1       5.358   5.733  16.816  0.00  0.00    +0.000 A 
ATOM      5  C   UNL     1       4.434   6.573  17.455  0.00  0.00    +0.000 A 
ATOM      6  C   UNL     1       3.193   6.087  17.886  0.00  0.00    +0.000 A 
ENDROOT
BRANCH   1   9
ATOM      7  S   UNL     1       1.361   3.408  20.761  0.00  0.00    +0.000 S 
ATOM      8  C   UNL     1       1.529   3.844  19.237  0.00  0.00    +0.000 C 
ATOM      9  N   UNL     1       1.610   4.173  18.111  0.00  0.00    +0.000 NA
ENDBRANCH   1   9
BRANCH   4  10
ATOM     10  N   UNL     1       6.644   6.130  16.396  0.00  0.00    +0.000 NA
ATOM     11  C   UNL     1       7.154   6.992  17.011  0.00  0.00    +0.000 C 
ATOM     12  S   UNL     1       7.899   8.141  17.826  0.00  0.00    +0.000 S 
ENDBRANCH   4  10
TORSDOF 2
ENDMDL
