MODEL 1
REMARK VINA RESULT:      -8.6      0.000      0.000
REMARK  Name = 
REMARK  12 active torsions:
REMARK  status: ('A' for Active; 'I' for Inactive)
REMARK    1  A    between atoms: C_2  and  O_3
REMARK    2  A    between atoms: C_2  and  C_14
REMARK    3  A    between atoms: O_3  and  C_4
REMARK    4  A    between atoms: C_4  and  C_5
REMARK    5  A    between atoms: C_5  and  C_6
REMARK    6  A    between atoms: C_6  and  C_7
REMARK    7  A    between atoms: C_7  and  C_8
REMARK    8  A    between atoms: N_22  and  CA_23
REMARK    9  A    between atoms: CA_23  and  C_24
REMARK   10  A    between atoms: CA_23  and  CB_26
REMARK   11  A    between atoms: C_24  and  O_25
REMARK   12  A    between atoms: CB_26  and  CG_27
REMARK                            x       y       z     vdW  Elec       q    Type
REMARK                         _______ _______ _______ _____ _____    ______ ____
ROOT
ATOM      1  C   UNK A   0       6.665   4.511  17.323  0.00  0.00    +0.000 C 
ATOM      2  C   UNK A   0       7.358   4.900  15.983  0.00  0.00    +0.000 C 
ATOM      3  C   UNK A   0       6.799   4.222  14.752  0.00  0.00    +0.000 C 
ATOM      4  C   UNK A   0       5.308   4.454  14.688  0.00  0.00    +0.000 C 
ATOM      5  C   UNK A   0       4.652   3.946  15.958  0.00  0.00    +0.000 C 
ATOM      6  N   UNK A   0       5.167   4.596  17.174  0.00  0.00    +0.000 N 
ATOM      7  C   UNK A   0       4.388   4.577  18.346  0.00  0.00    +0.000 C 
ATOM      8  O   UNK A   0       4.871   4.695  19.467  0.00  0.00    +0.000 OA
ATOM      9  N   PHE A   1       3.019   4.461  18.153  0.00  0.00    +0.000 N 
ATOM     10  H   PHE A   1       2.639   4.541  17.230  0.00  0.00    +0.000 HD
ENDROOT
BRANCH   1  12
ATOM     11  O   UNK A   0       8.352   4.969  19.117  0.00  0.00    +0.000 OA
ATOM     12  C   UNK A   0       7.515   5.369  18.324  0.00  0.00    +0.000 C 
BRANCH  12  13
ATOM     13  O   UNK A   0       6.951   6.633  18.352  0.00  0.00    +0.000 OA
BRANCH  13  14
ATOM     14  C   UNK A   0       7.568   7.707  17.610  0.00  0.00    +0.000 C 
BRANCH  14  15
ATOM     15  C   UNK A   0       8.559   8.495  18.495  0.00  0.00    +0.000 C 
BRANCH  15  16
ATOM     16  C   UNK A   0       8.656   9.976  18.076  0.00  0.00    +0.000 C 
BRANCH  16  17
ATOM     17  C   UNK A   0       9.408  10.879  19.082  0.00  0.00    +0.000 C 
BRANCH  17  18
ATOM     18  C   UNK A   0      10.105  12.086  18.460  0.00  0.00    +0.000 A 
ATOM     19  C   UNK A   0      11.307  11.913  17.749  0.00  0.00    +0.000 A 
ATOM     20  C   UNK A   0      11.960  13.007  17.162  0.00  0.00    +0.000 A 
ATOM     21  C   UNK A   0      11.415  14.285  17.251  0.00  0.00    +0.000 A 
ATOM     22  C   UNK A   0      10.210  14.464  17.927  0.00  0.00    +0.000 A 
ATOM     23  C   UNK A   0       9.560  13.367  18.511  0.00  0.00    +0.000 A 
ENDBRANCH  17  18
ENDBRANCH  16  17
ENDBRANCH  15  16
ENDBRANCH  14  15
ENDBRANCH  13  14
ENDBRANCH  12  13
ENDBRANCH   1  12
BRANCH   9  24
ATOM     24  CA  PHE A   1       2.029   4.761  19.209  0.00  0.00    +0.000 C 
BRANCH  24  25
ATOM     25  C   PHE A   1       1.913   3.531  20.136  0.00  0.00    +0.000 C 
BRANCH  25  26
ATOM     26  O   PHE A   1       0.555   3.374  20.570  0.00  0.00    +0.000 OA
ATOM     27  H   PHE A   1       0.200   4.277  20.655  0.00  0.00    +0.000 HD
ENDBRANCH  25  26
ENDBRANCH  24  25
BRANCH  24  28
ATOM     28  CB  PHE A   1       2.428   5.982  20.091  0.00  0.00    +0.000 C 
BRANCH  28  29
ATOM     29  CG  PHE A   1       2.046   7.351  19.580  0.00  0.00    +0.000 A 
ATOM     30  CD1 PHE A   1       2.307   7.726  18.257  0.00  0.00    +0.000 A 
ATOM     31  CE1 PHE A   1       1.951   8.997  17.800  0.00  0.00    +0.000 A 
ATOM     32  CZ  PHE A   1       1.318   9.900  18.654  0.00  0.00    +0.000 A 
ATOM     33  CE2 PHE A   1       1.014   9.522  19.959  0.00  0.00    +0.000 A 
ATOM     34  CD2 PHE A   1       1.368   8.251  20.418  0.00  0.00    +0.000 A 
ENDBRANCH  28  29
ENDBRANCH  24  28
ENDBRANCH   9  24
TORSDOF 12
ENDMDL
MODEL 2
REMARK VINA RESULT:      -8.2      1.146      1.674
REMARK  Name = 
REMARK  12 active torsions:
REMARK  status: ('A' for Active; 'I' for Inactive)
REMARK    1  A    between atoms: C_2  and  O_3
REMARK    2  A    between atoms: C_2  and  C_14
REMARK    3  A    between atoms: O_3  and  C_4
REMARK    4  A    between atoms: C_4  and  C_5
REMARK    5  A    between atoms: C_5  and  C_6
REMARK    6  A    between atoms: C_6  and  C_7
REMARK    7  A    between atoms: C_7  and  C_8
REMARK    8  A    between atoms: N_22  and  CA_23
REMARK    9  A    between atoms: CA_23  and  C_24
REMARK   10  A    between atoms: CA_23  and  CB_26
REMARK   11  A    between atoms: C_24  and  O_25
REMARK   12  A    between atoms: CB_26  and  CG_27
REMARK                            x       y       z     vdW  Elec       q    Type
REMARK                         _______ _______ _______ _____ _____    ______ ____
ROOT
ATOM      1  C   UNK A   0       6.738   4.661  17.313  0.00  0.00    +0.000 C 
ATOM      2  C   UNK A   0       7.466   5.086  16.002  0.00  0.00    +0.000 C 
ATOM      3  C   UNK A   0       6.950   4.430  14.741  0.00  0.00    +0.000 C 
ATOM      4  C   UNK A   0       5.459   4.648  14.639  0.00  0.00    +0.000 C 
ATOM      5  C   UNK A   0       4.772   4.105  15.877  0.00  0.00    +0.000 C 
ATOM      6  N   UNK A   0       5.244   4.734  17.122  0.00  0.00    +0.000 N 
ATOM      7  C   UNK A   0       4.431   4.682  18.270  0.00  0.00    +0.000 C 
ATOM      8  O   UNK A   0       4.881   4.780  19.406  0.00  0.00    +0.000 OA
ATOM      9  N   PHE A   1       3.070   4.556  18.034  0.00  0.00    +0.000 N 
ATOM     10  H   PHE A   1       2.716   4.652  17.102  0.00  0.00    +0.000 HD
ENDROOT
BRANCH   1  12
ATOM     11  O   UNK A   0       7.611   5.332  19.563  0.00  0.00    +0.000 OA
ATOM     12  C   UNK A   0       7.549   5.506  18.357  0.00  0.00    +0.000 C 
BRANCH  12  13
ATOM     13  O   UNK A   0       7.962   6.659  17.710  0.00  0.00    +0.000 OA
BRANCH  13  14
ATOM     14  C   UNK A   0       7.156   7.855  17.799  0.00  0.00    +0.000 C 
BRANCH  14  15
ATOM     15  C   UNK A   0       8.014   9.119  17.569  0.00  0.00    +0.000 C 
BRANCH  15  16
ATOM     16  C   UNK A   0       8.849   9.484  18.812  0.00  0.00    +0.000 C 
BRANCH  16  17
ATOM     17  C   UNK A   0       9.743  10.735  18.638  0.00  0.00    +0.000 C 
BRANCH  17  18
ATOM     18  C   UNK A   0       9.714  11.708  19.814  0.00  0.00    +0.000 A 
ATOM     19  C   UNK A   0      10.283  12.989  19.679  0.00  0.00    +0.000 A 
ATOM     20  C   UNK A   0      10.260  13.903  20.743  0.00  0.00    +0.000 A 
ATOM     21  C   UNK A   0       9.649  13.567  21.948  0.00  0.00    +0.000 A 
ATOM     22  C   UNK A   0       9.056  12.314  22.084  0.00  0.00    +0.000 A 
ATOM     23  C   UNK A   0       9.080  11.404  21.016  0.00  0.00    +0.000 A 
ENDBRANCH  17  18
ENDBRANCH  16  17
ENDBRANCH  15  16
ENDBRANCH  14  15
ENDBRANCH  13  14
ENDBRANCH  12  13
ENDBRANCH   1  12
BRANCH   9  24
ATOM     24  CA  PHE A   1       2.047   4.822  19.066  0.00  0.00    +0.000 C 
BRANCH  24  25
ATOM     25  C   PHE A   1       1.888   3.558  19.938  0.00  0.00    +0.000 C 
BRANCH  25  26
ATOM     26  O   PHE A   1       0.622   3.586  20.612  0.00  0.00    +0.000 OA
ATOM     27  H   PHE A   1       0.609   4.421  21.114  0.00  0.00    +0.000 HD
ENDBRANCH  25  26
ENDBRANCH  24  25
BRANCH  24  28
ATOM     28  CB  PHE A   1       2.425   6.003  20.011  0.00  0.00    +0.000 C 
BRANCH  28  29
ATOM     29  CG  PHE A   1       2.016   7.389  19.574  0.00  0.00    +0.000 A 
ATOM     30  CD1 PHE A   1       2.152   7.795  18.241  0.00  0.00    +0.000 A 
ATOM     31  CE1 PHE A   1       1.773   9.083  17.853  0.00  0.00    +0.000 A 
ATOM     32  CZ  PHE A   1       1.241   9.971  18.787  0.00  0.00    +0.000 A 
ATOM     33  CE2 PHE A   1       1.061   9.563  20.106  0.00  0.00    +0.000 A 
ATOM     34  CD2 PHE A   1       1.438   8.276  20.496  0.00  0.00    +0.000 A 
ENDBRANCH  28  29
ENDBRANCH  24  28
ENDBRANCH   9  24
TORSDOF 12
ENDMDL
MODEL 3
REMARK VINA RESULT:      -8.2      1.006      1.610
REMARK  Name = 
REMARK  12 active torsions:
REMARK  status: ('A' for Active; 'I' for Inactive)
REMARK    1  A    between atoms: C_2  and  O_3
REMARK    2  A    between atoms: C_2  and  C_14
REMARK    3  A    between atoms: O_3  and  C_4
REMARK    4  A    between atoms: C_4  and  C_5
REMARK    5  A    between atoms: C_5  and  C_6
REMARK    6  A    between atoms: C_6  and  C_7
REMARK    7  A    between atoms: C_7  and  C_8
REMARK    8  A    between atoms: N_22  and  CA_23
REMARK    9  A    between atoms: CA_23  and  C_24
REMARK   10  A    between atoms: CA_23  and  CB_26
REMARK   11  A    between atoms: C_24  and  O_25
REMARK   12  A    between atoms: CB_26  and  CG_27
REMARK                            x       y       z     vdW  Elec       q    Type
REMARK                         _______ _______ _______ _____ _____    ______ ____
ROOT
ATOM      1  C   UNK A   0       6.681   4.588  17.319  0.00  0.00    +0.000 C 
ATOM      2  C   UNK A   0       7.397   4.952  15.984  0.00  0.00    +0.000 C 
ATOM      3  C   UNK A   0       6.851   4.263  14.755  0.00  0.00    +0.000 C 
ATOM      4  C   UNK A   0       5.363   4.507  14.665  0.00  0.00    +0.000 C 
ATOM      5  C   UNK A   0       4.684   4.022  15.931  0.00  0.00    +0.000 C 
ATOM      6  N   UNK A   0       5.185   4.684  17.146  0.00  0.00    +0.000 N 
ATOM      7  C   UNK A   0       4.389   4.688  18.306  0.00  0.00    +0.000 C 
ATOM      8  O   UNK A   0       4.856   4.817  19.432  0.00  0.00    +0.000 OA
ATOM      9  N   PHE A   1       3.022   4.581  18.094  0.00  0.00    +0.000 N 
ATOM     10  H   PHE A   1       2.657   4.652  17.164  0.00  0.00    +0.000 HD
ENDROOT
BRANCH   1  12
ATOM     11  O   UNK A   0       8.182   5.055  19.269  0.00  0.00    +0.000 OA
ATOM     12  C   UNK A   0       7.522   5.452  18.321  0.00  0.00    +0.000 C 
BRANCH  12  13
ATOM     13  O   UNK A   0       7.163   6.773  18.116  0.00  0.00    +0.000 OA
BRANCH  13  14
ATOM     14  C   UNK A   0       8.084   7.669  17.456  0.00  0.00    +0.000 C 
BRANCH  14  15
ATOM     15  C   UNK A   0       7.786   9.140  17.822  0.00  0.00    +0.000 C 
BRANCH  15  16
ATOM     16  C   UNK A   0       8.838   9.719  18.789  0.00  0.00    +0.000 C 
BRANCH  16  17
ATOM     17  C   UNK A   0       9.627  10.926  18.230  0.00  0.00    +0.000 C 
BRANCH  17  18
ATOM     18  C   UNK A   0       9.231  12.276  18.820  0.00  0.00    +0.000 A 
ATOM     19  C   UNK A   0       8.752  13.298  17.977  0.00  0.00    +0.000 A 
ATOM     20  C   UNK A   0       8.373  14.543  18.498  0.00  0.00    +0.000 A 
ATOM     21  C   UNK A   0       8.441  14.785  19.867  0.00  0.00    +0.000 A 
ATOM     22  C   UNK A   0       8.884  13.774  20.715  0.00  0.00    +0.000 A 
ATOM     23  C   UNK A   0       9.260  12.528  20.189  0.00  0.00    +0.000 A 
ENDBRANCH  17  18
ENDBRANCH  16  17
ENDBRANCH  15  16
ENDBRANCH  14  15
ENDBRANCH  13  14
ENDBRANCH  12  13
ENDBRANCH   1  12
BRANCH   9  24
ATOM     24  CA  PHE A   1       2.019   4.904  19.130  0.00  0.00    +0.000 C 
BRANCH  24  25
ATOM     25  C   PHE A   1       1.847   3.673  20.046  0.00  0.00    +0.000 C 
BRANCH  25  26
ATOM     26  O   PHE A   1       0.477   3.559  20.458  0.00  0.00    +0.000 OA
ATOM     27  H   PHE A   1       0.200   4.460  20.704  0.00  0.00    +0.000 HD
ENDBRANCH  25  26
ENDBRANCH  24  25
BRANCH  24  28
ATOM     28  CB  PHE A   1       2.435   6.107  20.029  0.00  0.00    +0.000 C 
BRANCH  28  29
ATOM     29  CG  PHE A   1       2.024   7.484  19.564  0.00  0.00    +0.000 A 
ATOM     30  CD1 PHE A   1       1.350   8.364  20.419  0.00  0.00    +0.000 A 
ATOM     31  CE1 PHE A   1       0.974   9.633  19.973  0.00  0.00    +0.000 A 
ATOM     32  CZ  PHE A   1       1.278  10.041  18.675  0.00  0.00    +0.000 A 
ATOM     33  CE2 PHE A   1       1.986   9.191  17.830  0.00  0.00    +0.000 A 
ATOM     34  CD2 PHE A   1       2.365   7.922  18.274  0.00  0.00    +0.000 A 
ENDBRANCH  28  29
ENDBRANCH  24  28
ENDBRANCH   9  24
TORSDOF 12
ENDMDL
MODEL 4
REMARK VINA RESULT:      -8.1      2.315      3.679
REMARK  Name = 
REMARK  12 active torsions:
REMARK  status: ('A' for Active; 'I' for Inactive)
REMARK    1  A    between atoms: C_2  and  O_3
REMARK    2  A    between atoms: C_2  and  C_14
REMARK    3  A    between atoms: O_3  and  C_4
REMARK    4  A    between atoms: C_4  and  C_5
REMARK    5  A    between atoms: C_5  and  C_6
REMARK    6  A    between atoms: C_6  and  C_7
REMARK    7  A    between atoms: C_7  and  C_8
REMARK    8  A    between atoms: N_22  and  CA_23
REMARK    9  A    between atoms: CA_23  and  C_24
REMARK   10  A    between atoms: CA_23  and  CB_26
REMARK   11  A    between atoms: C_24  and  O_25
REMARK   12  A    between atoms: CB_26  and  CG_27
REMARK                            x       y       z     vdW  Elec       q    Type
REMARK                         _______ _______ _______ _____ _____    ______ ____
ROOT
ATOM      1  C   UNK A   0       4.600   5.243  17.355  0.00  0.00    +0.000 C 
ATOM      2  C   UNK A   0       4.367   3.858  16.679  0.00  0.00    +0.000 C 
ATOM      3  C   UNK A   0       3.580   2.866  17.504  0.00  0.00    +0.000 C 
ATOM      4  C   UNK A   0       2.276   3.496  17.931  0.00  0.00    +0.000 C 
ATOM      5  C   UNK A   0       2.547   4.776  18.698  0.00  0.00    +0.000 C 
ATOM      6  N   UNK A   0       3.302   5.769  17.916  0.00  0.00    +0.000 N 
ATOM      7  C   UNK A   0       3.250   7.124  18.291  0.00  0.00    +0.000 C 
ATOM      8  O   UNK A   0       4.129   7.928  18.001  0.00  0.00    +0.000 OA
ATOM      9  N   PHE A   1       2.108   7.511  18.977  0.00  0.00    +0.000 N 
ATOM     10  H   PHE A   1       1.333   6.881  19.048  0.00  0.00    +0.000 HD
ENDROOT
BRANCH   1  12
ATOM     11  O   UNK A   0       5.065   6.288  15.127  0.00  0.00    +0.000 OA
ATOM     12  C   UNK A   0       5.443   5.951  16.237  0.00  0.00    +0.000 C 
BRANCH  12  13
ATOM     13  O   UNK A   0       6.770   5.875  16.624  0.00  0.00    +0.000 OA
BRANCH  13  14
ATOM     14  C   UNK A   0       7.224   6.630  17.769  0.00  0.00    +0.000 C 
BRANCH  14  15
ATOM     15  C   UNK A   0       7.993   7.896  17.329  0.00  0.00    +0.000 C 
BRANCH  15  16
ATOM     16  C   UNK A   0       8.372   8.787  18.529  0.00  0.00    +0.000 C 
BRANCH  16  17
ATOM     17  C   UNK A   0       8.436  10.299  18.209  0.00  0.00    +0.000 C 
BRANCH  17  18
ATOM     18  C   UNK A   0       9.704  11.000  18.688  0.00  0.00    +0.000 A 
ATOM     19  C   UNK A   0      10.606  11.539  17.751  0.00  0.00    +0.000 A 
ATOM     20  C   UNK A   0      11.772  12.195  18.169  0.00  0.00    +0.000 A 
ATOM     21  C   UNK A   0      12.049  12.348  19.524  0.00  0.00    +0.000 A 
ATOM     22  C   UNK A   0      11.150  11.846  20.462  0.00  0.00    +0.000 A 
ATOM     23  C   UNK A   0       9.983  11.192  20.039  0.00  0.00    +0.000 A 
ENDBRANCH  17  18
ENDBRANCH  16  17
ENDBRANCH  15  16
ENDBRANCH  14  15
ENDBRANCH  13  14
ENDBRANCH  12  13
ENDBRANCH   1  12
BRANCH   9  24
ATOM     24  CA  PHE A   1       1.715   8.925  19.153  0.00  0.00    +0.000 C 
BRANCH  24  25
ATOM     25  C   PHE A   1       1.221   9.469  17.795  0.00  0.00    +0.000 C 
BRANCH  25  26
ATOM     26  O   PHE A   1       2.102  10.502  17.333  0.00  0.00    +0.000 OA
ATOM     27  H   PHE A   1       2.628  10.101  16.619  0.00  0.00    +0.000 HD
ENDBRANCH  25  26
ENDBRANCH  24  25
BRANCH  24  28
ATOM     28  CB  PHE A   1       0.563   9.115  20.185  0.00  0.00    +0.000 C 
BRANCH  28  29
ATOM     29  CG  PHE A   1      -0.076  10.481  20.256  0.00  0.00    +0.000 A 
ATOM     30  CD1 PHE A   1      -1.251  10.765  19.551  0.00  0.00    +0.000 A 
ATOM     31  CE1 PHE A   1      -1.829  12.035  19.622  0.00  0.00    +0.000 A 
ATOM     32  CZ  PHE A   1      -1.247  13.029  20.409  0.00  0.00    +0.000 A 
ATOM     33  CE2 PHE A   1      -0.103  12.745  21.149  0.00  0.00    +0.000 A 
ATOM     34  CD2 PHE A   1       0.476  11.475  21.080  0.00  0.00    +0.000 A 
ENDBRANCH  28  29
ENDBRANCH  24  28
ENDBRANCH   9  24
TORSDOF 12
ENDMDL
MODEL 5
REMARK VINA RESULT:      -8.1      0.529      1.012
REMARK  Name = 
REMARK  12 active torsions:
REMARK  status: ('A' for Active; 'I' for Inactive)
REMARK    1  A    between atoms: C_2  and  O_3
REMARK    2  A    between atoms: C_2  and  C_14
REMARK    3  A    between atoms: O_3  and  C_4
REMARK    4  A    between atoms: C_4  and  C_5
REMARK    5  A    between atoms: C_5  and  C_6
REMARK    6  A    between atoms: C_6  and  C_7
REMARK    7  A    between atoms: C_7  and  C_8
REMARK    8  A    between atoms: N_22  and  CA_23
REMARK    9  A    between atoms: CA_23  and  C_24
REMARK   10  A    between atoms: CA_23  and  CB_26
REMARK   11  A    between atoms: C_24  and  O_25
REMARK   12  A    between atoms: CB_26  and  CG_27
REMARK                            x       y       z     vdW  Elec       q    Type
REMARK                         _______ _______ _______ _____ _____    ______ ____
ROOT
ATOM      1  C   UNK A   0       6.654   4.577  17.575  0.00  0.00    +0.000 C 
ATOM      2  C   UNK A   0       7.406   4.947  16.261  0.00  0.00    +0.000 C 
ATOM      3  C   UNK A   0       6.890   4.267  15.014  0.00  0.00    +0.000 C 
ATOM      4  C   UNK A   0       5.405   4.515  14.887  0.00  0.00    +0.000 C 
ATOM      5  C   UNK A   0       4.692   4.024  16.132  0.00  0.00    +0.000 C 
ATOM      6  N   UNK A   0       5.164   4.678  17.364  0.00  0.00    +0.000 N 
ATOM      7  C   UNK A   0       4.337   4.677  18.503  0.00  0.00    +0.000 C 
ATOM      8  O   UNK A   0       4.776   4.798  19.642  0.00  0.00    +0.000 OA
ATOM      9  N   PHE A   1       2.976   4.575  18.255  0.00  0.00    +0.000 N 
ATOM     10  H   PHE A   1       2.635   4.653  17.316  0.00  0.00    +0.000 HD
ENDROOT
BRANCH   1  12
ATOM     11  O   UNK A   0       7.466   5.333  19.821  0.00  0.00    +0.000 OA
ATOM     12  C   UNK A   0       7.471   5.433  18.604  0.00  0.00    +0.000 C 
BRANCH  12  13
ATOM     13  O   UNK A   0       7.991   6.512  17.909  0.00  0.00    +0.000 OA
BRANCH  13  14
ATOM     14  C   UNK A   0       8.357   7.712  18.625  0.00  0.00    +0.000 C 
BRANCH  14  15
ATOM     15  C   UNK A   0       7.814   8.971  17.913  0.00  0.00    +0.000 C 
BRANCH  15  16
ATOM     16  C   UNK A   0       8.926  10.001  17.631  0.00  0.00    +0.000 C 
BRANCH  16  17
ATOM     17  C   UNK A   0       9.229  10.955  18.810  0.00  0.00    +0.000 C 
BRANCH  17  18
ATOM     18  C   UNK A   0       9.810  12.307  18.405  0.00  0.00    +0.000 A 
ATOM     19  C   UNK A   0      10.836  12.371  17.442  0.00  0.00    +0.000 A 
ATOM     20  C   UNK A   0      11.378  13.602  17.048  0.00  0.00    +0.000 A 
ATOM     21  C   UNK A   0      10.892  14.791  17.586  0.00  0.00    +0.000 A 
ATOM     22  C   UNK A   0       9.857  14.744  18.516  0.00  0.00    +0.000 A 
ATOM     23  C   UNK A   0       9.317  13.509  18.906  0.00  0.00    +0.000 A 
ENDBRANCH  17  18
ENDBRANCH  16  17
ENDBRANCH  15  16
ENDBRANCH  14  15
ENDBRANCH  13  14
ENDBRANCH  12  13
ENDBRANCH   1  12
BRANCH   9  24
ATOM     24  CA  PHE A   1       1.948   4.894  19.266  0.00  0.00    +0.000 C 
BRANCH  24  25
ATOM     25  C   PHE A   1       1.774   3.671  20.192  0.00  0.00    +0.000 C 
BRANCH  25  26
ATOM     26  O   PHE A   1       0.379   3.421  20.414  0.00  0.00    +0.000 OA
ATOM     27  H   PHE A   1       0.026   3.117  19.558  0.00  0.00    +0.000 HD
ENDBRANCH  25  26
ENDBRANCH  24  25
BRANCH  24  28
ATOM     28  CB  PHE A   1       2.327   6.113  20.161  0.00  0.00    +0.000 C 
BRANCH  28  29
ATOM     29  CG  PHE A   1       1.943   7.482  19.652  0.00  0.00    +0.000 A 
ATOM     30  CD1 PHE A   1       1.274   8.396  20.474  0.00  0.00    +0.000 A 
ATOM     31  CE1 PHE A   1       0.922   9.657  19.988  0.00  0.00    +0.000 A 
ATOM     32  CZ  PHE A   1       1.246  10.023  18.682  0.00  0.00    +0.000 A 
ATOM     33  CE2 PHE A   1       1.950   9.139  17.870  0.00  0.00    +0.000 A 
ATOM     34  CD2 PHE A   1       2.304   7.878  18.354  0.00  0.00    +0.000 A 
ENDBRANCH  28  29
ENDBRANCH  24  28
ENDBRANCH   9  24
TORSDOF 12
ENDMDL
MODEL 6
REMARK VINA RESULT:      -8.0      0.849      1.353
REMARK  Name = 
REMARK  12 active torsions:
REMARK  status: ('A' for Active; 'I' for Inactive)
REMARK    1  A    between atoms: C_2  and  O_3
REMARK    2  A    between atoms: C_2  and  C_14
REMARK    3  A    between atoms: O_3  and  C_4
REMARK    4  A    between atoms: C_4  and  C_5
REMARK    5  A    between atoms: C_5  and  C_6
REMARK    6  A    between atoms: C_6  and  C_7
REMARK    7  A    between atoms: C_7  and  C_8
REMARK    8  A    between atoms: N_22  and  CA_23
REMARK    9  A    between atoms: CA_23  and  C_24
REMARK   10  A    between atoms: CA_23  and  CB_26
REMARK   11  A    between atoms: C_24  and  O_25
REMARK   12  A    between atoms: CB_26  and  CG_27
REMARK                            x       y       z     vdW  Elec       q    Type
REMARK                         _______ _______ _______ _____ _____    ______ ____
ROOT
ATOM      1  C   UNK A   0       6.715   4.869  17.132  0.00  0.00    +0.000 C 
ATOM      2  C   UNK A   0       7.352   5.150  15.737  0.00  0.00    +0.000 C 
ATOM      3  C   UNK A   0       6.854   4.267  14.616  0.00  0.00    +0.000 C 
ATOM      4  C   UNK A   0       5.346   4.338  14.557  0.00  0.00    +0.000 C 
ATOM      5  C   UNK A   0       4.758   3.934  15.894  0.00  0.00    +0.000 C 
ATOM      6  N   UNK A   0       5.214   4.784  17.007  0.00  0.00    +0.000 N 
ATOM      7  C   UNK A   0       4.452   4.838  18.188  0.00  0.00    +0.000 C 
ATOM      8  O   UNK A   0       4.932   5.147  19.274  0.00  0.00    +0.000 OA
ATOM      9  N   PHE A   1       3.101   4.562  18.043  0.00  0.00    +0.000 N 
ATOM     10  H   PHE A   1       2.706   4.484  17.125  0.00  0.00    +0.000 HD
ENDROOT
BRANCH   1  12
ATOM     11  O   UNK A   0       7.652   5.917  19.205  0.00  0.00    +0.000 OA
ATOM     12  C   UNK A   0       7.481   5.930  17.996  0.00  0.00    +0.000 C 
BRANCH  12  13
ATOM     13  O   UNK A   0       7.694   7.034  17.187  0.00  0.00    +0.000 OA
BRANCH  13  14
ATOM     14  C   UNK A   0       7.635   8.359  17.759  0.00  0.00    +0.000 C 
BRANCH  14  15
ATOM     15  C   UNK A   0       8.936   8.691  18.523  0.00  0.00    +0.000 C 
BRANCH  15  16
ATOM     16  C   UNK A   0       8.925  10.126  19.086  0.00  0.00    +0.000 C 
BRANCH  16  17
ATOM     17  C   UNK A   0       8.963  11.237  18.011  0.00  0.00    +0.000 C 
BRANCH  17  18
ATOM     18  C   UNK A   0      10.159  12.180  18.109  0.00  0.00    +0.000 A 
ATOM     19  C   UNK A   0      10.227  13.316  17.280  0.00  0.00    +0.000 A 
ATOM     20  C   UNK A   0      11.312  14.201  17.359  0.00  0.00    +0.000 A 
ATOM     21  C   UNK A   0      12.333  13.985  18.280  0.00  0.00    +0.000 A 
ATOM     22  C   UNK A   0      12.263  12.881  19.126  0.00  0.00    +0.000 A 
ATOM     23  C   UNK A   0      11.174  12.000  19.044  0.00  0.00    +0.000 A 
ENDBRANCH  17  18
ENDBRANCH  16  17
ENDBRANCH  15  16
ENDBRANCH  14  15
ENDBRANCH  13  14
ENDBRANCH  12  13
ENDBRANCH   1  12
BRANCH   9  24
ATOM     24  CA  PHE A   1       2.095   4.894  19.073  0.00  0.00    +0.000 C 
BRANCH  24  25
ATOM     25  C   PHE A   1       1.919   3.671  19.999  0.00  0.00    +0.000 C 
BRANCH  25  26
ATOM     26  O   PHE A   1       3.178   3.323  20.592  0.00  0.00    +0.000 OA
ATOM     27  H   PHE A   1       3.182   3.746  21.470  0.00  0.00    +0.000 HD
ENDBRANCH  25  26
ENDBRANCH  24  25
BRANCH  24  28
ATOM     28  CB  PHE A   1       2.510   6.104  19.963  0.00  0.00    +0.000 C 
BRANCH  28  29
ATOM     29  CG  PHE A   1       2.025   7.469  19.533  0.00  0.00    +0.000 A 
ATOM     30  CD1 PHE A   1       1.435   8.347  20.450  0.00  0.00    +0.000 A 
ATOM     31  CE1 PHE A   1       0.988   9.604  20.036  0.00  0.00    +0.000 A 
ATOM     32  CZ  PHE A   1       1.139  10.002  18.708  0.00  0.00    +0.000 A 
ATOM     33  CE2 PHE A   1       1.764   9.154  17.797  0.00  0.00    +0.000 A 
ATOM     34  CD2 PHE A   1       2.212   7.897  18.209  0.00  0.00    +0.000 A 
ENDBRANCH  28  29
ENDBRANCH  24  28
ENDBRANCH   9  24
TORSDOF 12
ENDMDL
MODEL 7
REMARK VINA RESULT:      -8.0      1.465      3.105
REMARK  Name = 
REMARK  12 active torsions:
REMARK  status: ('A' for Active; 'I' for Inactive)
REMARK    1  A    between atoms: C_2  and  O_3
REMARK    2  A    between atoms: C_2  and  C_14
REMARK    3  A    between atoms: O_3  and  C_4
REMARK    4  A    between atoms: C_4  and  C_5
REMARK    5  A    between atoms: C_5  and  C_6
REMARK    6  A    between atoms: C_6  and  C_7
REMARK    7  A    between atoms: C_7  and  C_8
REMARK    8  A    between atoms: N_22  and  CA_23
REMARK    9  A    between atoms: CA_23  and  C_24
REMARK   10  A    between atoms: CA_23  and  CB_26
REMARK   11  A    between atoms: C_24  and  O_25
REMARK   12  A    between atoms: CB_26  and  CG_27
REMARK                            x       y       z     vdW  Elec       q    Type
REMARK                         _______ _______ _______ _____ _____    ______ ____
ROOT
ATOM      1  C   UNK A   0       6.556   4.617  17.542  0.00  0.00    +0.000 C 
ATOM      2  C   UNK A   0       7.156   4.442  16.114  0.00  0.00    +0.000 C 
ATOM      3  C   UNK A   0       6.231   3.802  15.105  0.00  0.00    +0.000 C 
ATOM      4  C   UNK A   0       4.929   4.566  15.065  0.00  0.00    +0.000 C 
ATOM      5  C   UNK A   0       4.311   4.605  16.449  0.00  0.00    +0.000 C 
ATOM      6  N   UNK A   0       5.183   5.235  17.454  0.00  0.00    +0.000 N 
ATOM      7  C   UNK A   0       4.614   5.744  18.636  0.00  0.00    +0.000 C 
ATOM      8  O   UNK A   0       5.254   5.886  19.673  0.00  0.00    +0.000 OA
ATOM      9  N   PHE A   1       3.283   6.122  18.545  0.00  0.00    +0.000 N 
ATOM     10  H   PHE A   1       2.837   6.159  17.649  0.00  0.00    +0.000 HD
ENDROOT
BRANCH   1  12
ATOM     11  O   UNK A   0       8.345   4.861  19.278  0.00  0.00    +0.000 OA
ATOM     12  C   UNK A   0       7.784   5.265  18.272  0.00  0.00    +0.000 C 
BRANCH  12  13
ATOM     13  O   UNK A   0       7.948   6.533  17.740  0.00  0.00    +0.000 OA
BRANCH  13  14
ATOM     14  C   UNK A   0       8.232   7.645  18.617  0.00  0.00    +0.000 C 
BRANCH  14  15
ATOM     15  C   UNK A   0       8.029   8.992  17.889  0.00  0.00    +0.000 C 
BRANCH  15  16
ATOM     16  C   UNK A   0       9.239   9.931  18.064  0.00  0.00    +0.000 C 
BRANCH  16  17
ATOM     17  C   UNK A   0       9.094  10.956  19.214  0.00  0.00    +0.000 C 
BRANCH  17  18
ATOM     18  C   UNK A   0       9.515  12.379  18.858  0.00  0.00    +0.000 A 
ATOM     19  C   UNK A   0      10.876  12.737  18.891  0.00  0.00    +0.000 A 
ATOM     20  C   UNK A   0      11.287  14.036  18.559  0.00  0.00    +0.000 A 
ATOM     21  C   UNK A   0      10.355  14.992  18.167  0.00  0.00    +0.000 A 
ATOM     22  C   UNK A   0       9.009  14.642  18.101  0.00  0.00    +0.000 A 
ATOM     23  C   UNK A   0       8.603  13.340  18.432  0.00  0.00    +0.000 A 
ENDBRANCH  17  18
ENDBRANCH  16  17
ENDBRANCH  15  16
ENDBRANCH  14  15
ENDBRANCH  13  14
ENDBRANCH  12  13
ENDBRANCH   1  12
BRANCH   9  24
ATOM     24  CA  PHE A   1       2.619   6.976  19.552  0.00  0.00    +0.000 C 
BRANCH  24  25
ATOM     25  C   PHE A   1       1.926   8.147  18.822  0.00  0.00    +0.000 C 
BRANCH  25  26
ATOM     26  O   PHE A   1       1.349   9.046  19.779  0.00  0.00    +0.000 OA
ATOM     27  H   PHE A   1       0.746   9.620  19.272  0.00  0.00    +0.000 HD
ENDBRANCH  25  26
ENDBRANCH  24  25
BRANCH  24  28
ATOM     28  CB  PHE A   1       1.530   6.220  20.371  0.00  0.00    +0.000 C 
BRANCH  28  29
ATOM     29  CG  PHE A   1       1.634   4.714  20.423  0.00  0.00    +0.000 A 
ATOM     30  CD1 PHE A   1       2.295   4.072  21.476  0.00  0.00    +0.000 A 
ATOM     31  CE1 PHE A   1       2.387   2.678  21.507  0.00  0.00    +0.000 A 
ATOM     32  CZ  PHE A   1       1.806   1.912  20.497  0.00  0.00    +0.000 A 
ATOM     33  CE2 PHE A   1       1.109   2.538  19.467  0.00  0.00    +0.000 A 
ATOM     34  CD2 PHE A   1       1.015   3.931  19.435  0.00  0.00    +0.000 A 
ENDBRANCH  28  29
ENDBRANCH  24  28
ENDBRANCH   9  24
TORSDOF 12
ENDMDL
MODEL 8
REMARK VINA RESULT:      -8.0      4.708      8.904
REMARK  Name = 
REMARK  12 active torsions:
REMARK  status: ('A' for Active; 'I' for Inactive)
REMARK    1  A    between atoms: C_2  and  O_3
REMARK    2  A    between atoms: C_2  and  C_14
REMARK    3  A    between atoms: O_3  and  C_4
REMARK    4  A    between atoms: C_4  and  C_5
REMARK    5  A    between atoms: C_5  and  C_6
REMARK    6  A    between atoms: C_6  and  C_7
REMARK    7  A    between atoms: C_7  and  C_8
REMARK    8  A    between atoms: N_22  and  CA_23
REMARK    9  A    between atoms: CA_23  and  C_24
REMARK   10  A    between atoms: CA_23  and  CB_26
REMARK   11  A    between atoms: C_24  and  O_25
REMARK   12  A    between atoms: CB_26  and  CG_27
REMARK                            x       y       z     vdW  Elec       q    Type
REMARK                         _______ _______ _______ _____ _____    ______ ____
ROOT
ATOM      1  C   UNK A   0       1.415   8.776  20.428  0.00  0.00    +0.000 C 
ATOM      2  C   UNK A   0       0.808  10.006  19.687  0.00  0.00    +0.000 C 
ATOM      3  C   UNK A   0       1.587  10.475  18.480  0.00  0.00    +0.000 C 
ATOM      4  C   UNK A   0       1.795   9.314  17.537  0.00  0.00    +0.000 C 
ATOM      5  C   UNK A   0       2.503   8.184  18.260  0.00  0.00    +0.000 C 
ATOM      6  N   UNK A   0       1.764   7.696  19.435  0.00  0.00    +0.000 N 
ATOM      7  C   UNK A   0       2.037   6.409  19.934  0.00  0.00    +0.000 C 
ATOM      8  O   UNK A   0       1.813   6.085  21.095  0.00  0.00    +0.000 OA
ATOM      9  N   PHE A   1       2.539   5.503  19.011  0.00  0.00    +0.000 N 
ATOM     10  H   PHE A   1       2.549   5.740  18.037  0.00  0.00    +0.000 HD
ENDROOT
BRANCH   1  12
ATOM     11  O   UNK A   0      -0.615   7.906  21.608  0.00  0.00    +0.000 OA
ATOM     12  C   UNK A   0       0.374   8.621  21.590  0.00  0.00    +0.000 C 
BRANCH  12  13
ATOM     13  O   UNK A   0       0.615   9.647  22.488  0.00  0.00    +0.000 OA
BRANCH  13  14
ATOM     14  C   UNK A   0      -0.463  10.138  23.316  0.00  0.00    +0.000 C 
BRANCH  14  15
ATOM     15  C   UNK A   0      -1.342  11.145  22.542  0.00  0.00    +0.000 C 
BRANCH  15  16
ATOM     16  C   UNK A   0      -0.585  12.450  22.227  0.00  0.00    +0.000 C 
BRANCH  16  17
ATOM     17  C   UNK A   0      -1.380  13.459  21.365  0.00  0.00    +0.000 C 
BRANCH  17  18
ATOM     18  C   UNK A   0      -2.343  12.826  20.364  0.00  0.00    +0.000 A 
ATOM     19  C   UNK A   0      -3.732  12.925  20.567  0.00  0.00    +0.000 A 
ATOM     20  C   UNK A   0      -4.635  12.359  19.655  0.00  0.00    +0.000 A 
ATOM     21  C   UNK A   0      -4.172  11.707  18.517  0.00  0.00    +0.000 A 
ATOM     22  C   UNK A   0      -2.800  11.628  18.289  0.00  0.00    +0.000 A 
ATOM     23  C   UNK A   0      -1.901  12.198  19.203  0.00  0.00    +0.000 A 
ENDBRANCH  17  18
ENDBRANCH  16  17
ENDBRANCH  15  16
ENDBRANCH  14  15
ENDBRANCH  13  14
ENDBRANCH  12  13
ENDBRANCH   1  12
BRANCH   9  24
ATOM     24  CA  PHE A   1       2.566   4.045  19.246  0.00  0.00    +0.000 C 
BRANCH  24  25
ATOM     25  C   PHE A   1       1.113   3.524  19.274  0.00  0.00    +0.000 C 
BRANCH  25  26
ATOM     26  O   PHE A   1       0.716   3.257  20.626  0.00  0.00    +0.000 OA
ATOM     27  H   PHE A   1       0.051   2.548  20.570  0.00  0.00    +0.000 HD
ENDBRANCH  25  26
ENDBRANCH  24  25
BRANCH  24  28
ATOM     28  CB  PHE A   1       3.328   3.261  18.135  0.00  0.00    +0.000 C 
BRANCH  28  29
ATOM     29  CG  PHE A   1       4.640   3.840  17.664  0.00  0.00    +0.000 A 
ATOM     30  CD1 PHE A   1       4.921   3.977  16.299  0.00  0.00    +0.000 A 
ATOM     31  CE1 PHE A   1       6.141   4.511  15.879  0.00  0.00    +0.000 A 
ATOM     32  CZ  PHE A   1       7.086   4.928  16.816  0.00  0.00    +0.000 A 
ATOM     33  CE2 PHE A   1       6.800   4.838  18.175  0.00  0.00    +0.000 A 
ATOM     34  CD2 PHE A   1       5.580   4.304  18.598  0.00  0.00    +0.000 A 
ENDBRANCH  28  29
ENDBRANCH  24  28
ENDBRANCH   9  24
TORSDOF 12
ENDMDL
MODEL 9
REMARK VINA RESULT:      -7.9      4.733     10.614
REMARK  Name = 
REMARK  12 active torsions:
REMARK  status: ('A' for Active; 'I' for Inactive)
REMARK    1  A    between atoms: C_2  and  O_3
REMARK    2  A    between atoms: C_2  and  C_14
REMARK    3  A    between atoms: O_3  and  C_4
REMARK    4  A    between atoms: C_4  and  C_5
REMARK    5  A    between atoms: C_5  and  C_6
REMARK    6  A    between atoms: C_6  and  C_7
REMARK    7  A    between atoms: C_7  and  C_8
REMARK    8  A    between atoms: N_22  and  CA_23
REMARK    9  A    between atoms: CA_23  and  C_24
REMARK   10  A    between atoms: CA_23  and  CB_26
REMARK   11  A    between atoms: C_24  and  O_25
REMARK   12  A    between atoms: CB_26  and  CG_27
REMARK                            x       y       z     vdW  Elec       q    Type
REMARK                         _______ _______ _______ _____ _____    ______ ____
ROOT
ATOM      1  C   UNK A   0       0.318   9.905  19.777  0.00  0.00    +0.000 C 
ATOM      2  C   UNK A   0       0.270  10.713  21.109  0.00  0.00    +0.000 C 
ATOM      3  C   UNK A   0       0.230   9.874  22.366  0.00  0.00    +0.000 C 
ATOM      4  C   UNK A   0       1.386   8.901  22.353  0.00  0.00    +0.000 C 
ATOM      5  C   UNK A   0       1.325   8.045  21.103  0.00  0.00    +0.000 C 
ATOM      6  N   UNK A   0       1.375   8.833  19.860  0.00  0.00    +0.000 N 
ATOM      7  C   UNK A   0       1.771   8.206  18.664  0.00  0.00    +0.000 C 
ATOM      8  O   UNK A   0       1.449   8.624  17.557  0.00  0.00    +0.000 OA
ATOM      9  N   PHE A   1       2.596   7.101  18.812  0.00  0.00    +0.000 N 
ATOM     10  H   PHE A   1       2.983   6.887  19.711  0.00  0.00    +0.000 HD
ENDROOT
BRANCH   1  12
ATOM     11  O   UNK A   0       1.232  11.869  18.519  0.00  0.00    +0.000 OA
ATOM     12  C   UNK A   0       0.323  11.087  18.746  0.00  0.00    +0.000 C 
BRANCH  12  13
ATOM     13  O   UNK A   0      -0.987  11.268  18.332  0.00  0.00    +0.000 OA
BRANCH  13  14
ATOM     14  C   UNK A   0      -1.525  10.435  17.282  0.00  0.00    +0.000 C 
BRANCH  14  15
ATOM     15  C   UNK A   0      -2.866   9.799  17.711  0.00  0.00    +0.000 C 
BRANCH  15  16
ATOM     16  C   UNK A   0      -4.077  10.560  17.135  0.00  0.00    +0.000 C 
BRANCH  16  17
ATOM     17  C   UNK A   0      -4.518  11.786  17.967  0.00  0.00    +0.000 C 
BRANCH  17  18
ATOM     18  C   UNK A   0      -5.620  11.505  18.984  0.00  0.00    +0.000 A 
ATOM     19  C   UNK A   0      -6.388  10.329  18.881  0.00  0.00    +0.000 A 
ATOM     20  C   UNK A   0      -7.400  10.046  19.809  0.00  0.00    +0.000 A 
ATOM     21  C   UNK A   0      -7.648  10.914  20.869  0.00  0.00    +0.000 A 
ATOM     22  C   UNK A   0      -6.876  12.065  21.000  0.00  0.00    +0.000 A 
ATOM     23  C   UNK A   0      -5.863  12.343  20.069  0.00  0.00    +0.000 A 
ENDBRANCH  17  18
ENDBRANCH  16  17
ENDBRANCH  15  16
ENDBRANCH  14  15
ENDBRANCH  13  14
ENDBRANCH  12  13
ENDBRANCH   1  12
BRANCH   9  24
ATOM     24  CA  PHE A   1       3.380   6.526  17.699  0.00  0.00    +0.000 C 
BRANCH  24  25
ATOM     25  C   PHE A   1       4.674   7.352  17.532  0.00  0.00    +0.000 C 
BRANCH  25  26
ATOM     26  O   PHE A   1       5.387   6.911  16.368  0.00  0.00    +0.000 OA
ATOM     27  H   PHE A   1       5.773   7.714  15.976  0.00  0.00    +0.000 HD
ENDBRANCH  25  26
ENDBRANCH  24  25
BRANCH  24  28
ATOM     28  CB  PHE A   1       3.793   5.044  17.945  0.00  0.00    +0.000 C 
BRANCH  28  29
ATOM     29  CG  PHE A   1       2.843   4.192  18.753  0.00  0.00    +0.000 A 
ATOM     30  CD1 PHE A   1       3.002   4.048  20.136  0.00  0.00    +0.000 A 
ATOM     31  CE1 PHE A   1       2.118   3.253  20.870  0.00  0.00    +0.000 A 
ATOM     32  CZ  PHE A   1       1.058   2.608  20.233  0.00  0.00    +0.000 A 
ATOM     33  CE2 PHE A   1       0.864   2.780  18.865  0.00  0.00    +0.000 A 
ATOM     34  CD2 PHE A   1       1.747   3.575  18.130  0.00  0.00    +0.000 A 
ENDBRANCH  28  29
ENDBRANCH  24  28
ENDBRANCH   9  24
TORSDOF 12
ENDMDL
