MODEL 1
REMARK VINA RESULT:      -7.5      0.000      0.000
REMARK  Name = 
REMARK  5 active torsions:
REMARK  status: ('A' for Active; 'I' for Inactive)
REMARK    1  A    between atoms: C_1  and  C_2
REMARK    2  A    between atoms: C_5  and  C_6
REMARK    3  A    between atoms: C_6  and  O_7
REMARK    4  A    between atoms: C_10  and  C_11
REMARK    5  A    between atoms: C_14  and  O_15
REMARK                            x       y       z     vdW  Elec       q    Type
REMARK                         _______ _______ _______ _____ _____    ______ ____
ROOT
ATOM      1  C   UNL     1       2.345   7.555  19.288  0.00  0.00    +0.000 C 
ATOM      2  C   UNL     1       2.443   6.098  18.964  0.00  0.00    +0.000 C 
ATOM      3  C   UNL     1       1.923   5.438  17.909  0.00  0.00    +0.000 C 
ATOM      4  C   UNL     1       2.075   3.908  17.776  0.00  0.00    +0.000 C 
ATOM      5  C   UNL     1       2.459   3.061  19.091  0.00  0.00    +0.000 C 
ATOM      6  C   UNL     1       3.874   2.555  19.468  0.00  0.00    +0.000 C 
ATOM      7  O   UNL     1       4.923   3.497  19.682  0.00  0.00    +0.000 OA
ATOM      8  C   UNL     1       4.616   4.819  19.254  0.00  0.00    +0.000 C 
ATOM      9  C   UNL     1       3.211   5.235  19.903  0.00  0.00    +0.000 C 
ATOM     10  C   UNL     1       2.239   4.041  20.231  0.00  0.00    +0.000 C 
ENDROOT
BRANCH   8  11
ATOM     11  C   UNL     1       5.039   4.937  17.757  0.00  0.00    +0.000 A 
ATOM     12  C   UNL     1       5.404   3.793  16.999  0.00  0.00    +0.000 A 
ATOM     13  C   UNL     1       5.983   3.882  15.727  0.00  0.00    +0.000 A 
ATOM     14  C   UNL     1       6.219   5.127  15.180  0.00  0.00    +0.000 A 
ATOM     15  C   UNL     1       5.803   6.274  15.845  0.00  0.00    +0.000 A 
ATOM     16  C   UNL     1       5.227   6.178  17.125  0.00  0.00    +0.000 A 
BRANCH  14  17
ATOM     17  O   UNL     1       6.895   5.252  14.001  0.00  0.00    +0.000 OA
ATOM     18  H   UNL     1       6.811   4.409  13.514  0.00  0.00    +0.000 HD
ENDBRANCH  14  17
ENDBRANCH   8  11
BRANCH   5  19
ATOM     19  C   UNL     1       1.615   1.759  18.951  0.00  0.00    +0.000 C 
BRANCH  19  20
ATOM     20  O   UNL     1       0.307   1.962  18.442  0.00  0.00    +0.000 OA
ATOM     21  H   UNL     1       0.040   1.149  17.973  0.00  0.00    +0.000 HD
ENDBRANCH  19  20
ENDBRANCH   5  19
TORSDOF 4
ENDMDL
MODEL 2
REMARK VINA RESULT:      -7.1      2.104      5.701
REMARK  Name = 
REMARK  5 active torsions:
REMARK  status: ('A' for Active; 'I' for Inactive)
REMARK    1  A    between atoms: C_1  and  C_2
REMARK    2  A    between atoms: C_5  and  C_6
REMARK    3  A    between atoms: C_6  and  O_7
REMARK    4  A    between atoms: C_10  and  C_11
REMARK    5  A    between atoms: C_14  and  O_15
REMARK                            x       y       z     vdW  Elec       q    Type
REMARK                         _______ _______ _______ _____ _____    ______ ____
ROOT
ATOM      1  C   UNL     1       5.332   4.136  14.130  0.00  0.00    +0.000 C 
ATOM      2  C   UNL     1       5.661   5.014  15.295  0.00  0.00    +0.000 C 
ATOM      3  C   UNL     1       5.104   6.192  15.640  0.00  0.00    +0.000 C 
ATOM      4  C   UNL     1       5.625   6.992  16.853  0.00  0.00    +0.000 C 
ATOM      5  C   UNL     1       7.090   6.646  17.426  0.00  0.00    +0.000 C 
ATOM      6  C   UNL     1       7.401   5.754  18.654  0.00  0.00    +0.000 C 
ATOM      7  O   UNL     1       7.003   4.386  18.648  0.00  0.00    +0.000 OA
ATOM      8  C   UNL     1       6.102   4.045  17.600  0.00  0.00    +0.000 C 
ATOM      9  C   UNL     1       6.735   4.555  16.219  0.00  0.00    +0.000 C 
ATOM     10  C   UNL     1       7.711   5.786  16.337  0.00  0.00    +0.000 C 
ENDROOT
BRANCH   8  11
ATOM     11  C   UNL     1       4.654   4.293  18.126  0.00  0.00    +0.000 A 
ATOM     12  C   UNL     1       4.420   4.970  19.353  0.00  0.00    +0.000 A 
ATOM     13  C   UNL     1       3.156   5.028  19.953  0.00  0.00    +0.000 A 
ATOM     14  C   UNL     1       2.089   4.400  19.341  0.00  0.00    +0.000 A 
ATOM     15  C   UNL     1       2.251   3.797  18.099  0.00  0.00    +0.000 A 
ATOM     16  C   UNL     1       3.523   3.738  17.504  0.00  0.00    +0.000 A 
BRANCH  14  17
ATOM     17  O   UNL     1       0.876   4.329  19.961  0.00  0.00    +0.000 OA
ATOM     18  H   UNL     1       0.862   3.519  20.506  0.00  0.00    +0.000 HD
ENDBRANCH  14  17
ENDBRANCH   8  11
BRANCH   5  19
ATOM     19  C   UNL     1       7.676   8.038  17.808  0.00  0.00    +0.000 C 
BRANCH  19  20
ATOM     20  O   UNL     1       8.648   8.000  18.839  0.00  0.00    +0.000 OA
ATOM     21  H   UNL     1       8.614   7.115  19.249  0.00  0.00    +0.000 HD
ENDBRANCH  19  20
ENDBRANCH   5  19
TORSDOF 4
ENDMDL
MODEL 3
REMARK VINA RESULT:      -7.1      1.761      4.904
REMARK  Name = 
REMARK  5 active torsions:
REMARK  status: ('A' for Active; 'I' for Inactive)
REMARK    1  A    between atoms: C_1  and  C_2
REMARK    2  A    between atoms: C_5  and  C_6
REMARK    3  A    between atoms: C_6  and  O_7
REMARK    4  A    between atoms: C_10  and  C_11
REMARK    5  A    between atoms: C_14  and  O_15
REMARK                            x       y       z     vdW  Elec       q    Type
REMARK                         _______ _______ _______ _____ _____    ______ ____
ROOT
ATOM      1  C   UNL     1       2.851   7.851  17.676  0.00  0.00    +0.000 C 
ATOM      2  C   UNL     1       3.938   6.863  17.959  0.00  0.00    +0.000 C 
ATOM      3  C   UNL     1       4.198   6.212  19.111  0.00  0.00    +0.000 C 
ATOM      4  C   UNL     1       5.414   5.270  19.233  0.00  0.00    +0.000 C 
ATOM      5  C   UNL     1       6.599   5.406  18.151  0.00  0.00    +0.000 C 
ATOM      6  C   UNL     1       6.801   4.508  16.904  0.00  0.00    +0.000 C 
ATOM      7  O   UNL     1       5.792   4.465  15.899  0.00  0.00    +0.000 OA
ATOM      8  C   UNL     1       4.557   5.057  16.286  0.00  0.00    +0.000 C 
ATOM      9  C   UNL     1       4.868   6.526  16.847  0.00  0.00    +0.000 C 
ATOM     10  C   UNL     1       6.306   6.725  17.457  0.00  0.00    +0.000 C 
ENDROOT
BRANCH   8  11
ATOM     11  C   UNL     1       3.696   3.948  16.965  0.00  0.00    +0.000 A 
ATOM     12  C   UNL     1       2.341   4.179  17.321  0.00  0.00    +0.000 A 
ATOM     13  C   UNL     1       1.605   3.287  18.111  0.00  0.00    +0.000 A 
ATOM     14  C   UNL     1       2.213   2.137  18.575  0.00  0.00    +0.000 A 
ATOM     15  C   UNL     1       3.511   1.826  18.185  0.00  0.00    +0.000 A 
ATOM     16  C   UNL     1       4.245   2.728  17.395  0.00  0.00    +0.000 A 
BRANCH  14  17
ATOM     17  O   UNL     1       1.567   1.313  19.450  0.00  0.00    +0.000 OA
ATOM     18  H   UNL     1       0.961   1.859  19.988  0.00  0.00    +0.000 HD
ENDBRANCH  14  17
ENDBRANCH   8  11
BRANCH   5  19
ATOM     19  C   UNL     1       7.893   5.187  18.991  0.00  0.00    +0.000 C 
BRANCH  19  20
ATOM     20  O   UNL     1       7.773   5.554  20.356  0.00  0.00    +0.000 OA
ATOM     21  H   UNL     1       6.894   5.959  20.479  0.00  0.00    +0.000 HD
ENDBRANCH  19  20
ENDBRANCH   5  19
TORSDOF 4
ENDMDL
MODEL 4
REMARK VINA RESULT:      -7.0      1.785      4.897
REMARK  Name = 
REMARK  5 active torsions:
REMARK  status: ('A' for Active; 'I' for Inactive)
REMARK    1  A    between atoms: C_1  and  C_2
REMARK    2  A    between atoms: C_5  and  C_6
REMARK    3  A    between atoms: C_6  and  O_7
REMARK    4  A    between atoms: C_10  and  C_11
REMARK    5  A    between atoms: C_14  and  O_15
REMARK                            x       y       z     vdW  Elec       q    Type
REMARK                         _______ _______ _______ _____ _____    ______ ____
ROOT
ATOM      1  C   UNL     1       2.939   8.064  17.490  0.00  0.00    +0.000 C 
ATOM      2  C   UNL     1       3.991   7.065  17.857  0.00  0.00    +0.000 C 
ATOM      3  C   UNL     1       4.288   6.572  19.076  0.00  0.00    +0.000 C 
ATOM      4  C   UNL     1       5.461   5.588  19.270  0.00  0.00    +0.000 C 
ATOM      5  C   UNL     1       6.583   5.499  18.119  0.00  0.00    +0.000 C 
ATOM      6  C   UNL     1       6.665   4.423  17.007  0.00  0.00    +0.000 C 
ATOM      7  O   UNL     1       5.595   4.294  16.073  0.00  0.00    +0.000 OA
ATOM      8  C   UNL     1       4.417   5.006  16.435  0.00  0.00    +0.000 C 
ATOM      9  C   UNL     1       4.834   6.519  16.758  0.00  0.00    +0.000 C 
ATOM     10  C   UNL     1       6.314   6.721  17.256  0.00  0.00    +0.000 C 
ENDROOT
BRANCH   8  11
ATOM     11  C   UNL     1       3.545   4.057  17.313  0.00  0.00    +0.000 A 
ATOM     12  C   UNL     1       4.004   2.765  17.684  0.00  0.00    +0.000 A 
ATOM     13  C   UNL     1       3.174   1.814  18.291  0.00  0.00    +0.000 A 
ATOM     14  C   UNL     1       1.853   2.131  18.537  0.00  0.00    +0.000 A 
ATOM     15  C   UNL     1       1.379   3.410  18.269  0.00  0.00    +0.000 A 
ATOM     16  C   UNL     1       2.216   4.359  17.655  0.00  0.00    +0.000 A 
BRANCH  14  17
ATOM     17  O   UNL     1       0.988   1.187  19.009  0.00  0.00    +0.000 OA
ATOM     18  H   UNL     1       0.080   1.473  18.788  0.00  0.00    +0.000 HD
ENDBRANCH  14  17
ENDBRANCH   8  11
BRANCH   5  19
ATOM     19  C   UNL     1       7.913   5.328  18.911  0.00  0.00    +0.000 C 
BRANCH  19  20
ATOM     20  O   UNL     1       7.794   5.543  20.308  0.00  0.00    +0.000 OA
ATOM     21  H   UNL     1       8.344   6.316  20.538  0.00  0.00    +0.000 HD
ENDBRANCH  19  20
ENDBRANCH   5  19
TORSDOF 4
ENDMDL
MODEL 5
REMARK VINA RESULT:      -6.9      0.782      1.333
REMARK  Name = 
REMARK  5 active torsions:
REMARK  status: ('A' for Active; 'I' for Inactive)
REMARK    1  A    between atoms: C_1  and  C_2
REMARK    2  A    between atoms: C_5  and  C_6
REMARK    3  A    between atoms: C_6  and  O_7
REMARK    4  A    between atoms: C_10  and  C_11
REMARK    5  A    between atoms: C_14  and  O_15
REMARK                            x       y       z     vdW  Elec       q    Type
REMARK                         _______ _______ _______ _____ _____    ______ ____
ROOT
ATOM      1  C   UNL     1       2.431   7.760  18.412  0.00  0.00    +0.000 C 
ATOM      2  C   UNL     1       2.634   6.279  18.463  0.00  0.00    +0.000 C 
ATOM      3  C   UNL     1       2.147   5.338  17.629  0.00  0.00    +0.000 C 
ATOM      4  C   UNL     1       2.414   3.839  17.882  0.00  0.00    +0.000 C 
ATOM      5  C   UNL     1       2.886   3.383  19.353  0.00  0.00    +0.000 C 
ATOM      6  C   UNL     1       4.343   3.091  19.793  0.00  0.00    +0.000 C 
ATOM      7  O   UNL     1       5.319   4.126  19.723  0.00  0.00    +0.000 OA
ATOM      8  C   UNL     1       4.904   5.271  18.986  0.00  0.00    +0.000 C 
ATOM      9  C   UNL     1       3.484   5.739  19.561  0.00  0.00    +0.000 C 
ATOM     10  C   UNL     1       2.611   4.604  20.216  0.00  0.00    +0.000 C 
ENDROOT
BRANCH   8  11
ATOM     11  C   UNL     1       5.290   5.033  17.493  0.00  0.00    +0.000 A 
ATOM     12  C   UNL     1       5.177   6.068  16.527  0.00  0.00    +0.000 A 
ATOM     13  C   UNL     1       5.314   5.837  15.153  0.00  0.00    +0.000 A 
ATOM     14  C   UNL     1       5.563   4.555  14.707  0.00  0.00    +0.000 A 
ATOM     15  C   UNL     1       5.764   3.523  15.617  0.00  0.00    +0.000 A 
ATOM     16  C   UNL     1       5.620   3.762  16.996  0.00  0.00    +0.000 A 
BRANCH  14  17
ATOM     17  O   UNL     1       5.575   4.273  13.372  0.00  0.00    +0.000 OA
ATOM     18  H   UNL     1       4.929   4.859  12.933  0.00  0.00    +0.000 HD
ENDBRANCH  14  17
ENDBRANCH   8  11
BRANCH   5  19
ATOM     19  C   UNL     1       2.142   2.033  19.578  0.00  0.00    +0.000 C 
BRANCH  19  20
ATOM     20  O   UNL     1       1.233   1.687  18.546  0.00  0.00    +0.000 OA
ATOM     21  H   UNL     1       0.349   1.590  18.948  0.00  0.00    +0.000 HD
ENDBRANCH  19  20
ENDBRANCH   5  19
TORSDOF 4
ENDMDL
MODEL 6
REMARK VINA RESULT:      -6.8      1.900      5.175
REMARK  Name = 
REMARK  5 active torsions:
REMARK  status: ('A' for Active; 'I' for Inactive)
REMARK    1  A    between atoms: C_1  and  C_2
REMARK    2  A    between atoms: C_5  and  C_6
REMARK    3  A    between atoms: C_6  and  O_7
REMARK    4  A    between atoms: C_10  and  C_11
REMARK    5  A    between atoms: C_14  and  O_15
REMARK                            x       y       z     vdW  Elec       q    Type
REMARK                         _______ _______ _______ _____ _____    ______ ____
ROOT
ATOM      1  C   UNL     1       2.266   7.762  18.037  0.00  0.00    +0.000 C 
ATOM      2  C   UNL     1       3.376   6.776  18.218  0.00  0.00    +0.000 C 
ATOM      3  C   UNL     1       4.060   6.482  19.342  0.00  0.00    +0.000 C 
ATOM      4  C   UNL     1       5.228   5.472  19.320  0.00  0.00    +0.000 C 
ATOM      5  C   UNL     1       5.903   5.115  17.902  0.00  0.00    +0.000 C 
ATOM      6  C   UNL     1       5.606   3.860  17.042  0.00  0.00    +0.000 C 
ATOM      7  O   UNL     1       4.287   3.642  16.549  0.00  0.00    +0.000 OA
ATOM      8  C   UNL     1       3.298   4.480  17.138  0.00  0.00    +0.000 C 
ATOM      9  C   UNL     1       3.804   5.996  17.023  0.00  0.00    +0.000 C 
ATOM     10  C   UNL     1       5.367   6.184  16.965  0.00  0.00    +0.000 C 
ENDROOT
BRANCH   8  11
ATOM     11  C   UNL     1       2.765   3.754  18.411  0.00  0.00    +0.000 A 
ATOM     12  C   UNL     1       1.504   4.082  18.975  0.00  0.00    +0.000 A 
ATOM     13  C   UNL     1       1.087   3.603  20.224  0.00  0.00    +0.000 A 
ATOM     14  C   UNL     1       1.930   2.784  20.947  0.00  0.00    +0.000 A 
ATOM     15  C   UNL     1       3.139   2.367  20.401  0.00  0.00    +0.000 A 
ATOM     16  C   UNL     1       3.553   2.855  19.149  0.00  0.00    +0.000 A 
BRANCH  14  17
ATOM     17  O   UNL     1       1.610   2.405  22.218  0.00  0.00    +0.000 OA
ATOM     18  H   UNL     1       0.683   2.097  22.217  0.00  0.00    +0.000 HD
ENDBRANCH  14  17
ENDBRANCH   8  11
BRANCH   5  19
ATOM     19  C   UNL     1       7.420   4.998  18.234  0.00  0.00    +0.000 C 
BRANCH  19  20
ATOM     20  O   UNL     1       8.138   4.113  17.391  0.00  0.00    +0.000 OA
ATOM     21  H   UNL     1       8.830   3.684  17.929  0.00  0.00    +0.000 HD
ENDBRANCH  19  20
ENDBRANCH   5  19
TORSDOF 4
ENDMDL
MODEL 7
REMARK VINA RESULT:      -6.7      1.808      5.603
REMARK  Name = 
REMARK  5 active torsions:
REMARK  status: ('A' for Active; 'I' for Inactive)
REMARK    1  A    between atoms: C_1  and  C_2
REMARK    2  A    between atoms: C_5  and  C_6
REMARK    3  A    between atoms: C_6  and  O_7
REMARK    4  A    between atoms: C_10  and  C_11
REMARK    5  A    between atoms: C_14  and  O_15
REMARK                            x       y       z     vdW  Elec       q    Type
REMARK                         _______ _______ _______ _____ _____    ______ ____
ROOT
ATOM      1  C   UNL     1       7.988   5.788  19.827  0.00  0.00    +0.000 C 
ATOM      2  C   UNL     1       7.456   5.462  18.467  0.00  0.00    +0.000 C 
ATOM      3  C   UNL     1       7.586   4.315  17.770  0.00  0.00    +0.000 C 
ATOM      4  C   UNL     1       7.018   4.186  16.341  0.00  0.00    +0.000 C 
ATOM      5  C   UNL     1       6.671   5.534  15.531  0.00  0.00    +0.000 C 
ATOM      6  C   UNL     1       5.266   6.168  15.375  0.00  0.00    +0.000 C 
ATOM      7  O   UNL     1       4.556   6.597  16.535  0.00  0.00    +0.000 OA
ATOM      8  C   UNL     1       5.114   6.142  17.762  0.00  0.00    +0.000 C 
ATOM      9  C   UNL     1       6.673   6.516  17.765  0.00  0.00    +0.000 C 
ATOM     10  C   UNL     1       7.343   6.628  16.344  0.00  0.00    +0.000 C 
ENDROOT
BRANCH   8  11
ATOM     11  C   UNL     1       4.473   4.757  18.085  0.00  0.00    +0.000 A 
ATOM     12  C   UNL     1       3.689   4.064  17.124  0.00  0.00    +0.000 A 
ATOM     13  C   UNL     1       2.934   2.929  17.443  0.00  0.00    +0.000 A 
ATOM     14  C   UNL     1       2.936   2.460  18.741  0.00  0.00    +0.000 A 
ATOM     15  C   UNL     1       3.752   3.054  19.698  0.00  0.00    +0.000 A 
ATOM     16  C   UNL     1       4.505   4.196  19.373  0.00  0.00    +0.000 A 
BRANCH  14  17
ATOM     17  O   UNL     1       2.114   1.437  19.113  0.00  0.00    +0.000 OA
ATOM     18  H   UNL     1       2.283   1.240  20.055  0.00  0.00    +0.000 HD
ENDBRANCH  14  17
ENDBRANCH   8  11
BRANCH   5  19
ATOM     19  C   UNL     1       7.106   5.210  14.071  0.00  0.00    +0.000 C 
BRANCH  19  20
ATOM     20  O   UNL     1       8.359   5.759  13.698  0.00  0.00    +0.000 OA
ATOM     21  H   UNL     1       8.817   5.104  13.139  0.00  0.00    +0.000 HD
ENDBRANCH  19  20
ENDBRANCH   5  19
TORSDOF 4
ENDMDL
MODEL 8
REMARK VINA RESULT:      -6.7      2.251      4.373
REMARK  Name = 
REMARK  5 active torsions:
REMARK  status: ('A' for Active; 'I' for Inactive)
REMARK    1  A    between atoms: C_1  and  C_2
REMARK    2  A    between atoms: C_5  and  C_6
REMARK    3  A    between atoms: C_6  and  O_7
REMARK    4  A    between atoms: C_10  and  C_11
REMARK    5  A    between atoms: C_14  and  O_15
REMARK                            x       y       z     vdW  Elec       q    Type
REMARK                         _______ _______ _______ _____ _____    ______ ____
ROOT
ATOM      1  C   UNL     1       0.869   3.297  20.556  0.00  0.00    +0.000 C 
ATOM      2  C   UNL     1       1.824   3.695  19.475  0.00  0.00    +0.000 C 
ATOM      3  C   UNL     1       1.560   3.953  18.178  0.00  0.00    +0.000 C 
ATOM      4  C   UNL     1       2.695   4.289  17.188  0.00  0.00    +0.000 C 
ATOM      5  C   UNL     1       4.204   3.902  17.595  0.00  0.00    +0.000 C 
ATOM      6  C   UNL     1       5.263   4.866  18.189  0.00  0.00    +0.000 C 
ATOM      7  O   UNL     1       5.013   5.501  19.440  0.00  0.00    +0.000 OA
ATOM      8  C   UNL     1       3.668   5.388  19.893  0.00  0.00    +0.000 C 
ATOM      9  C   UNL     1       3.259   3.840  19.844  0.00  0.00    +0.000 C 
ATOM     10  C   UNL     1       4.032   2.970  18.782  0.00  0.00    +0.000 C 
ENDROOT
BRANCH   8  11
ATOM     11  C   UNL     1       2.873   6.596  19.308  0.00  0.00    +0.000 A 
ATOM     12  C   UNL     1       3.191   7.144  18.036  0.00  0.00    +0.000 A 
ATOM     13  C   UNL     1       2.642   8.346  17.574  0.00  0.00    +0.000 A 
ATOM     14  C   UNL     1       1.761   9.039  18.379  0.00  0.00    +0.000 A 
ATOM     15  C   UNL     1       1.354   8.503  19.596  0.00  0.00    +0.000 A 
ATOM     16  C   UNL     1       1.913   7.297  20.057  0.00  0.00    +0.000 A 
BRANCH  14  17
ATOM     17  O   UNL     1       1.308  10.273  18.013  0.00  0.00    +0.000 OA
ATOM     18  H   UNL     1       1.112  10.252  17.057  0.00  0.00    +0.000 HD
ENDBRANCH  14  17
ENDBRANCH   8  11
BRANCH   5  19
ATOM     19  C   UNL     1       4.836   3.421  16.256  0.00  0.00    +0.000 C 
BRANCH  19  20
ATOM     20  O   UNL     1       6.236   3.629  16.161  0.00  0.00    +0.000 OA
ATOM     21  H   UNL     1       6.440   3.862  15.235  0.00  0.00    +0.000 HD
ENDBRANCH  19  20
ENDBRANCH   5  19
TORSDOF 4
ENDMDL
MODEL 9
REMARK VINA RESULT:      -6.7      2.087      4.755
REMARK  Name = 
REMARK  5 active torsions:
REMARK  status: ('A' for Active; 'I' for Inactive)
REMARK    1  A    between atoms: C_1  and  C_2
REMARK    2  A    between atoms: C_5  and  C_6
REMARK    3  A    between atoms: C_6  and  O_7
REMARK    4  A    between atoms: C_10  and  C_11
REMARK    5  A    between atoms: C_14  and  O_15
REMARK                            x       y       z     vdW  Elec       q    Type
REMARK                         _______ _______ _______ _____ _____    ______ ____
ROOT
ATOM      1  C   UNL     1       5.285   6.012  15.960  0.00  0.00    +0.000 C 
ATOM      2  C   UNL     1       4.824   5.337  17.213  0.00  0.00    +0.000 C 
ATOM      3  C   UNL     1       5.289   5.496  18.469  0.00  0.00    +0.000 C 
ATOM      4  C   UNL     1       4.727   4.656  19.635  0.00  0.00    +0.000 C 
ATOM      5  C   UNL     1       3.918   3.308  19.287  0.00  0.00    +0.000 C 
ATOM      6  C   UNL     1       2.377   3.156  19.239  0.00  0.00    +0.000 C 
ATOM      7  O   UNL     1       1.623   3.932  18.312  0.00  0.00    +0.000 OA
ATOM      8  C   UNL     1       2.358   4.986  17.699  0.00  0.00    +0.000 C 
ATOM      9  C   UNL     1       3.705   4.362  17.097  0.00  0.00    +0.000 C 
ATOM     10  C   UNL     1       4.232   3.066  17.820  0.00  0.00    +0.000 C 
ENDROOT
BRANCH   8  11
ATOM     11  C   UNL     1       2.222   6.245  18.610  0.00  0.00    +0.000 A 
ATOM     12  C   UNL     1       1.878   6.130  19.983  0.00  0.00    +0.000 A 
ATOM     13  C   UNL     1       1.548   7.237  20.774  0.00  0.00    +0.000 A 
ATOM     14  C   UNL     1       1.546   8.495  20.206  0.00  0.00    +0.000 A 
ATOM     15  C   UNL     1       1.956   8.669  18.889  0.00  0.00    +0.000 A 
ATOM     16  C   UNL     1       2.282   7.552  18.099  0.00  0.00    +0.000 A 
BRANCH  14  17
ATOM     17  O   UNL     1       1.107   9.577  20.912  0.00  0.00    +0.000 OA
ATOM     18  H   UNL     1       1.814   9.840  21.532  0.00  0.00    +0.000 HD
ENDBRANCH  14  17
ENDBRANCH   8  11
BRANCH   5  19
ATOM     19  C   UNL     1       4.364   2.312  20.399  0.00  0.00    +0.000 C 
BRANCH  19  20
ATOM     20  O   UNL     1       5.259   1.304  19.957  0.00  0.00    +0.000 OA
ATOM     21  H   UNL     1       6.164   1.592  20.178  0.00  0.00    +0.000 HD
ENDBRANCH  19  20
ENDBRANCH   5  19
TORSDOF 4
ENDMDL
