MODEL 1
REMARK VINA RESULT:      -7.8      0.000      0.000
REMARK  Name = 
REMARK  11 active torsions:
REMARK  status: ('A' for Active; 'I' for Inactive)
REMARK    1  A    between atoms: C_1  and  C_2
REMARK    2  A    between atoms: C_5  and  N_6
REMARK    3  A    between atoms: N_6  and  C_7
REMARK    4  A    between atoms: C_7  and  C_8
REMARK    5  A    between atoms: C_11  and  S_12
REMARK    6  A    between atoms: S_12  and  C_13
REMARK    7  A    between atoms: C_13  and  C_14
REMARK    8  A    between atoms: C_14  and  N_15
REMARK    9  A    between atoms: N_21  and  C_22
REMARK   10  A    between atoms: C_22  and  C_23
REMARK   11  A    between atoms: C_28  and  C_29
REMARK                            x       y       z     vdW  Elec       q    Type
REMARK                         _______ _______ _______ _____ _____    ______ ____
ROOT
ATOM      1  C   UNL     1       5.693   6.095  17.617  0.00  0.00    +0.000 A 
ATOM      2  N   UNL     1       5.114   7.144  17.042  0.00  0.00    +0.000 NA
ATOM      3  N   UNL     1       3.840   7.290  17.560  0.00  0.00    +0.000 NA
ATOM      4  C   UNL     1       3.648   6.329  18.431  0.00  0.00    +0.000 A 
ATOM      5  N   UNL     1       4.816   5.597  18.577  0.00  0.00    +0.000 N 
ENDROOT
BRANCH   1   6
ATOM      6  C   UNL     1       7.038   5.474  17.160  0.00  0.00    +0.000 C 
BRANCH   6   7
ATOM      7  N   UNL     1       7.253   5.714  15.724  0.00  0.00    +0.000 N 
ATOM      8  H   UNL     1       8.239   5.979  15.660  0.00  0.00    +0.000 HD
BRANCH   7  13
ATOM      9  C   UNL     1       5.444   2.418  11.336  0.00  0.00    +0.000 C 
ATOM     10  C   UNL     1       5.941   3.329  12.421  0.00  0.00    +0.000 A 
ATOM     11  C   UNL     1       5.382   3.283  13.688  0.00  0.00    +0.000 A 
ATOM     12  C   UNL     1       5.866   4.133  14.696  0.00  0.00    +0.000 A 
ATOM     13  C   UNL     1       6.916   5.072  14.534  0.00  0.00    +0.000 A 
ATOM     14  C   UNL     1       7.525   5.064  13.261  0.00  0.00    +0.000 A 
ATOM     15  C   UNL     1       8.723   5.863  12.826  0.00  0.00    +0.000 C 
ATOM     16  C   UNL     1       6.999   4.221  12.220  0.00  0.00    +0.000 A 
ENDBRANCH   7  13
ENDBRANCH   6   7
ENDBRANCH   1   6
BRANCH   4  17
ATOM     17  S   UNL     1       2.183   5.929  19.272  0.00  0.00    +0.000 S 
BRANCH  17  18
ATOM     18  C   UNL     1       1.981   7.201  20.550  0.00  0.00    +0.000 C 
BRANCH  18  19
ATOM     19  C   UNL     1       1.456   8.530  19.984  0.00  0.00    +0.000 C 
BRANCH  19  20
ATOM     20  N   UNL     1       1.012   9.481  21.032  0.00  0.00    +0.000 NA
ATOM     21  C   UNL     1       0.259  10.608  20.459  0.00  0.00    +0.000 C 
ATOM     22  C   UNL     1      -0.143  11.610  21.540  0.00  0.00    +0.000 C 
ATOM     23  C   UNL     1      -0.962  10.944  22.636  0.00  0.00    +0.000 C 
ATOM     24  C   UNL     1      -0.235   9.714  23.169  0.00  0.00    +0.000 C 
ATOM     25  C   UNL     1       0.191   8.777  22.035  0.00  0.00    +0.000 C 
ENDBRANCH  19  20
ENDBRANCH  18  19
ENDBRANCH  17  18
ENDBRANCH   4  17
BRANCH   5  26
ATOM     26  C   UNL     1       4.988   4.413  19.392  0.00  0.00    +0.000 C 
BRANCH  26  27
ATOM     27  C   UNL     1       4.452   3.082  18.832  0.00  0.00    +0.000 C 
ATOM     28  C   UNL     1       3.840   3.052  17.440  0.00  0.00    +0.000 C 
ATOM     29  C   UNL     1       2.461   2.467  17.598  0.00  0.00    +0.000 C 
ATOM     30  C   UNL     1       2.313   2.161  19.068  0.00  0.00    +0.000 C 
ATOM     31  O   UNL     1       3.526   2.489  19.747  0.00  0.00    +0.000 OA
ENDBRANCH  26  27
ENDBRANCH   5  26
TORSDOF 9
ENDMDL
MODEL 2
REMARK VINA RESULT:      -7.4      1.376      8.835
REMARK  Name = 
REMARK  11 active torsions:
REMARK  status: ('A' for Active; 'I' for Inactive)
REMARK    1  A    between atoms: C_1  and  C_2
REMARK    2  A    between atoms: C_5  and  N_6
REMARK    3  A    between atoms: N_6  and  C_7
REMARK    4  A    between atoms: C_7  and  C_8
REMARK    5  A    between atoms: C_11  and  S_12
REMARK    6  A    between atoms: S_12  and  C_13
REMARK    7  A    between atoms: C_13  and  C_14
REMARK    8  A    between atoms: C_14  and  N_15
REMARK    9  A    between atoms: N_21  and  C_22
REMARK   10  A    between atoms: C_22  and  C_23
REMARK   11  A    between atoms: C_28  and  C_29
REMARK                            x       y       z     vdW  Elec       q    Type
REMARK                         _______ _______ _______ _____ _____    ______ ____
ROOT
ATOM      1  C   UNL     1       3.431   6.301  18.624  0.00  0.00    +0.000 A 
ATOM      2  N   UNL     1       3.737   7.232  17.726  0.00  0.00    +0.000 NA
ATOM      3  N   UNL     1       5.053   7.057  17.334  0.00  0.00    +0.000 NA
ATOM      4  C   UNL     1       5.538   6.037  18.001  0.00  0.00    +0.000 A 
ATOM      5  N   UNL     1       4.533   5.462  18.762  0.00  0.00    +0.000 N 
ENDROOT
BRANCH   1   6
ATOM      6  C   UNL     1       2.124   6.284  19.459  0.00  0.00    +0.000 C 
BRANCH   6   7
ATOM      7  N   UNL     1       2.135   7.368  20.452  0.00  0.00    +0.000 N 
ATOM      8  H   UNL     1       3.118   7.645  20.510  0.00  0.00    +0.000 HD
BRANCH   7  13
ATOM      9  C   UNL     1      -1.348  11.598  22.291  0.00  0.00    +0.000 C 
ATOM     10  C   UNL     1      -0.416  10.550  21.754  0.00  0.00    +0.000 A 
ATOM     11  C   UNL     1       0.047   9.534  22.576  0.00  0.00    +0.000 A 
ATOM     12  C   UNL     1       0.908   8.554  22.056  0.00  0.00    +0.000 A 
ATOM     13  C   UNL     1       1.367   8.501  20.715  0.00  0.00    +0.000 A 
ATOM     14  C   UNL     1       0.836   9.499  19.870  0.00  0.00    +0.000 A 
ATOM     15  C   UNL     1       1.051   9.636  18.386  0.00  0.00    +0.000 C 
ATOM     16  C   UNL     1      -0.012  10.525  20.416  0.00  0.00    +0.000 A 
ENDBRANCH   7  13
ENDBRANCH   6   7
ENDBRANCH   1   6
BRANCH   4  17
ATOM     17  S   UNL     1       7.176   5.465  18.027  0.00  0.00    +0.000 S 
BRANCH  17  18
ATOM     18  C   UNL     1       7.340   4.362  16.596  0.00  0.00    +0.000 C 
BRANCH  18  19
ATOM     19  C   UNL     1       7.111   5.087  15.261  0.00  0.00    +0.000 C 
BRANCH  19  20
ATOM     20  N   UNL     1       6.681   4.183  14.167  0.00  0.00    +0.000 NA
ATOM     21  C   UNL     1       5.223   4.224  13.969  0.00  0.00    +0.000 C 
ATOM     22  C   UNL     1       4.785   3.246  12.880  0.00  0.00    +0.000 C 
ATOM     23  C   UNL     1       5.494   3.530  11.564  0.00  0.00    +0.000 C 
ATOM     24  C   UNL     1       7.003   3.588  11.776  0.00  0.00    +0.000 C 
ATOM     25  C   UNL     1       7.374   4.541  12.915  0.00  0.00    +0.000 C 
ENDBRANCH  19  20
ENDBRANCH  18  19
ENDBRANCH  17  18
ENDBRANCH   4  17
BRANCH   5  26
ATOM     26  C   UNL     1       4.685   4.361  19.688  0.00  0.00    +0.000 C 
BRANCH  26  27
ATOM     27  C   UNL     1       4.140   2.987  19.253  0.00  0.00    +0.000 C 
ATOM     28  C   UNL     1       3.823   2.743  17.785  0.00  0.00    +0.000 C 
ATOM     29  C   UNL     1       2.388   2.287  17.733  0.00  0.00    +0.000 C 
ATOM     30  C   UNL     1       1.915   2.266  19.167  0.00  0.00    +0.000 C 
ATOM     31  O   UNL     1       2.992   2.633  20.029  0.00  0.00    +0.000 OA
ENDBRANCH  26  27
ENDBRANCH   5  26
TORSDOF 9
ENDMDL
MODEL 3
REMARK VINA RESULT:      -7.2      4.177      7.233
REMARK  Name = 
REMARK  11 active torsions:
REMARK  status: ('A' for Active; 'I' for Inactive)
REMARK    1  A    between atoms: C_1  and  C_2
REMARK    2  A    between atoms: C_5  and  N_6
REMARK    3  A    between atoms: N_6  and  C_7
REMARK    4  A    between atoms: C_7  and  C_8
REMARK    5  A    between atoms: C_11  and  S_12
REMARK    6  A    between atoms: S_12  and  C_13
REMARK    7  A    between atoms: C_13  and  C_14
REMARK    8  A    between atoms: C_14  and  N_15
REMARK    9  A    between atoms: N_21  and  C_22
REMARK   10  A    between atoms: C_22  and  C_23
REMARK   11  A    between atoms: C_28  and  C_29
REMARK                            x       y       z     vdW  Elec       q    Type
REMARK                         _______ _______ _______ _____ _____    ______ ____
ROOT
ATOM      1  C   UNL     1       7.247   6.972  17.413  0.00  0.00    +0.000 A 
ATOM      2  N   UNL     1       7.797   6.655  16.245  0.00  0.00    +0.000 NA
ATOM      3  N   UNL     1       7.009   5.701  15.626  0.00  0.00    +0.000 NA
ATOM      4  C   UNL     1       6.000   5.436  16.421  0.00  0.00    +0.000 A 
ATOM      5  N   UNL     1       6.047   6.275  17.523  0.00  0.00    +0.000 N 
ENDROOT
BRANCH   1   6
ATOM      6  C   UNL     1       7.931   7.845  18.497  0.00  0.00    +0.000 C 
BRANCH   6   7
ATOM      7  N   UNL     1       8.265   9.170  17.954  0.00  0.00    +0.000 N 
ATOM      8  H   UNL     1       7.458   9.414  17.375  0.00  0.00    +0.000 HD
BRANCH   7  13
ATOM      9  C   UNL     1      10.556  13.633  20.824  0.00  0.00    +0.000 C 
ATOM     10  C   UNL     1       9.963  12.519  20.010  0.00  0.00    +0.000 A 
ATOM     11  C   UNL     1      10.110  11.200  20.410  0.00  0.00    +0.000 A 
ATOM     12  C   UNL     1       9.539  10.171  19.645  0.00  0.00    +0.000 A 
ATOM     13  C   UNL     1       8.794  10.359  18.453  0.00  0.00    +0.000 A 
ATOM     14  C   UNL     1       8.590  11.709  18.091  0.00  0.00    +0.000 A 
ATOM     15  C   UNL     1       7.756  12.223  16.949  0.00  0.00    +0.000 C 
ATOM     16  C   UNL     1       9.211  12.758  18.855  0.00  0.00    +0.000 A 
ENDBRANCH   7  13
ENDBRANCH   6   7
ENDBRANCH   1   6
BRANCH   4  17
ATOM     17  S   UNL     1       4.786   4.211  16.229  0.00  0.00    +0.000 S 
BRANCH  17  18
ATOM     18  C   UNL     1       4.839   3.216  17.745  0.00  0.00    +0.000 C 
BRANCH  18  19
ATOM     19  C   UNL     1       3.755   2.127  17.777  0.00  0.00    +0.000 C 
BRANCH  19  20
ATOM     20  N   UNL     1       2.866   2.217  18.960  0.00  0.00    +0.000 NA
ATOM     21  C   UNL     1       3.540   2.863  20.098  0.00  0.00    +0.000 C 
ATOM     22  C   UNL     1       2.634   2.898  21.329  0.00  0.00    +0.000 C 
ATOM     23  C   UNL     1       1.323   3.610  21.031  0.00  0.00    +0.000 C 
ATOM     24  C   UNL     1       0.664   3.013  19.793  0.00  0.00    +0.000 C 
ATOM     25  C   UNL     1       1.637   2.954  18.611  0.00  0.00    +0.000 C 
ENDBRANCH  19  20
ENDBRANCH  18  19
ENDBRANCH  17  18
ENDBRANCH   4  17
BRANCH   5  26
ATOM     26  C   UNL     1       5.152   6.246  18.659  0.00  0.00    +0.000 C 
BRANCH  26  27
ATOM     27  C   UNL     1       3.649   6.443  18.384  0.00  0.00    +0.000 C 
ATOM     28  C   UNL     1       3.191   7.653  17.584  0.00  0.00    +0.000 C 
ATOM     29  C   UNL     1       2.176   8.365  18.440  0.00  0.00    +0.000 C 
ATOM     30  C   UNL     1       2.060   7.546  19.703  0.00  0.00    +0.000 C 
ATOM     31  O   UNL     1       2.904   6.398  19.604  0.00  0.00    +0.000 OA
ENDBRANCH  26  27
ENDBRANCH   5  26
TORSDOF 9
ENDMDL
MODEL 4
REMARK VINA RESULT:      -7.2      4.673      8.116
REMARK  Name = 
REMARK  11 active torsions:
REMARK  status: ('A' for Active; 'I' for Inactive)
REMARK    1  A    between atoms: C_1  and  C_2
REMARK    2  A    between atoms: C_5  and  N_6
REMARK    3  A    between atoms: N_6  and  C_7
REMARK    4  A    between atoms: C_7  and  C_8
REMARK    5  A    between atoms: C_11  and  S_12
REMARK    6  A    between atoms: S_12  and  C_13
REMARK    7  A    between atoms: C_13  and  C_14
REMARK    8  A    between atoms: C_14  and  N_15
REMARK    9  A    between atoms: N_21  and  C_22
REMARK   10  A    between atoms: C_22  and  C_23
REMARK   11  A    between atoms: C_28  and  C_29
REMARK                            x       y       z     vdW  Elec       q    Type
REMARK                         _______ _______ _______ _____ _____    ______ ____
ROOT
ATOM      1  C   UNL     1       0.648   9.850  20.969  0.00  0.00    +0.000 A 
ATOM      2  N   UNL     1       1.074  10.659  21.933  0.00  0.00    +0.000 NA
ATOM      3  N   UNL     1       1.114  11.953  21.444  0.00  0.00    +0.000 NA
ATOM      4  C   UNL     1       0.728  11.920  20.191  0.00  0.00    +0.000 A 
ATOM      5  N   UNL     1       0.333  10.633  19.862  0.00  0.00    +0.000 N 
ENDROOT
BRANCH   1   6
ATOM      6  C   UNL     1       0.666   8.302  21.052  0.00  0.00    +0.000 C 
BRANCH   6   7
ATOM      7  N   UNL     1       1.837   7.762  20.345  0.00  0.00    +0.000 N 
ATOM      8  H   UNL     1       2.635   8.102  20.887  0.00  0.00    +0.000 HD
BRANCH   7  13
ATOM      9  C   UNL     1       3.243   2.345  18.904  0.00  0.00    +0.000 C 
ATOM     10  C   UNL     1       2.882   3.773  19.199  0.00  0.00    +0.000 A 
ATOM     11  C   UNL     1       2.158   4.094  20.336  0.00  0.00    +0.000 A 
ATOM     12  C   UNL     1       1.839   5.435  20.604  0.00  0.00    +0.000 A 
ATOM     13  C   UNL     1       2.203   6.537  19.790  0.00  0.00    +0.000 A 
ATOM     14  C   UNL     1       2.998   6.208  18.671  0.00  0.00    +0.000 A 
ATOM     15  C   UNL     1       3.622   7.165  17.691  0.00  0.00    +0.000 C 
ATOM     16  C   UNL     1       3.288   4.829  18.378  0.00  0.00    +0.000 A 
ENDBRANCH   7  13
ENDBRANCH   6   7
ENDBRANCH   1   6
BRANCH   4  17
ATOM     17  S   UNL     1       0.731  13.221  19.041  0.00  0.00    +0.000 S 
BRANCH  17  18
ATOM     18  C   UNL     1      -0.637  14.311  19.520  0.00  0.00    +0.000 C 
BRANCH  18  19
ATOM     19  C   UNL     1      -0.199  15.776  19.677  0.00  0.00    +0.000 C 
BRANCH  19  20
ATOM     20  N   UNL     1       0.167  16.422  18.394  0.00  0.00    +0.000 NA
ATOM     21  C   UNL     1      -0.727  17.547  18.077  0.00  0.00    +0.000 C 
ATOM     22  C   UNL     1      -0.376  18.168  16.726  0.00  0.00    +0.000 C 
ATOM     23  C   UNL     1       1.073  18.631  16.688  0.00  0.00    +0.000 C 
ATOM     24  C   UNL     1       2.002  17.499  17.111  0.00  0.00    +0.000 C 
ATOM     25  C   UNL     1       1.568  16.882  18.443  0.00  0.00    +0.000 C 
ENDBRANCH  19  20
ENDBRANCH  18  19
ENDBRANCH  17  18
ENDBRANCH   4  17
BRANCH   5  26
ATOM     26  C   UNL     1      -0.090  10.175  18.556  0.00  0.00    +0.000 C 
BRANCH  26  27
ATOM     27  C   UNL     1      -1.604  10.016  18.316  0.00  0.00    +0.000 C 
ATOM     28  C   UNL     1      -2.113   9.785  16.901  0.00  0.00    +0.000 C 
ATOM     29  C   UNL     1      -3.130  10.864  16.637  0.00  0.00    +0.000 C 
ATOM     30  C   UNL     1      -3.195  11.682  17.904  0.00  0.00    +0.000 C 
ATOM     31  O   UNL     1      -2.321  11.116  18.881  0.00  0.00    +0.000 OA
ENDBRANCH  26  27
ENDBRANCH   5  26
TORSDOF 9
ENDMDL
MODEL 5
REMARK VINA RESULT:      -7.2      1.948      9.206
REMARK  Name = 
REMARK  11 active torsions:
REMARK  status: ('A' for Active; 'I' for Inactive)
REMARK    1  A    between atoms: C_1  and  C_2
REMARK    2  A    between atoms: C_5  and  N_6
REMARK    3  A    between atoms: N_6  and  C_7
REMARK    4  A    between atoms: C_7  and  C_8
REMARK    5  A    between atoms: C_11  and  S_12
REMARK    6  A    between atoms: S_12  and  C_13
REMARK    7  A    between atoms: C_13  and  C_14
REMARK    8  A    between atoms: C_14  and  N_15
REMARK    9  A    between atoms: N_21  and  C_22
REMARK   10  A    between atoms: C_22  and  C_23
REMARK   11  A    between atoms: C_28  and  C_29
REMARK                            x       y       z     vdW  Elec       q    Type
REMARK                         _______ _______ _______ _____ _____    ______ ____
ROOT
ATOM      1  C   UNL     1       2.555   7.464  18.799  0.00  0.00    +0.000 A 
ATOM      2  N   UNL     1       3.181   7.982  17.748  0.00  0.00    +0.000 NA
ATOM      3  N   UNL     1       4.238   7.157  17.407  0.00  0.00    +0.000 NA
ATOM      4  C   UNL     1       4.255   6.156  18.254  0.00  0.00    +0.000 A 
ATOM      5  N   UNL     1       3.160   6.247  19.099  0.00  0.00    +0.000 N 
ENDROOT
BRANCH   1   6
ATOM      6  C   UNL     1       1.453   8.192  19.611  0.00  0.00    +0.000 C 
BRANCH   6   7
ATOM      7  N   UNL     1       0.948   9.355  18.865  0.00  0.00    +0.000 N 
ATOM      8  H   UNL     1       0.825   9.006  17.911  0.00  0.00    +0.000 HD
BRANCH   7  13
ATOM      9  C   UNL     1      -2.728  13.460  20.607  0.00  0.00    +0.000 C 
ATOM     10  C   UNL     1      -1.799  12.406  20.077  0.00  0.00    +0.000 A 
ATOM     11  C   UNL     1      -0.643  12.076  20.768  0.00  0.00    +0.000 A 
ATOM     12  C   UNL     1       0.209  11.079  20.266  0.00  0.00    +0.000 A 
ATOM     13  C   UNL     1      -0.009  10.346  19.071  0.00  0.00    +0.000 A 
ATOM     14  C   UNL     1      -1.222  10.640  18.412  0.00  0.00    +0.000 A 
ATOM     15  C   UNL     1      -1.777   9.957  17.191  0.00  0.00    +0.000 C 
ATOM     16  C   UNL     1      -2.072  11.691  18.907  0.00  0.00    +0.000 A 
ENDBRANCH   7  13
ENDBRANCH   6   7
ENDBRANCH   1   6
BRANCH   4  17
ATOM     17  S   UNL     1       5.448   4.904  18.400  0.00  0.00    +0.000 S 
BRANCH  17  18
ATOM     18  C   UNL     1       5.745   4.301  16.715  0.00  0.00    +0.000 C 
BRANCH  18  19
ATOM     19  C   UNL     1       6.655   5.236  15.903  0.00  0.00    +0.000 C 
BRANCH  19  20
ATOM     20  N   UNL     1       6.501   5.079  14.437  0.00  0.00    +0.000 NA
ATOM     21  C   UNL     1       7.794   5.187  13.741  0.00  0.00    +0.000 C 
ATOM     22  C   UNL     1       7.616   5.082  12.227  0.00  0.00    +0.000 C 
ATOM     23  C   UNL     1       6.927   3.781  11.840  0.00  0.00    +0.000 C 
ATOM     24  C   UNL     1       5.634   3.610  12.629  0.00  0.00    +0.000 C 
ATOM     25  C   UNL     1       5.867   3.782  14.133  0.00  0.00    +0.000 C 
ENDBRANCH  19  20
ENDBRANCH  18  19
ENDBRANCH  17  18
ENDBRANCH   4  17
BRANCH   5  26
ATOM     26  C   UNL     1       2.864   5.372  20.213  0.00  0.00    +0.000 C 
BRANCH  26  27
ATOM     27  C   UNL     1       1.621   4.470  20.096  0.00  0.00    +0.000 C 
ATOM     28  C   UNL     1       1.548   3.192  20.920  0.00  0.00    +0.000 C 
ATOM     29  C   UNL     1       1.301   2.073  19.942  0.00  0.00    +0.000 C 
ATOM     30  C   UNL     1       1.223   2.728  18.584  0.00  0.00    +0.000 C 
ATOM     31  O   UNL     1       1.364   4.141  18.728  0.00  0.00    +0.000 OA
ENDBRANCH  26  27
ENDBRANCH   5  26
TORSDOF 9
ENDMDL
MODEL 6
REMARK VINA RESULT:      -7.1      3.566      6.805
REMARK  Name = 
REMARK  11 active torsions:
REMARK  status: ('A' for Active; 'I' for Inactive)
REMARK    1  A    between atoms: C_1  and  C_2
REMARK    2  A    between atoms: C_5  and  N_6
REMARK    3  A    between atoms: N_6  and  C_7
REMARK    4  A    between atoms: C_7  and  C_8
REMARK    5  A    between atoms: C_11  and  S_12
REMARK    6  A    between atoms: S_12  and  C_13
REMARK    7  A    between atoms: C_13  and  C_14
REMARK    8  A    between atoms: C_14  and  N_15
REMARK    9  A    between atoms: N_21  and  C_22
REMARK   10  A    between atoms: C_22  and  C_23
REMARK   11  A    between atoms: C_28  and  C_29
REMARK                            x       y       z     vdW  Elec       q    Type
REMARK                         _______ _______ _______ _____ _____    ______ ____
ROOT
ATOM      1  C   UNL     1       1.229   9.039  19.573  0.00  0.00    +0.000 A 
ATOM      2  N   UNL     1       1.185   8.392  20.733  0.00  0.00    +0.000 NA
ATOM      3  N   UNL     1       0.632   9.226  21.689  0.00  0.00    +0.000 NA
ATOM      4  C   UNL     1       0.358  10.371  21.112  0.00  0.00    +0.000 A 
ATOM      5  N   UNL     1       0.628  10.282  19.755  0.00  0.00    +0.000 N 
ENDROOT
BRANCH   1   6
ATOM      6  C   UNL     1       1.969   8.528  18.310  0.00  0.00    +0.000 C 
BRANCH   6   7
ATOM      7  N   UNL     1       2.835   7.388  18.648  0.00  0.00    +0.000 N 
ATOM      8  H   UNL     1       2.372   6.950  19.448  0.00  0.00    +0.000 HD
BRANCH   7  13
ATOM      9  C   UNL     1       5.960   3.906  15.256  0.00  0.00    +0.000 C 
ATOM     10  C   UNL     1       5.124   4.745  16.180  0.00  0.00    +0.000 A 
ATOM     11  C   UNL     1       5.426   6.082  16.382  0.00  0.00    +0.000 A 
ATOM     12  C   UNL     1       4.628   6.855  17.239  0.00  0.00    +0.000 A 
ATOM     13  C   UNL     1       3.494   6.380  17.946  0.00  0.00    +0.000 A 
ATOM     14  C   UNL     1       3.153   5.036  17.680  0.00  0.00    +0.000 A 
ATOM     15  C   UNL     1       1.951   4.290  18.192  0.00  0.00    +0.000 C 
ATOM     16  C   UNL     1       3.998   4.236  16.834  0.00  0.00    +0.000 A 
ENDBRANCH   7  13
ENDBRANCH   6   7
ENDBRANCH   1   6
BRANCH   4  17
ATOM     17  S   UNL     1      -0.204  11.833  21.860  0.00  0.00    +0.000 S 
BRANCH  17  18
ATOM     18  C   UNL     1      -1.530  11.334  22.992  0.00  0.00    +0.000 C 
BRANCH  18  19
ATOM     19  C   UNL     1      -2.420  12.513  23.417  0.00  0.00    +0.000 C 
BRANCH  19  20
ATOM     20  N   UNL     1      -3.852  12.318  23.087  0.00  0.00    +0.000 NA
ATOM     21  C   UNL     1      -4.727  13.072  24.000  0.00  0.00    +0.000 C 
ATOM     22  C   UNL     1      -6.201  12.817  23.687  0.00  0.00    +0.000 C 
ATOM     23  C   UNL     1      -6.530  13.171  22.244  0.00  0.00    +0.000 C 
ATOM     24  C   UNL     1      -5.565  12.472  21.293  0.00  0.00    +0.000 C 
ATOM     25  C   UNL     1      -4.107  12.719  21.690  0.00  0.00    +0.000 C 
ENDBRANCH  19  20
ENDBRANCH  18  19
ENDBRANCH  17  18
ENDBRANCH   4  17
BRANCH   5  26
ATOM     26  C   UNL     1       0.523  11.354  18.789  0.00  0.00    +0.000 C 
BRANCH  26  27
ATOM     27  C   UNL     1      -0.733  11.386  17.898  0.00  0.00    +0.000 C 
ATOM     28  C   UNL     1      -1.955  12.167  18.361  0.00  0.00    +0.000 C 
ATOM     29  C   UNL     1      -3.107  11.196  18.344  0.00  0.00    +0.000 C 
ATOM     30  C   UNL     1      -2.531   9.887  17.862  0.00  0.00    +0.000 C 
ATOM     31  O   UNL     1      -1.145  10.059  17.562  0.00  0.00    +0.000 OA
ENDBRANCH  26  27
ENDBRANCH   5  26
TORSDOF 9
ENDMDL
MODEL 7
REMARK VINA RESULT:      -7.1      1.446      9.394
REMARK  Name = 
REMARK  11 active torsions:
REMARK  status: ('A' for Active; 'I' for Inactive)
REMARK    1  A    between atoms: C_1  and  C_2
REMARK    2  A    between atoms: C_5  and  N_6
REMARK    3  A    between atoms: N_6  and  C_7
REMARK    4  A    between atoms: C_7  and  C_8
REMARK    5  A    between atoms: C_11  and  S_12
REMARK    6  A    between atoms: S_12  and  C_13
REMARK    7  A    between atoms: C_13  and  C_14
REMARK    8  A    between atoms: C_14  and  N_15
REMARK    9  A    between atoms: N_21  and  C_22
REMARK   10  A    between atoms: C_22  and  C_23
REMARK   11  A    between atoms: C_28  and  C_29
REMARK                            x       y       z     vdW  Elec       q    Type
REMARK                         _______ _______ _______ _____ _____    ______ ____
ROOT
ATOM      1  C   UNL     1       2.422   6.888  19.525  0.00  0.00    +0.000 A 
ATOM      2  N   UNL     1       2.288   7.658  18.451  0.00  0.00    +0.000 NA
ATOM      3  N   UNL     1       3.038   7.121  17.420  0.00  0.00    +0.000 NA
ATOM      4  C   UNL     1       3.629   6.042  17.874  0.00  0.00    +0.000 A 
ATOM      5  N   UNL     1       3.206   5.793  19.170  0.00  0.00    +0.000 N 
ENDROOT
BRANCH   1   6
ATOM      6  C   UNL     1       1.912   7.260  20.941  0.00  0.00    +0.000 C 
BRANCH   6   7
ATOM      7  N   UNL     1       0.605   7.931  20.857  0.00  0.00    +0.000 N 
ATOM      8  H   UNL     1      -0.061   7.221  21.171  0.00  0.00    +0.000 HD
BRANCH   7  13
ATOM      9  C   UNL     1      -1.827  12.664  23.110  0.00  0.00    +0.000 C 
ATOM     10  C   UNL     1      -1.167  11.481  22.463  0.00  0.00    +0.000 A 
ATOM     11  C   UNL     1      -0.789  10.384  23.222  0.00  0.00    +0.000 A 
ATOM     12  C   UNL     1      -0.185   9.280  22.600  0.00  0.00    +0.000 A 
ATOM     13  C   UNL     1       0.087   9.175  21.212  0.00  0.00    +0.000 A 
ATOM     14  C   UNL     1      -0.363  10.266  20.437  0.00  0.00    +0.000 A 
ATOM     15  C   UNL     1      -0.316  10.392  18.939  0.00  0.00    +0.000 C 
ATOM     16  C   UNL     1      -0.945  11.412  21.084  0.00  0.00    +0.000 A 
ENDBRANCH   7  13
ENDBRANCH   6   7
ENDBRANCH   1   6
BRANCH   4  17
ATOM     17  S   UNL     1       4.810   5.055  17.070  0.00  0.00    +0.000 S 
BRANCH  17  18
ATOM     18  C   UNL     1       6.107   6.191  16.507  0.00  0.00    +0.000 C 
BRANCH  18  19
ATOM     19  C   UNL     1       7.200   5.484  15.691  0.00  0.00    +0.000 C 
BRANCH  19  20
ATOM     20  N   UNL     1       6.791   5.180  14.298  0.00  0.00    +0.000 NA
ATOM     21  C   UNL     1       7.911   5.339  13.357  0.00  0.00    +0.000 C 
ATOM     22  C   UNL     1       7.464   5.080  11.918  0.00  0.00    +0.000 C 
ATOM     23  C   UNL     1       6.854   3.694  11.769  0.00  0.00    +0.000 C 
ATOM     24  C   UNL     1       5.758   3.482  12.807  0.00  0.00    +0.000 C 
ATOM     25  C   UNL     1       6.250   3.810  14.220  0.00  0.00    +0.000 C 
ENDBRANCH  19  20
ENDBRANCH  18  19
ENDBRANCH  17  18
ENDBRANCH   4  17
BRANCH   5  26
ATOM     26  C   UNL     1       3.681   4.737  20.038  0.00  0.00    +0.000 C 
BRANCH  26  27
ATOM     27  C   UNL     1       2.821   3.463  20.143  0.00  0.00    +0.000 C 
ATOM     28  C   UNL     1       2.457   2.705  18.875  0.00  0.00    +0.000 C 
ATOM     29  C   UNL     1       0.954   2.595  18.866  0.00  0.00    +0.000 C 
ATOM     30  C   UNL     1       0.487   3.278  20.129  0.00  0.00    +0.000 C 
ATOM     31  O   UNL     1       1.620   3.726  20.874  0.00  0.00    +0.000 OA
ENDBRANCH  26  27
ENDBRANCH   5  26
TORSDOF 9
ENDMDL
MODEL 8
REMARK VINA RESULT:      -7.0      4.646      7.985
REMARK  Name = 
REMARK  11 active torsions:
REMARK  status: ('A' for Active; 'I' for Inactive)
REMARK    1  A    between atoms: C_1  and  C_2
REMARK    2  A    between atoms: C_5  and  N_6
REMARK    3  A    between atoms: N_6  and  C_7
REMARK    4  A    between atoms: C_7  and  C_8
REMARK    5  A    between atoms: C_11  and  S_12
REMARK    6  A    between atoms: S_12  and  C_13
REMARK    7  A    between atoms: C_13  and  C_14
REMARK    8  A    between atoms: C_14  and  N_15
REMARK    9  A    between atoms: N_21  and  C_22
REMARK   10  A    between atoms: C_22  and  C_23
REMARK   11  A    between atoms: C_28  and  C_29
REMARK                            x       y       z     vdW  Elec       q    Type
REMARK                         _______ _______ _______ _____ _____    ______ ____
ROOT
ATOM      1  C   UNL     1       0.640   9.372  21.321  0.00  0.00    +0.000 A 
ATOM      2  N   UNL     1       0.081   8.812  22.389  0.00  0.00    +0.000 NA
ATOM      3  N   UNL     1      -0.682   9.764  23.043  0.00  0.00    +0.000 NA
ATOM      4  C   UNL     1      -0.572  10.891  22.381  0.00  0.00    +0.000 A 
ATOM      5  N   UNL     1       0.177  10.682  21.233  0.00  0.00    +0.000 N 
ENDROOT
BRANCH   1   6
ATOM      6  C   UNL     1       1.731   8.700  20.448  0.00  0.00    +0.000 C 
BRANCH   6   7
ATOM      7  N   UNL     1       1.810   7.260  20.742  0.00  0.00    +0.000 N 
ATOM      8  H   UNL     1       1.085   7.109  21.447  0.00  0.00    +0.000 HD
BRANCH   7  13
ATOM      9  C   UNL     1       2.102   1.953  18.475  0.00  0.00    +0.000 C 
ATOM     10  C   UNL     1       2.033   3.362  18.988  0.00  0.00    +0.000 A 
ATOM     11  C   UNL     1       1.401   3.644  20.189  0.00  0.00    +0.000 A 
ATOM     12  C   UNL     1       1.356   4.965  20.661  0.00  0.00    +0.000 A 
ATOM     13  C   UNL     1       1.920   6.086  20.000  0.00  0.00    +0.000 A 
ATOM     14  C   UNL     1       2.622   5.780  18.814  0.00  0.00    +0.000 A 
ATOM     15  C   UNL     1       3.411   6.734  17.959  0.00  0.00    +0.000 C 
ATOM     16  C   UNL     1       2.630   4.431  18.313  0.00  0.00    +0.000 A 
ENDBRANCH   7  13
ENDBRANCH   6   7
ENDBRANCH   1   6
BRANCH   4  17
ATOM     17  S   UNL     1      -1.185  12.452  22.827  0.00  0.00    +0.000 S 
BRANCH  17  18
ATOM     18  C   UNL     1      -2.969  12.397  22.501  0.00  0.00    +0.000 C 
BRANCH  18  19
ATOM     19  C   UNL     1      -3.809  12.679  23.757  0.00  0.00    +0.000 C 
BRANCH  19  20
ATOM     20  N   UNL     1      -5.128  13.286  23.457  0.00  0.00    +0.000 NA
ATOM     21  C   UNL     1      -5.452  13.203  22.024  0.00  0.00    +0.000 C 
ATOM     22  C   UNL     1      -6.786  13.882  21.719  0.00  0.00    +0.000 C 
ATOM     23  C   UNL     1      -7.916  13.279  22.541  0.00  0.00    +0.000 C 
ATOM     24  C   UNL     1      -7.549  13.270  24.020  0.00  0.00    +0.000 C 
ATOM     25  C   UNL     1      -6.179  12.627  24.256  0.00  0.00    +0.000 C 
ENDBRANCH  19  20
ENDBRANCH  18  19
ENDBRANCH  17  18
ENDBRANCH   4  17
BRANCH   5  26
ATOM     26  C   UNL     1       0.579  11.692  20.279  0.00  0.00    +0.000 C 
BRANCH  26  27
ATOM     27  C   UNL     1      -0.236  11.804  18.977  0.00  0.00    +0.000 C 
ATOM     28  C   UNL     1      -1.599  12.481  19.008  0.00  0.00    +0.000 C 
ATOM     29  C   UNL     1      -2.576  11.487  18.436  0.00  0.00    +0.000 C 
ATOM     30  C   UNL     1      -1.758  10.270  18.077  0.00  0.00    +0.000 C 
ATOM     31  O   UNL     1      -0.382  10.521  18.363  0.00  0.00    +0.000 OA
ENDBRANCH  26  27
ENDBRANCH   5  26
TORSDOF 9
ENDMDL
MODEL 9
REMARK VINA RESULT:      -7.0      1.709      9.862
REMARK  Name = 
REMARK  11 active torsions:
REMARK  status: ('A' for Active; 'I' for Inactive)
REMARK    1  A    between atoms: C_1  and  C_2
REMARK    2  A    between atoms: C_5  and  N_6
REMARK    3  A    between atoms: N_6  and  C_7
REMARK    4  A    between atoms: C_7  and  C_8
REMARK    5  A    between atoms: C_11  and  S_12
REMARK    6  A    between atoms: S_12  and  C_13
REMARK    7  A    between atoms: C_13  and  C_14
REMARK    8  A    between atoms: C_14  and  N_15
REMARK    9  A    between atoms: N_21  and  C_22
REMARK   10  A    between atoms: C_22  and  C_23
REMARK   11  A    between atoms: C_28  and  C_29
REMARK                            x       y       z     vdW  Elec       q    Type
REMARK                         _______ _______ _______ _____ _____    ______ ____
ROOT
ATOM      1  C   UNL     1       1.910   7.857  19.633  0.00  0.00    +0.000 A 
ATOM      2  N   UNL     1       2.269   8.535  18.548  0.00  0.00    +0.000 NA
ATOM      3  N   UNL     1       3.141   7.759  17.805  0.00  0.00    +0.000 NA
ATOM      4  C   UNL     1       3.315   6.627  18.445  0.00  0.00    +0.000 A 
ATOM      5  N   UNL     1       2.492   6.594  19.559  0.00  0.00    +0.000 N 
ENDROOT
BRANCH   1   6
ATOM      6  C   UNL     1       1.113   8.458  20.820  0.00  0.00    +0.000 C 
BRANCH   6   7
ATOM      7  N   UNL     1       0.234   9.541  20.353  0.00  0.00    +0.000 N 
ATOM      8  H   UNL     1      -0.398   9.083  19.691  0.00  0.00    +0.000 HD
BRANCH   7  13
ATOM      9  C   UNL     1      -2.785  13.325  23.509  0.00  0.00    +0.000 C 
ATOM     10  C   UNL     1      -1.989  12.401  22.633  0.00  0.00    +0.000 A 
ATOM     11  C   UNL     1      -1.330  11.310  23.177  0.00  0.00    +0.000 A 
ATOM     12  C   UNL     1      -0.600  10.449  22.343  0.00  0.00    +0.000 A 
ATOM     13  C   UNL     1      -0.468  10.592  20.939  0.00  0.00    +0.000 A 
ATOM     14  C   UNL     1      -1.199  11.666  20.384  0.00  0.00    +0.000 A 
ATOM     15  C   UNL     1      -1.341  12.004  18.925  0.00  0.00    +0.000 C 
ATOM     16  C   UNL     1      -1.911  12.570  21.247  0.00  0.00    +0.000 A 
ENDBRANCH   7  13
ENDBRANCH   6   7
ENDBRANCH   1   6
BRANCH   4  17
ATOM     17  S   UNL     1       4.420   5.345  18.060  0.00  0.00    +0.000 S 
BRANCH  17  18
ATOM     18  C   UNL     1       5.112   5.757  16.434  0.00  0.00    +0.000 C 
BRANCH  18  19
ATOM     19  C   UNL     1       5.955   4.616  15.843  0.00  0.00    +0.000 C 
BRANCH  19  20
ATOM     20  N   UNL     1       6.101   4.694  14.370  0.00  0.00    +0.000 NA
ATOM     21  C   UNL     1       7.473   5.059  13.979  0.00  0.00    +0.000 C 
ATOM     22  C   UNL     1       7.597   5.194  12.462  0.00  0.00    +0.000 C 
ATOM     23  C   UNL     1       7.181   3.911  11.756  0.00  0.00    +0.000 C 
ATOM     24  C   UNL     1       5.800   3.470  12.229  0.00  0.00    +0.000 C 
ATOM     25  C   UNL     1       5.722   3.407  13.757  0.00  0.00    +0.000 C 
ENDBRANCH  19  20
ENDBRANCH  18  19
ENDBRANCH  17  18
ENDBRANCH   4  17
BRANCH   5  26
ATOM     26  C   UNL     1       2.444   5.548  20.557  0.00  0.00    +0.000 C 
BRANCH  26  27
ATOM     27  C   UNL     1       1.391   4.439  20.373  0.00  0.00    +0.000 C 
ATOM     28  C   UNL     1       1.602   3.092  21.049  0.00  0.00    +0.000 C 
ATOM     29  C   UNL     1       1.526   2.056  19.958  0.00  0.00    +0.000 C 
ATOM     30  C   UNL     1       1.261   2.822  18.685  0.00  0.00    +0.000 C 
ATOM     31  O   UNL     1       1.136   4.213  18.984  0.00  0.00    +0.000 OA
ENDBRANCH  26  27
ENDBRANCH   5  26
TORSDOF 9
ENDMDL
