MODEL 1
REMARK VINA RESULT:      -8.0      0.000      0.000
REMARK  Name = 
REMARK  9 active torsions:
REMARK  status: ('A' for Active; 'I' for Inactive)
REMARK    1  A    between atoms: C_1  and  C_2
REMARK    2  A    between atoms: C_2  and  N_3
REMARK    3  A    between atoms: C_5  and  C_6
REMARK    4  A    between atoms: C_6  and  O_8
REMARK    5  A    between atoms: C_15  and  N_16
REMARK    6  A    between atoms: N_19  and  C_20
REMARK    7  A    between atoms: C_20  and  C_21
REMARK    8  A    between atoms: C_21  and  C_24
REMARK    9  A    between atoms: N_22  and  O_23
REMARK                            x       y       z     vdW  Elec       q    Type
REMARK                         _______ _______ _______ _____ _____    ______ ____
ROOT
ATOM      1  N   UNL     1      -1.769  11.062  18.677  0.00  0.00    +0.000 N 
ATOM      2  C   UNL     1      -2.727  12.005  19.030  0.00  0.00    +0.000 A 
ATOM      3  C   UNL     1      -2.844  12.613  20.217  0.00  0.00    +0.000 A 
ATOM      4  C   UNL     1      -1.867  12.248  21.259  0.00  0.00    +0.000 A 
ATOM      5  O   UNL     1      -1.903  12.790  22.363  0.00  0.00    +0.000 OA
ATOM      6  C   UNL     1      -0.880  11.196  20.948  0.00  0.00    +0.000 A 
ATOM      7  C   UNL     1      -0.037  10.754  21.966  0.00  0.00    +0.000 A 
ATOM      8  C   UNL     1       0.816   9.690  21.723  0.00  0.00    +0.000 A 
ATOM      9  F   UNL     1       1.524   9.229  22.767  0.00  0.00    +0.000 F 
ATOM     10  C   UNL     1       0.901   9.073  20.462  0.00  0.00    +0.000 A 
ATOM     11  C   UNL     1       0.097   9.621  19.444  0.00  0.00    +0.000 A 
ATOM     12  C   UNL     1      -0.851  10.630  19.663  0.00  0.00    +0.000 A 
ENDROOT
BRANCH  10  13
ATOM     13  N   UNL     1       1.712   7.989  20.191  0.00  0.00    +0.000 N 
ATOM     14  C   UNL     1       1.888   6.862  21.122  0.00  0.00    +0.000 C 
ATOM     15  C   UNL     1       1.677   5.523  20.374  0.00  0.00    +0.000 C 
ATOM     16  N   UNL     1       2.490   5.359  19.142  0.00  0.00    +0.000 NA
ATOM     17  C   UNL     1       2.279   6.559  18.287  0.00  0.00    +0.000 C 
ATOM     18  C   UNL     1       2.535   7.918  18.976  0.00  0.00    +0.000 C 
BRANCH  16  19
ATOM     19  C   UNL     1       3.917   5.177  19.492  0.00  0.00    +0.000 C 
BRANCH  19  20
ATOM     20  C   UNL     1       4.511   3.961  18.767  0.00  0.00    +0.000 C 
ATOM     21  N   UNL     1       4.408   2.734  19.201  0.00  0.00    +0.000 NA
BRANCH  20  22
ATOM     22  C   UNL     1       5.263   4.198  17.493  0.00  0.00    +0.000 A 
ATOM     23  C   UNL     1       6.611   4.580  17.559  0.00  0.00    +0.000 A 
ATOM     24  C   UNL     1       7.322   4.852  16.387  0.00  0.00    +0.000 A 
ATOM     25  C   UNL     1       6.691   4.727  15.151  0.00  0.00    +0.000 A 
ATOM     26 CL   UNL     1       7.556   5.083  13.707  0.00  0.00    +0.000 Cl
ATOM     27  C   UNL     1       5.361   4.323  15.075  0.00  0.00    +0.000 A 
ATOM     28  C   UNL     1       4.643   4.062  16.245  0.00  0.00    +0.000 A 
ENDBRANCH  20  22
BRANCH  21  29
ATOM     29  O   UNL     1       3.681   2.652  20.391  0.00  0.00    +0.000 OA
ATOM     30  H   UNL     1       4.322   2.966  21.054  0.00  0.00    +0.000 HD
ENDBRANCH  21  29
ENDBRANCH  19  20
ENDBRANCH  16  19
ENDBRANCH  10  13
BRANCH   1  32
ATOM     31  C   UNL     1      -3.243   9.754  17.173  0.00  0.00    +0.000 C 
ATOM     32  C   UNL     1      -1.852  10.342  17.389  0.00  0.00    +0.000 C 
ENDBRANCH   1  32
BRANCH   3  33
ATOM     33  C   UNL     1      -3.943  13.570  20.453  0.00  0.00    +0.000 C 
ATOM     34  O   UNL     1      -5.113  13.226  20.583  0.00  0.00    +0.000 OA
BRANCH  33  35
ATOM     35  O   UNL     1      -3.561  14.863  20.536  0.00  0.00    +0.000 OA
ATOM     36  H   UNL     1      -2.721  15.067  20.055  0.00  0.00    +0.000 HD
ENDBRANCH  33  35
ENDBRANCH   3  33
TORSDOF 8
ENDMDL
MODEL 2
REMARK VINA RESULT:      -7.7      4.286     10.770
REMARK  Name = 
REMARK  9 active torsions:
REMARK  status: ('A' for Active; 'I' for Inactive)
REMARK    1  A    between atoms: C_1  and  C_2
REMARK    2  A    between atoms: C_2  and  N_3
REMARK    3  A    between atoms: C_5  and  C_6
REMARK    4  A    between atoms: C_6  and  O_8
REMARK    5  A    between atoms: C_15  and  N_16
REMARK    6  A    between atoms: N_19  and  C_20
REMARK    7  A    between atoms: C_20  and  C_21
REMARK    8  A    between atoms: C_21  and  C_24
REMARK    9  A    between atoms: N_22  and  O_23
REMARK                            x       y       z     vdW  Elec       q    Type
REMARK                         _______ _______ _______ _____ _____    ______ ____
ROOT
ATOM      1  N   UNL     1       2.396   5.279  19.849  0.00  0.00    +0.000 N 
ATOM      2  C   UNL     1       3.104   4.308  19.150  0.00  0.00    +0.000 A 
ATOM      3  C   UNL     1       3.838   4.500  18.047  0.00  0.00    +0.000 A 
ATOM      4  C   UNL     1       3.902   5.873  17.512  0.00  0.00    +0.000 A 
ATOM      5  O   UNL     1       4.581   6.122  16.516  0.00  0.00    +0.000 OA
ATOM      6  C   UNL     1       3.104   6.918  18.182  0.00  0.00    +0.000 A 
ATOM      7  C   UNL     1       3.058   8.188  17.609  0.00  0.00    +0.000 A 
ATOM      8  C   UNL     1       2.224   9.148  18.161  0.00  0.00    +0.000 A 
ATOM      9  F   UNL     1       2.128  10.316  17.506  0.00  0.00    +0.000 F 
ATOM     10  C   UNL     1       1.463   8.901  19.316  0.00  0.00    +0.000 A 
ATOM     11  C   UNL     1       1.620   7.633  19.909  0.00  0.00    +0.000 A 
ATOM     12  C   UNL     1       2.373   6.598  19.337  0.00  0.00    +0.000 A 
ENDROOT
BRANCH  10  13
ATOM     13  N   UNL     1       0.595   9.818  19.873  0.00  0.00    +0.000 N 
ATOM     14  C   UNL     1       0.833  10.465  21.175  0.00  0.00    +0.000 C 
ATOM     15  C   UNL     1       0.659  11.997  21.042  0.00  0.00    +0.000 C 
ATOM     16  N   UNL     1      -0.623  12.432  20.432  0.00  0.00    +0.000 NA
ATOM     17  C   UNL     1      -0.795  11.699  19.148  0.00  0.00    +0.000 C 
ATOM     18  C   UNL     1      -0.687  10.160  19.242  0.00  0.00    +0.000 C 
BRANCH  16  19
ATOM     19  C   UNL     1      -1.745  12.177  21.365  0.00  0.00    +0.000 C 
BRANCH  19  20
ATOM     20  C   UNL     1      -2.504  13.473  21.679  0.00  0.00    +0.000 C 
ATOM     21  N   UNL     1      -3.452  13.962  20.927  0.00  0.00    +0.000 NA
BRANCH  20  22
ATOM     22  C   UNL     1      -2.127  14.228  22.918  0.00  0.00    +0.000 A 
ATOM     23  C   UNL     1      -2.953  14.140  24.047  0.00  0.00    +0.000 A 
ATOM     24  C   UNL     1      -2.649  14.871  25.199  0.00  0.00    +0.000 A 
ATOM     25  C   UNL     1      -1.511  15.675  25.227  0.00  0.00    +0.000 A 
ATOM     26 CL   UNL     1      -1.145  16.594  26.634  0.00  0.00    +0.000 Cl
ATOM     27  C   UNL     1      -0.670  15.748  24.119  0.00  0.00    +0.000 A 
ATOM     28  C   UNL     1      -0.978  15.029  22.962  0.00  0.00    +0.000 A 
ENDBRANCH  20  22
BRANCH  21  29
ATOM     29  O   UNL     1      -3.709  13.162  19.811  0.00  0.00    +0.000 OA
ATOM     30  H   UNL     1      -3.780  13.816  19.092  0.00  0.00    +0.000 HD
ENDBRANCH  21  29
ENDBRANCH  19  20
ENDBRANCH  16  19
ENDBRANCH  10  13
BRANCH   1  32
ATOM     31  C   UNL     1       1.481   3.398  21.179  0.00  0.00    +0.000 C 
ATOM     32  C   UNL     1       1.488   4.907  20.954  0.00  0.00    +0.000 C 
ENDBRANCH   1  32
BRANCH   3  33
ATOM     33  C   UNL     1       4.505   3.357  17.393  0.00  0.00    +0.000 C 
ATOM     34  O   UNL     1       4.037   2.223  17.389  0.00  0.00    +0.000 OA
BRANCH  33  35
ATOM     35  O   UNL     1       5.670   3.656  16.777  0.00  0.00    +0.000 OA
ATOM     36  H   UNL     1       6.348   2.938  16.826  0.00  0.00    +0.000 HD
ENDBRANCH  33  35
ENDBRANCH   3  33
TORSDOF 8
ENDMDL
MODEL 3
REMARK VINA RESULT:      -7.6      4.355     10.805
REMARK  Name = 
REMARK  9 active torsions:
REMARK  status: ('A' for Active; 'I' for Inactive)
REMARK    1  A    between atoms: C_1  and  C_2
REMARK    2  A    between atoms: C_2  and  N_3
REMARK    3  A    between atoms: C_5  and  C_6
REMARK    4  A    between atoms: C_6  and  O_8
REMARK    5  A    between atoms: C_15  and  N_16
REMARK    6  A    between atoms: N_19  and  C_20
REMARK    7  A    between atoms: C_20  and  C_21
REMARK    8  A    between atoms: C_21  and  C_24
REMARK    9  A    between atoms: N_22  and  O_23
REMARK                            x       y       z     vdW  Elec       q    Type
REMARK                         _______ _______ _______ _____ _____    ______ ____
ROOT
ATOM      1  N   UNL     1       2.585   5.035  20.054  0.00  0.00    +0.000 N 
ATOM      2  C   UNL     1       3.196   4.023  19.322  0.00  0.00    +0.000 A 
ATOM      3  C   UNL     1       3.804   4.156  18.137  0.00  0.00    +0.000 A 
ATOM      4  C   UNL     1       3.825   5.504  17.539  0.00  0.00    +0.000 A 
ATOM      5  O   UNL     1       4.391   5.699  16.463  0.00  0.00    +0.000 OA
ATOM      6  C   UNL     1       3.122   6.589  18.248  0.00  0.00    +0.000 A 
ATOM      7  C   UNL     1       3.028   7.835  17.630  0.00  0.00    +0.000 A 
ATOM      8  C   UNL     1       2.275   8.832  18.230  0.00  0.00    +0.000 A 
ATOM      9  F   UNL     1       2.121   9.974  17.540  0.00  0.00    +0.000 F 
ATOM     10  C   UNL     1       1.645   8.647  19.473  0.00  0.00    +0.000 A 
ATOM     11  C   UNL     1       1.852   7.403  20.099  0.00  0.00    +0.000 A 
ATOM     12  C   UNL     1       2.522   6.331  19.491  0.00  0.00    +0.000 A 
ENDROOT
BRANCH  10  13
ATOM     13  N   UNL     1       0.859   9.603  20.084  0.00  0.00    +0.000 N 
ATOM     14  C   UNL     1      -0.198   9.275  21.056  0.00  0.00    +0.000 C 
ATOM     15  C   UNL     1      -0.037  10.149  22.323  0.00  0.00    +0.000 C 
ATOM     16  N   UNL     1       0.052  11.610  22.071  0.00  0.00    +0.000 NA
ATOM     17  C   UNL     1       1.113  11.837  21.052  0.00  0.00    +0.000 C 
ATOM     18  C   UNL     1       0.962  11.029  19.744  0.00  0.00    +0.000 C 
BRANCH  16  19
ATOM     19  C   UNL     1      -1.260  12.133  21.625  0.00  0.00    +0.000 C 
BRANCH  19  20
ATOM     20  C   UNL     1      -1.764  13.231  22.571  0.00  0.00    +0.000 C 
ATOM     21  N   UNL     1      -1.008  14.180  23.052  0.00  0.00    +0.000 NA
BRANCH  20  22
ATOM     22  C   UNL     1      -3.207  13.207  22.974  0.00  0.00    +0.000 A 
ATOM     23  C   UNL     1      -3.582  12.493  24.121  0.00  0.00    +0.000 A 
ATOM     24  C   UNL     1      -4.926  12.415  24.492  0.00  0.00    +0.000 A 
ATOM     25  C   UNL     1      -5.893  13.065  23.728  0.00  0.00    +0.000 A 
ATOM     26 CL   UNL     1      -7.552  12.954  24.168  0.00  0.00    +0.000 Cl
ATOM     27  C   UNL     1      -5.527  13.799  22.602  0.00  0.00    +0.000 A 
ATOM     28  C   UNL     1      -4.185  13.868  22.221  0.00  0.00    +0.000 A 
ENDBRANCH  20  22
BRANCH  21  29
ATOM     29  O   UNL     1       0.310  14.092  22.595  0.00  0.00    +0.000 OA
ATOM     30  H   UNL     1       0.702  14.925  22.913  0.00  0.00    +0.000 HD
ENDBRANCH  21  29
ENDBRANCH  19  20
ENDBRANCH  16  19
ENDBRANCH  10  13
BRANCH   1  32
ATOM     31  C   UNL     1       1.485   3.236  21.358  0.00  0.00    +0.000 C 
ATOM     32  C   UNL     1       1.803   4.725  21.269  0.00  0.00    +0.000 C 
ENDBRANCH   1  32
BRANCH   3  33
ATOM     33  C   UNL     1       4.377   2.974  17.462  0.00  0.00    +0.000 C 
ATOM     34  O   UNL     1       3.904   1.848  17.569  0.00  0.00    +0.000 OA
BRANCH  33  35
ATOM     35  O   UNL     1       5.461   3.229  16.697  0.00  0.00    +0.000 OA
ATOM     36  H   UNL     1       6.243   3.562  17.203  0.00  0.00    +0.000 HD
ENDBRANCH  33  35
ENDBRANCH   3  33
TORSDOF 8
ENDMDL
MODEL 4
REMARK VINA RESULT:      -7.5      3.958     10.657
REMARK  Name = 
REMARK  9 active torsions:
REMARK  status: ('A' for Active; 'I' for Inactive)
REMARK    1  A    between atoms: C_1  and  C_2
REMARK    2  A    between atoms: C_2  and  N_3
REMARK    3  A    between atoms: C_5  and  C_6
REMARK    4  A    between atoms: C_6  and  O_8
REMARK    5  A    between atoms: C_15  and  N_16
REMARK    6  A    between atoms: N_19  and  C_20
REMARK    7  A    between atoms: C_20  and  C_21
REMARK    8  A    between atoms: C_21  and  C_24
REMARK    9  A    between atoms: N_22  and  O_23
REMARK                            x       y       z     vdW  Elec       q    Type
REMARK                         _______ _______ _______ _____ _____    ______ ____
ROOT
ATOM      1  N   UNL     1       2.565   5.332  19.913  0.00  0.00    +0.000 N 
ATOM      2  C   UNL     1       3.256   4.367  19.188  0.00  0.00    +0.000 A 
ATOM      3  C   UNL     1       3.916   4.558  18.039  0.00  0.00    +0.000 A 
ATOM      4  C   UNL     1       3.911   5.923  17.479  0.00  0.00    +0.000 A 
ATOM      5  O   UNL     1       4.522   6.171  16.440  0.00  0.00    +0.000 OA
ATOM      6  C   UNL     1       3.128   6.958  18.179  0.00  0.00    +0.000 A 
ATOM      7  C   UNL     1       3.013   8.216  17.589  0.00  0.00    +0.000 A 
ATOM      8  C   UNL     1       2.189   9.164  18.175  0.00  0.00    +0.000 A 
ATOM      9  F   UNL     1       2.022  10.317  17.508  0.00  0.00    +0.000 F 
ATOM     10  C   UNL     1       1.505   8.919  19.378  0.00  0.00    +0.000 A 
ATOM     11  C   UNL     1       1.732   7.666  19.981  0.00  0.00    +0.000 A 
ATOM     12  C   UNL     1       2.477   6.640  19.382  0.00  0.00    +0.000 A 
ENDROOT
BRANCH  10  13
ATOM     13  N   UNL     1       0.649   9.823  19.972  0.00  0.00    +0.000 N 
ATOM     14  C   UNL     1       0.974  10.545  21.215  0.00  0.00    +0.000 C 
ATOM     15  C   UNL     1       0.713  12.059  21.028  0.00  0.00    +0.000 C 
ATOM     16  N   UNL     1      -0.640  12.405  20.522  0.00  0.00    +0.000 NA
ATOM     17  C   UNL     1      -0.893  11.601  19.295  0.00  0.00    +0.000 C 
ATOM     18  C   UNL     1      -0.701  10.075  19.450  0.00  0.00    +0.000 C 
BRANCH  16  19
ATOM     19  C   UNL     1      -1.657  12.147  21.568  0.00  0.00    +0.000 C 
BRANCH  19  20
ATOM     20  C   UNL     1      -2.417  13.432  21.923  0.00  0.00    +0.000 C 
ATOM     21  N   UNL     1      -2.047  14.261  22.862  0.00  0.00    +0.000 NA
BRANCH  20  22
ATOM     22  C   UNL     1      -3.665  13.749  21.156  0.00  0.00    +0.000 A 
ATOM     23  C   UNL     1      -4.108  15.078  21.094  0.00  0.00    +0.000 A 
ATOM     24  C   UNL     1      -5.293  15.392  20.425  0.00  0.00    +0.000 A 
ATOM     25  C   UNL     1      -6.025  14.383  19.803  0.00  0.00    +0.000 A 
ATOM     26 CL   UNL     1      -7.496  14.763  18.996  0.00  0.00    +0.000 Cl
ATOM     27  C   UNL     1      -5.579  13.064  19.836  0.00  0.00    +0.000 A 
ATOM     28  C   UNL     1      -4.401  12.744  20.515  0.00  0.00    +0.000 A 
ENDBRANCH  20  22
BRANCH  21  29
ATOM     29  O   UNL     1      -0.870  13.853  23.494  0.00  0.00    +0.000 OA
ATOM     30  H   UNL     1      -0.716  14.568  24.140  0.00  0.00    +0.000 HD
ENDBRANCH  21  29
ENDBRANCH  19  20
ENDBRANCH  16  19
ENDBRANCH  10  13
BRANCH   1  32
ATOM     31  C   UNL     1       1.367   3.477  21.039  0.00  0.00    +0.000 C 
ATOM     32  C   UNL     1       1.736   4.956  21.077  0.00  0.00    +0.000 C 
ENDBRANCH   1  32
BRANCH   3  33
ATOM     33  C   UNL     1       4.573   3.421  17.365  0.00  0.00    +0.000 C 
ATOM     34  O   UNL     1       4.087   2.295  17.327  0.00  0.00    +0.000 OA
BRANCH  33  35
ATOM     35  O   UNL     1       5.750   3.716  16.771  0.00  0.00    +0.000 OA
ATOM     36  H   UNL     1       6.538   3.598  17.357  0.00  0.00    +0.000 HD
ENDBRANCH  33  35
ENDBRANCH   3  33
TORSDOF 8
ENDMDL
MODEL 5
REMARK VINA RESULT:      -7.5      4.156     10.766
REMARK  Name = 
REMARK  9 active torsions:
REMARK  status: ('A' for Active; 'I' for Inactive)
REMARK    1  A    between atoms: C_1  and  C_2
REMARK    2  A    between atoms: C_2  and  N_3
REMARK    3  A    between atoms: C_5  and  C_6
REMARK    4  A    between atoms: C_6  and  O_8
REMARK    5  A    between atoms: C_15  and  N_16
REMARK    6  A    between atoms: N_19  and  C_20
REMARK    7  A    between atoms: C_20  and  C_21
REMARK    8  A    between atoms: C_21  and  C_24
REMARK    9  A    between atoms: N_22  and  O_23
REMARK                            x       y       z     vdW  Elec       q    Type
REMARK                         _______ _______ _______ _____ _____    ______ ____
ROOT
ATOM      1  N   UNL     1       2.647   5.013  20.052  0.00  0.00    +0.000 N 
ATOM      2  C   UNL     1       3.215   3.988  19.305  0.00  0.00    +0.000 A 
ATOM      3  C   UNL     1       3.802   4.109  18.108  0.00  0.00    +0.000 A 
ATOM      4  C   UNL     1       3.851   5.458  17.516  0.00  0.00    +0.000 A 
ATOM      5  O   UNL     1       4.401   5.641  16.430  0.00  0.00    +0.000 OA
ATOM      6  C   UNL     1       3.193   6.560  18.242  0.00  0.00    +0.000 A 
ATOM      7  C   UNL     1       3.123   7.811  17.631  0.00  0.00    +0.000 A 
ATOM      8  C   UNL     1       2.410   8.826  18.249  0.00  0.00    +0.000 A 
ATOM      9  F   UNL     1       2.276   9.975  17.567  0.00  0.00    +0.000 F 
ATOM     10  C   UNL     1       1.800   8.654  19.503  0.00  0.00    +0.000 A 
ATOM     11  C   UNL     1       1.983   7.401  20.120  0.00  0.00    +0.000 A 
ATOM     12  C   UNL     1       2.610   6.313  19.496  0.00  0.00    +0.000 A 
ENDROOT
BRANCH  10  13
ATOM     13  N   UNL     1       1.053   9.628  20.133  0.00  0.00    +0.000 N 
ATOM     14  C   UNL     1       0.242  10.620  19.405  0.00  0.00    +0.000 C 
ATOM     15  C   UNL     1      -1.189  10.664  19.993  0.00  0.00    +0.000 C 
ATOM     16  N   UNL     1      -1.258  10.863  21.463  0.00  0.00    +0.000 NA
ATOM     17  C   UNL     1      -0.380   9.847  22.107  0.00  0.00    +0.000 C 
ATOM     18  C   UNL     1       1.076   9.805  21.592  0.00  0.00    +0.000 C 
BRANCH  16  19
ATOM     19  C   UNL     1      -0.848  12.243  21.812  0.00  0.00    +0.000 C 
BRANCH  19  20
ATOM     20  C   UNL     1      -1.948  13.250  21.451  0.00  0.00    +0.000 C 
ATOM     21  N   UNL     1      -1.806  14.196  20.562  0.00  0.00    +0.000 NA
BRANCH  20  22
ATOM     22  C   UNL     1      -3.260  13.149  22.169  0.00  0.00    +0.000 A 
ATOM     23  C   UNL     1      -4.444  13.411  21.465  0.00  0.00    +0.000 A 
ATOM     24  C   UNL     1      -5.676  13.370  22.123  0.00  0.00    +0.000 A 
ATOM     25  C   UNL     1      -5.725  13.050  23.479  0.00  0.00    +0.000 A 
ATOM     26 CL   UNL     1      -7.237  13.020  24.298  0.00  0.00    +0.000 Cl
ATOM     27  C   UNL     1      -4.557  12.763  24.180  0.00  0.00    +0.000 A 
ATOM     28  C   UNL     1      -3.322  12.816  23.528  0.00  0.00    +0.000 A 
ENDBRANCH  20  22
BRANCH  21  29
ATOM     29  O   UNL     1      -0.544  14.175  19.964  0.00  0.00    +0.000 OA
ATOM     30  H   UNL     1      -0.551  13.330  19.479  0.00  0.00    +0.000 HD
ENDBRANCH  21  29
ENDBRANCH  19  20
ENDBRANCH  16  19
ENDBRANCH  10  13
BRANCH   1  32
ATOM     31  C   UNL     1       1.681   3.219  21.464  0.00  0.00    +0.000 C 
ATOM     32  C   UNL     1       1.880   4.720  21.281  0.00  0.00    +0.000 C 
ENDBRANCH   1  32
BRANCH   3  33
ATOM     33  C   UNL     1       4.329   2.914  17.418  0.00  0.00    +0.000 C 
ATOM     34  O   UNL     1       3.825   1.801  17.529  0.00  0.00    +0.000 OA
BRANCH  33  35
ATOM     35  O   UNL     1       5.405   3.141  16.633  0.00  0.00    +0.000 OA
ATOM     36  H   UNL     1       5.818   4.031  16.762  0.00  0.00    +0.000 HD
ENDBRANCH  33  35
ENDBRANCH   3  33
TORSDOF 8
ENDMDL
MODEL 6
REMARK VINA RESULT:      -7.4      4.348     10.685
REMARK  Name = 
REMARK  9 active torsions:
REMARK  status: ('A' for Active; 'I' for Inactive)
REMARK    1  A    between atoms: C_1  and  C_2
REMARK    2  A    between atoms: C_2  and  N_3
REMARK    3  A    between atoms: C_5  and  C_6
REMARK    4  A    between atoms: C_6  and  O_8
REMARK    5  A    between atoms: C_15  and  N_16
REMARK    6  A    between atoms: N_19  and  C_20
REMARK    7  A    between atoms: C_20  and  C_21
REMARK    8  A    between atoms: C_21  and  C_24
REMARK    9  A    between atoms: N_22  and  O_23
REMARK                            x       y       z     vdW  Elec       q    Type
REMARK                         _______ _______ _______ _____ _____    ______ ____
ROOT
ATOM      1  N   UNL     1       2.749   5.285  19.943  0.00  0.00    +0.000 N 
ATOM      2  C   UNL     1       3.453   4.386  19.150  0.00  0.00    +0.000 A 
ATOM      3  C   UNL     1       4.043   4.653  17.978  0.00  0.00    +0.000 A 
ATOM      4  C   UNL     1       3.936   6.033  17.470  0.00  0.00    +0.000 A 
ATOM      5  O   UNL     1       4.479   6.351  16.412  0.00  0.00    +0.000 OA
ATOM      6  C   UNL     1       3.133   6.998  18.245  0.00  0.00    +0.000 A 
ATOM      7  C   UNL     1       2.920   8.267  17.708  0.00  0.00    +0.000 A 
ATOM      8  C   UNL     1       2.076   9.147  18.368  0.00  0.00    +0.000 A 
ATOM      9  F   UNL     1       1.813  10.311  17.753  0.00  0.00    +0.000 F 
ATOM     10  C   UNL     1       1.469   8.822  19.593  0.00  0.00    +0.000 A 
ATOM     11  C   UNL     1       1.794   7.565  20.138  0.00  0.00    +0.000 A 
ATOM     12  C   UNL     1       2.562   6.604  19.466  0.00  0.00    +0.000 A 
ENDROOT
BRANCH  10  13
ATOM     13  N   UNL     1       0.595   9.657  20.261  0.00  0.00    +0.000 N 
ATOM     14  C   UNL     1      -0.250   9.209  21.381  0.00  0.00    +0.000 C 
ATOM     15  C   UNL     1      -0.104  10.183  22.574  0.00  0.00    +0.000 C 
ATOM     16  N   UNL     1      -0.328  11.615  22.247  0.00  0.00    +0.000 NA
ATOM     17  C   UNL     1       0.534  11.962  21.085  0.00  0.00    +0.000 C 
ATOM     18  C   UNL     1       0.380  11.050  19.847  0.00  0.00    +0.000 C 
BRANCH  16  19
ATOM     19  C   UNL     1      -1.761  11.854  21.959  0.00  0.00    +0.000 C 
BRANCH  19  20
ATOM     20  C   UNL     1      -2.051  13.355  21.824  0.00  0.00    +0.000 C 
ATOM     21  N   UNL     1      -2.449  13.922  20.717  0.00  0.00    +0.000 NA
BRANCH  20  22
ATOM     22  C   UNL     1      -1.855  14.222  23.030  0.00  0.00    +0.000 A 
ATOM     23  C   UNL     1      -0.762  15.099  23.068  0.00  0.00    +0.000 A 
ATOM     24  C   UNL     1      -0.530  15.884  24.200  0.00  0.00    +0.000 A 
ATOM     25  C   UNL     1      -1.400  15.806  25.286  0.00  0.00    +0.000 A 
ATOM     26 CL   UNL     1      -1.106  16.755  26.690  0.00  0.00    +0.000 Cl
ATOM     27  C   UNL     1      -2.504  14.958  25.246  0.00  0.00    +0.000 A 
ATOM     28  C   UNL     1      -2.731  14.162  24.121  0.00  0.00    +0.000 A 
ENDBRANCH  20  22
BRANCH  21  29
ATOM     29  O   UNL     1      -2.597  13.004  19.675  0.00  0.00    +0.000 OA
ATOM     30  H   UNL     1      -2.970  12.226  20.128  0.00  0.00    +0.000 HD
ENDBRANCH  21  29
ENDBRANCH  19  20
ENDBRANCH  16  19
ENDBRANCH  10  13
BRANCH   1  32
ATOM     31  C   UNL     1       1.412   3.434  20.909  0.00  0.00    +0.000 C 
ATOM     32  C   UNL     1       2.001   4.824  21.131  0.00  0.00    +0.000 C 
ENDBRANCH   1  32
BRANCH   3  33
ATOM     33  C   UNL     1       4.726   3.578  17.231  0.00  0.00    +0.000 C 
ATOM     34  O   UNL     1       5.630   3.791  16.430  0.00  0.00    +0.000 OA
BRANCH  33  35
ATOM     35  O   UNL     1       4.291   2.330  17.510  0.00  0.00    +0.000 OA
ATOM     36  H   UNL     1       4.132   1.770  16.709  0.00  0.00    +0.000 HD
ENDBRANCH  33  35
ENDBRANCH   3  33
TORSDOF 8
ENDMDL
MODEL 7
REMARK VINA RESULT:      -7.4      3.933     10.161
REMARK  Name = 
REMARK  9 active torsions:
REMARK  status: ('A' for Active; 'I' for Inactive)
REMARK    1  A    between atoms: C_1  and  C_2
REMARK    2  A    between atoms: C_2  and  N_3
REMARK    3  A    between atoms: C_5  and  C_6
REMARK    4  A    between atoms: C_6  and  O_8
REMARK    5  A    between atoms: C_15  and  N_16
REMARK    6  A    between atoms: N_19  and  C_20
REMARK    7  A    between atoms: C_20  and  C_21
REMARK    8  A    between atoms: C_21  and  C_24
REMARK    9  A    between atoms: N_22  and  O_23
REMARK                            x       y       z     vdW  Elec       q    Type
REMARK                         _______ _______ _______ _____ _____    ______ ____
ROOT
ATOM      1  N   UNL     1       3.847   5.647  18.056  0.00  0.00    +0.000 N 
ATOM      2  C   UNL     1       4.303   4.373  18.373  0.00  0.00    +0.000 A 
ATOM      3  C   UNL     1       3.875   3.604  19.382  0.00  0.00    +0.000 A 
ATOM      4  C   UNL     1       2.819   4.159  20.249  0.00  0.00    +0.000 A 
ATOM      5  O   UNL     1       2.362   3.492  21.178  0.00  0.00    +0.000 OA
ATOM      6  C   UNL     1       2.361   5.537  19.991  0.00  0.00    +0.000 A 
ATOM      7  C   UNL     1       1.457   6.114  20.882  0.00  0.00    +0.000 A 
ATOM      8  C   UNL     1       1.105   7.445  20.719  0.00  0.00    +0.000 A 
ATOM      9  F   UNL     1       0.323   7.985  21.668  0.00  0.00    +0.000 F 
ATOM     10  C   UNL     1       1.586   8.220  19.650  0.00  0.00    +0.000 A 
ATOM     11  C   UNL     1       2.420   7.560  18.726  0.00  0.00    +0.000 A 
ATOM     12  C   UNL     1       2.882   6.248  18.898  0.00  0.00    +0.000 A 
ENDROOT
BRANCH  10  13
ATOM     13  N   UNL     1       1.286   9.556  19.475  0.00  0.00    +0.000 N 
ATOM     14  C   UNL     1       0.816  10.426  20.566  0.00  0.00    +0.000 C 
ATOM     15  C   UNL     1       1.652  11.728  20.598  0.00  0.00    +0.000 C 
ATOM     16  N   UNL     1       1.734  12.454  19.305  0.00  0.00    +0.000 NA
ATOM     17  C   UNL     1       2.176  11.488  18.262  0.00  0.00    +0.000 C 
ATOM     18  C   UNL     1       1.334  10.197  18.153  0.00  0.00    +0.000 C 
BRANCH  16  19
ATOM     19  C   UNL     1       0.423  13.058  18.975  0.00  0.00    +0.000 C 
BRANCH  19  20
ATOM     20  C   UNL     1       0.016  14.098  20.028  0.00  0.00    +0.000 C 
ATOM     21  N   UNL     1       0.472  15.321  20.057  0.00  0.00    +0.000 NA
BRANCH  20  22
ATOM     22  C   UNL     1      -0.952  13.681  21.093  0.00  0.00    +0.000 A 
ATOM     23  C   UNL     1      -2.148  13.051  20.717  0.00  0.00    +0.000 A 
ATOM     24  C   UNL     1      -3.089  12.695  21.686  0.00  0.00    +0.000 A 
ATOM     25  C   UNL     1      -2.828  12.952  23.031  0.00  0.00    +0.000 A 
ATOM     26 CL   UNL     1      -3.993  12.535  24.225  0.00  0.00    +0.000 Cl
ATOM     27  C   UNL     1      -1.631  13.552  23.415  0.00  0.00    +0.000 A 
ATOM     28  C   UNL     1      -0.694  13.922  22.448  0.00  0.00    +0.000 A 
ENDBRANCH  20  22
BRANCH  21  29
ATOM     29  O   UNL     1       1.360  15.581  19.010  0.00  0.00    +0.000 OA
ATOM     30  H   UNL     1       2.210  15.268  19.369  0.00  0.00    +0.000 HD
ENDBRANCH  21  29
ENDBRANCH  19  20
ENDBRANCH  16  19
ENDBRANCH  10  13
BRANCH   1  32
ATOM     31  C   UNL     1       5.196   5.572  15.978  0.00  0.00    +0.000 C 
ATOM     32  C   UNL     1       4.522   6.457  17.021  0.00  0.00    +0.000 C 
ENDBRANCH   1  32
BRANCH   3  33
ATOM     33  C   UNL     1       4.486   2.280  19.616  0.00  0.00    +0.000 C 
ATOM     34  O   UNL     1       5.195   2.033  20.585  0.00  0.00    +0.000 OA
BRANCH  33  35
ATOM     35  O   UNL     1       4.190   1.347  18.685  0.00  0.00    +0.000 OA
ATOM     36  H   UNL     1       4.737   0.525  18.750  0.00  0.00    +0.000 HD
ENDBRANCH  33  35
ENDBRANCH   3  33
TORSDOF 8
ENDMDL
MODEL 8
REMARK VINA RESULT:      -7.4      4.136      9.616
REMARK  Name = 
REMARK  9 active torsions:
REMARK  status: ('A' for Active; 'I' for Inactive)
REMARK    1  A    between atoms: C_1  and  C_2
REMARK    2  A    between atoms: C_2  and  N_3
REMARK    3  A    between atoms: C_5  and  C_6
REMARK    4  A    between atoms: C_6  and  O_8
REMARK    5  A    between atoms: C_15  and  N_16
REMARK    6  A    between atoms: N_19  and  C_20
REMARK    7  A    between atoms: C_20  and  C_21
REMARK    8  A    between atoms: C_21  and  C_24
REMARK    9  A    between atoms: N_22  and  O_23
REMARK                            x       y       z     vdW  Elec       q    Type
REMARK                         _______ _______ _______ _____ _____    ______ ____
ROOT
ATOM      1  N   UNL     1       3.382   6.637  18.038  0.00  0.00    +0.000 N 
ATOM      2  C   UNL     1       3.896   5.401  18.412  0.00  0.00    +0.000 A 
ATOM      3  C   UNL     1       3.562   4.698  19.502  0.00  0.00    +0.000 A 
ATOM      4  C   UNL     1       2.554   5.290  20.401  0.00  0.00    +0.000 A 
ATOM      5  O   UNL     1       2.183   4.682  21.405  0.00  0.00    +0.000 OA
ATOM      6  C   UNL     1       2.039   6.634  20.079  0.00  0.00    +0.000 A 
ATOM      7  C   UNL     1       1.184   7.253  20.989  0.00  0.00    +0.000 A 
ATOM      8  C   UNL     1       0.782   8.559  20.757  0.00  0.00    +0.000 A 
ATOM      9  F   UNL     1       0.054   9.149  21.718  0.00  0.00    +0.000 F 
ATOM     10  C   UNL     1       1.164   9.265  19.603  0.00  0.00    +0.000 A 
ATOM     11  C   UNL     1       1.950   8.559  18.671  0.00  0.00    +0.000 A 
ATOM     12  C   UNL     1       2.462   7.275  18.903  0.00  0.00    +0.000 A 
ENDROOT
BRANCH  10  13
ATOM     13  N   UNL     1       0.814  10.577  19.355  0.00  0.00    +0.000 N 
ATOM     14  C   UNL     1      -0.362  10.959  18.555  0.00  0.00    +0.000 C 
ATOM     15  C   UNL     1      -1.201  12.011  19.321  0.00  0.00    +0.000 C 
ATOM     16  N   UNL     1      -0.441  13.196  19.794  0.00  0.00    +0.000 NA
ATOM     17  C   UNL     1       0.744  12.711  20.553  0.00  0.00    +0.000 C 
ATOM     18  C   UNL     1       1.644  11.702  19.805  0.00  0.00    +0.000 C 
BRANCH  16  19
ATOM     19  C   UNL     1      -0.048  14.043  18.644  0.00  0.00    +0.000 C 
BRANCH  19  20
ATOM     20  C   UNL     1       0.391  15.437  19.112  0.00  0.00    +0.000 C 
ATOM     21  N   UNL     1      -0.430  16.344  19.568  0.00  0.00    +0.000 NA
BRANCH  20  22
ATOM     22  C   UNL     1       1.848  15.781  19.031  0.00  0.00    +0.000 A 
ATOM     23  C   UNL     1       2.374  16.727  19.922  0.00  0.00    +0.000 A 
ATOM     24  C   UNL     1       3.718  17.100  19.837  0.00  0.00    +0.000 A 
ATOM     25  C   UNL     1       4.539  16.515  18.874  0.00  0.00    +0.000 A 
ATOM     26 CL   UNL     1       6.188  16.988  18.751  0.00  0.00    +0.000 Cl
ATOM     27  C   UNL     1       4.031  15.555  18.003  0.00  0.00    +0.000 A 
ATOM     28  C   UNL     1       2.684  15.189  18.077  0.00  0.00    +0.000 A 
ENDBRANCH  20  22
BRANCH  21  29
ATOM     29  O   UNL     1      -1.752  15.895  19.596  0.00  0.00    +0.000 OA
ATOM     30  H   UNL     1      -1.781  15.270  18.849  0.00  0.00    +0.000 HD
ENDBRANCH  21  29
ENDBRANCH  19  20
ENDBRANCH  16  19
ENDBRANCH  10  13
BRANCH   1  32
ATOM     31  C   UNL     1       5.101   6.611  16.253  0.00  0.00    +0.000 C 
ATOM     32  C   UNL     1       3.958   7.385  16.902  0.00  0.00    +0.000 C 
ENDBRANCH   1  32
BRANCH   3  33
ATOM     33  C   UNL     1       4.227   3.410  19.785  0.00  0.00    +0.000 C 
ATOM     34  O   UNL     1       5.413   3.204  19.551  0.00  0.00    +0.000 OA
BRANCH  33  35
ATOM     35  O   UNL     1       3.431   2.472  20.342  0.00  0.00    +0.000 OA
ATOM     36  H   UNL     1       3.862   1.957  21.068  0.00  0.00    +0.000 HD
ENDBRANCH  33  35
ENDBRANCH   3  33
TORSDOF 8
ENDMDL
MODEL 9
REMARK VINA RESULT:      -7.3      3.780      9.430
REMARK  Name = 
REMARK  9 active torsions:
REMARK  status: ('A' for Active; 'I' for Inactive)
REMARK    1  A    between atoms: C_1  and  C_2
REMARK    2  A    between atoms: C_2  and  N_3
REMARK    3  A    between atoms: C_5  and  C_6
REMARK    4  A    between atoms: C_6  and  O_8
REMARK    5  A    between atoms: C_15  and  N_16
REMARK    6  A    between atoms: N_19  and  C_20
REMARK    7  A    between atoms: C_20  and  C_21
REMARK    8  A    between atoms: C_21  and  C_24
REMARK    9  A    between atoms: N_22  and  O_23
REMARK                            x       y       z     vdW  Elec       q    Type
REMARK                         _______ _______ _______ _____ _____    ______ ____
ROOT
ATOM      1  N   UNL     1       3.747   5.662  17.972  0.00  0.00    +0.000 N 
ATOM      2  C   UNL     1       4.225   4.417  18.364  0.00  0.00    +0.000 A 
ATOM      3  C   UNL     1       3.837   3.720  19.440  0.00  0.00    +0.000 A 
ATOM      4  C   UNL     1       2.805   4.328  20.299  0.00  0.00    +0.000 A 
ATOM      5  O   UNL     1       2.386   3.728  21.288  0.00  0.00    +0.000 OA
ATOM      6  C   UNL     1       2.326   5.681  19.959  0.00  0.00    +0.000 A 
ATOM      7  C   UNL     1       1.447   6.315  20.835  0.00  0.00    +0.000 A 
ATOM      8  C   UNL     1       1.077   7.628  20.589  0.00  0.00    +0.000 A 
ATOM      9  F   UNL     1       0.322   8.230  21.522  0.00  0.00    +0.000 F 
ATOM     10  C   UNL     1       1.515   8.327  19.451  0.00  0.00    +0.000 A 
ATOM     11  C   UNL     1       2.324   7.608  18.549  0.00  0.00    +0.000 A 
ATOM     12  C   UNL     1       2.805   6.315  18.800  0.00  0.00    +0.000 A 
ENDROOT
BRANCH  10  13
ATOM     13  N   UNL     1       1.197   9.645  19.190  0.00  0.00    +0.000 N 
ATOM     14  C   UNL     1       0.230  10.051  18.156  0.00  0.00    +0.000 C 
ATOM     15  C   UNL     1      -0.792  11.047  18.754  0.00  0.00    +0.000 C 
ATOM     16  N   UNL     1      -0.196  12.218  19.448  0.00  0.00    +0.000 NA
ATOM     17  C   UNL     1       0.792  11.711  20.439  0.00  0.00    +0.000 C 
ATOM     18  C   UNL     1       1.869  10.757  19.876  0.00  0.00    +0.000 C 
BRANCH  16  19
ATOM     19  C   UNL     1       0.431  13.130  18.463  0.00  0.00    +0.000 C 
BRANCH  19  20
ATOM     20  C   UNL     1       0.906  14.424  19.138  0.00  0.00    +0.000 C 
ATOM     21  N   UNL     1       0.102  15.303  19.673  0.00  0.00    +0.000 NA
BRANCH  20  22
ATOM     22  C   UNL     1       2.378  14.701  19.174  0.00  0.00    +0.000 A 
ATOM     23  C   UNL     1       3.045  14.996  17.977  0.00  0.00    +0.000 A 
ATOM     24  C   UNL     1       4.426  15.212  17.976  0.00  0.00    +0.000 A 
ATOM     25  C   UNL     1       5.136  15.150  19.174  0.00  0.00    +0.000 A 
ATOM     26 CL   UNL     1       6.838  15.393  19.175  0.00  0.00    +0.000 Cl
ATOM     27  C   UNL     1       4.477  14.884  20.372  0.00  0.00    +0.000 A 
ATOM     28  C   UNL     1       3.099  14.655  20.374  0.00  0.00    +0.000 A 
ENDBRANCH  20  22
BRANCH  21  29
ATOM     29  O   UNL     1      -1.239  14.922  19.577  0.00  0.00    +0.000 OA
ATOM     30  H   UNL     1      -1.206  13.971  19.789  0.00  0.00    +0.000 HD
ENDBRANCH  21  29
ENDBRANCH  19  20
ENDBRANCH  16  19
ENDBRANCH  10  13
BRANCH   1  32
ATOM     31  C   UNL     1       5.887   6.173  16.830  0.00  0.00    +0.000 C 
ATOM     32  C   UNL     1       4.379   6.400  16.859  0.00  0.00    +0.000 C 
ENDBRANCH   1  32
BRANCH   3  33
ATOM     33  C   UNL     1       4.468   2.421  19.747  0.00  0.00    +0.000 C 
ATOM     34  O   UNL     1       5.180   2.239  20.730  0.00  0.00    +0.000 OA
BRANCH  33  35
ATOM     35  O   UNL     1       4.188   1.433  18.870  0.00  0.00    +0.000 OA
ATOM     36  H   UNL     1       3.660   0.689  19.254  0.00  0.00    +0.000 HD
ENDBRANCH  33  35
ENDBRANCH   3  33
TORSDOF 8
ENDMDL
