MODEL 1
REMARK VINA RESULT:      -7.8      0.000      0.000
REMARK  Name = 
REMARK  8 active torsions:
REMARK  status: ('A' for Active; 'I' for Inactive)
REMARK    1  A    between atoms: C_1  and  O_2
REMARK    2  A    between atoms: O_2  and  C_3
REMARK    3  A    between atoms: C_3  and  C_5
REMARK    4  A    between atoms: C_5  and  C_6
REMARK    5  A    between atoms: C_5  and  N_16
REMARK    6  A    between atoms: C_6  and  C_7
REMARK    7  A    between atoms: C_17  and  C_18
REMARK    8  A    between atoms: C_21  and  O_22
REMARK                            x       y       z     vdW  Elec       q    Type
REMARK                         _______ _______ _______ _____ _____    ______ ____
ROOT
ATOM      1  C   UNL     1       4.679   6.256  17.359  0.00  0.00    +0.000 C 
ENDROOT
BRANCH   1   2
ATOM      2  C   UNL     1       5.512   6.548  16.099  0.00  0.00    +0.000 C 
ATOM      3  O   UNL     1       5.051   6.974  15.044  0.00  0.00    +0.000 OA
BRANCH   2   5
ATOM      4  C   UNL     1       7.240   6.533  17.689  0.00  0.00    +0.000 C 
ATOM      5  O   UNL     1       6.847   6.376  16.324  0.00  0.00    +0.000 OA
ENDBRANCH   2   5
ENDBRANCH   1   2
BRANCH   1   6
ATOM      6  N   UNL     1       3.752   7.390  17.593  0.00  0.00    +0.000 NA
ATOM      7  C   UNL     1       2.941   7.250  18.583  0.00  0.00    +0.000 C 
BRANCH   7   8
ATOM      8  C   UNL     1       1.929   8.281  18.883  0.00  0.00    +0.000 A 
ATOM      9  C   UNL     1       1.420   9.089  17.859  0.00  0.00    +0.000 A 
ATOM     10  C   UNL     1       0.465  10.063  18.147  0.00  0.00    +0.000 A 
ATOM     11  C   UNL     1       0.027  10.220  19.459  0.00  0.00    +0.000 A 
ATOM     12  C   UNL     1       0.519   9.412  20.480  0.00  0.00    +0.000 A 
ATOM     13  C   UNL     1       1.474   8.435  20.195  0.00  0.00    +0.000 A 
BRANCH  11  14
ATOM     14  O   UNL     1      -0.895  11.169  19.786  0.00  0.00    +0.000 OA
ATOM     15  H   UNL     1      -1.742  10.728  19.965  0.00  0.00    +0.000 HD
ENDBRANCH  11  14
ENDBRANCH   7   8
ENDBRANCH   1   6
BRANCH   1  16
ATOM     16  C   UNL     1       3.835   4.977  17.218  0.00  0.00    +0.000 C 
BRANCH  16  17
ATOM     17  C   UNL     1       3.965   4.039  18.386  0.00  0.00    +0.000 A 
ATOM     18  C   UNL     1       5.101   3.339  18.749  0.00  0.00    +0.000 A 
ATOM     19  N   UNL     1       4.822   2.615  19.875  0.00  0.00    +0.000 N 
ATOM     20  C   UNL     1       3.522   2.829  20.268  0.00  0.00    +0.000 A 
ATOM     21  C   UNL     1       2.816   2.315  21.362  0.00  0.00    +0.000 A 
ATOM     22  C   UNL     1       1.483   2.707  21.514  0.00  0.00    +0.000 A 
ATOM     23  C   UNL     1       0.882   3.575  20.605  0.00  0.00    +0.000 A 
ATOM     24  C   UNL     1       1.605   4.081  19.518  0.00  0.00    +0.000 A 
ATOM     25  C   UNL     1       2.953   3.707  19.345  0.00  0.00    +0.000 A 
ATOM     26  H   UNL     1       5.474   2.011  20.355  0.00  0.00    +0.000 HD
ENDBRANCH  16  17
ENDBRANCH   1  16
TORSDOF 7
ENDMDL
MODEL 2
REMARK VINA RESULT:      -7.7      0.251      1.021
REMARK  Name = 
REMARK  8 active torsions:
REMARK  status: ('A' for Active; 'I' for Inactive)
REMARK    1  A    between atoms: C_1  and  O_2
REMARK    2  A    between atoms: O_2  and  C_3
REMARK    3  A    between atoms: C_3  and  C_5
REMARK    4  A    between atoms: C_5  and  C_6
REMARK    5  A    between atoms: C_5  and  N_16
REMARK    6  A    between atoms: C_6  and  C_7
REMARK    7  A    between atoms: C_17  and  C_18
REMARK    8  A    between atoms: C_21  and  O_22
REMARK                            x       y       z     vdW  Elec       q    Type
REMARK                         _______ _______ _______ _____ _____    ______ ____
ROOT
ATOM      1  C   UNL     1       4.715   6.372  17.509  0.00  0.00    +0.000 C 
ENDROOT
BRANCH   1   2
ATOM      2  C   UNL     1       5.553   6.705  16.261  0.00  0.00    +0.000 C 
ATOM      3  O   UNL     1       5.173   6.546  15.105  0.00  0.00    +0.000 OA
BRANCH   2   5
ATOM      4  C   UNL     1       7.377   6.743  17.741  0.00  0.00    +0.000 C 
ATOM      5  O   UNL     1       6.737   7.300  16.591  0.00  0.00    +0.000 OA
ENDBRANCH   2   5
ENDBRANCH   1   2
BRANCH   1   6
ATOM      6  N   UNL     1       3.816   7.516  17.798  0.00  0.00    +0.000 NA
ATOM      7  C   UNL     1       2.832   7.262  18.590  0.00  0.00    +0.000 C 
BRANCH   7   8
ATOM      8  C   UNL     1       1.832   8.299  18.909  0.00  0.00    +0.000 A 
ATOM      9  C   UNL     1       1.421   8.498  20.233  0.00  0.00    +0.000 A 
ATOM     10  C   UNL     1       0.474   9.478  20.531  0.00  0.00    +0.000 A 
ATOM     11  C   UNL     1      -0.052  10.250  19.499  0.00  0.00    +0.000 A 
ATOM     12  C   UNL     1       0.361  10.067  18.183  0.00  0.00    +0.000 A 
ATOM     13  C   UNL     1       1.310   9.088  17.881  0.00  0.00    +0.000 A 
BRANCH  11  14
ATOM     14  O   UNL     1      -0.991  11.209  19.744  0.00  0.00    +0.000 OA
ATOM     15  H   UNL     1      -1.284  11.577  18.894  0.00  0.00    +0.000 HD
ENDBRANCH  11  14
ENDBRANCH   7   8
ENDBRANCH   1   6
BRANCH   1  16
ATOM     16  C   UNL     1       3.841   5.122  17.308  0.00  0.00    +0.000 C 
BRANCH  16  17
ATOM     17  C   UNL     1       3.949   4.127  18.430  0.00  0.00    +0.000 A 
ATOM     18  C   UNL     1       5.070   3.389  18.762  0.00  0.00    +0.000 A 
ATOM     19  N   UNL     1       4.773   2.617  19.851  0.00  0.00    +0.000 N 
ATOM     20  C   UNL     1       3.476   2.837  20.250  0.00  0.00    +0.000 A 
ATOM     21  C   UNL     1       2.757   2.285  21.317  0.00  0.00    +0.000 A 
ATOM     22  C   UNL     1       1.431   2.695  21.484  0.00  0.00    +0.000 A 
ATOM     23  C   UNL     1       0.850   3.616  20.616  0.00  0.00    +0.000 A 
ATOM     24  C   UNL     1       1.586   4.161  19.556  0.00  0.00    +0.000 A 
ATOM     25  C   UNL     1       2.928   3.770  19.370  0.00  0.00    +0.000 A 
ATOM     26  H   UNL     1       5.412   1.979  20.303  0.00  0.00    +0.000 HD
ENDBRANCH  16  17
ENDBRANCH   1  16
TORSDOF 7
ENDMDL
MODEL 3
REMARK VINA RESULT:      -7.6      0.992      1.517
REMARK  Name = 
REMARK  8 active torsions:
REMARK  status: ('A' for Active; 'I' for Inactive)
REMARK    1  A    between atoms: C_1  and  O_2
REMARK    2  A    between atoms: O_2  and  C_3
REMARK    3  A    between atoms: C_3  and  C_5
REMARK    4  A    between atoms: C_5  and  C_6
REMARK    5  A    between atoms: C_5  and  N_16
REMARK    6  A    between atoms: C_6  and  C_7
REMARK    7  A    between atoms: C_17  and  C_18
REMARK    8  A    between atoms: C_21  and  O_22
REMARK                            x       y       z     vdW  Elec       q    Type
REMARK                         _______ _______ _______ _____ _____    ______ ____
ROOT
ATOM      1  C   UNL     1       4.515   5.446  16.975  0.00  0.00    +0.000 C 
ENDROOT
BRANCH   1   2
ATOM      2  C   UNL     1       5.160   5.718  15.604  0.00  0.00    +0.000 C 
ATOM      3  O   UNL     1       5.455   6.832  15.183  0.00  0.00    +0.000 OA
BRANCH   2   5
ATOM      4  C   UNL     1       6.729   4.571  14.285  0.00  0.00    +0.000 C 
ATOM      5  O   UNL     1       5.464   4.559  14.950  0.00  0.00    +0.000 OA
ENDBRANCH   2   5
ENDBRANCH   1   2
BRANCH   1   6
ATOM      6  N   UNL     1       3.503   6.497  17.243  0.00  0.00    +0.000 NA
ATOM      7  C   UNL     1       3.356   6.822  18.481  0.00  0.00    +0.000 C 
BRANCH   7   8
ATOM      8  C   UNL     1       2.339   7.812  18.886  0.00  0.00    +0.000 A 
ATOM      9  C   UNL     1       1.894   7.863  20.213  0.00  0.00    +0.000 A 
ATOM     10  C   UNL     1       0.932   8.799  20.591  0.00  0.00    +0.000 A 
ATOM     11  C   UNL     1       0.424   9.676  19.637  0.00  0.00    +0.000 A 
ATOM     12  C   UNL     1       0.870   9.639  18.319  0.00  0.00    +0.000 A 
ATOM     13  C   UNL     1       1.835   8.705  17.937  0.00  0.00    +0.000 A 
BRANCH  11  14
ATOM     14  O   UNL     1      -0.529  10.596  19.961  0.00  0.00    +0.000 OA
ATOM     15  H   UNL     1      -1.400  10.229  19.740  0.00  0.00    +0.000 HD
ENDBRANCH  11  14
ENDBRANCH   7   8
ENDBRANCH   1   6
BRANCH   1  16
ATOM     16  C   UNL     1       3.805   4.081  17.026  0.00  0.00    +0.000 C 
BRANCH  16  17
ATOM     17  C   UNL     1       3.868   3.421  18.375  0.00  0.00    +0.000 A 
ATOM     18  C   UNL     1       4.970   2.791  18.924  0.00  0.00    +0.000 A 
ATOM     19  N   UNL     1       4.633   2.338  20.170  0.00  0.00    +0.000 N 
ATOM     20  C   UNL     1       3.329   2.666  20.457  0.00  0.00    +0.000 A 
ATOM     21  C   UNL     1       2.573   2.422  21.611  0.00  0.00    +0.000 A 
ATOM     22  C   UNL     1       1.249   2.871  21.623  0.00  0.00    +0.000 A 
ATOM     23  C   UNL     1       0.705   3.531  20.524  0.00  0.00    +0.000 A 
ATOM     24  C   UNL     1       1.477   3.768  19.380  0.00  0.00    +0.000 A 
ATOM     25  C   UNL     1       2.818   3.333  19.344  0.00  0.00    +0.000 A 
ATOM     26  H   UNL     1       5.250   1.840  20.794  0.00  0.00    +0.000 HD
ENDBRANCH  16  17
ENDBRANCH   1  16
TORSDOF 7
ENDMDL
MODEL 4
REMARK VINA RESULT:      -7.4      3.355      5.440
REMARK  Name = 
REMARK  8 active torsions:
REMARK  status: ('A' for Active; 'I' for Inactive)
REMARK    1  A    between atoms: C_1  and  O_2
REMARK    2  A    between atoms: O_2  and  C_3
REMARK    3  A    between atoms: C_3  and  C_5
REMARK    4  A    between atoms: C_5  and  C_6
REMARK    5  A    between atoms: C_5  and  N_16
REMARK    6  A    between atoms: C_6  and  C_7
REMARK    7  A    between atoms: C_17  and  C_18
REMARK    8  A    between atoms: C_21  and  O_22
REMARK                            x       y       z     vdW  Elec       q    Type
REMARK                         _______ _______ _______ _____ _____    ______ ____
ROOT
ATOM      1  C   UNL     1       6.324   6.301  17.291  0.00  0.00    +0.000 C 
ENDROOT
BRANCH   1   2
ATOM      2  C   UNL     1       7.326   5.436  16.506  0.00  0.00    +0.000 C 
ATOM      3  O   UNL     1       7.929   4.474  16.971  0.00  0.00    +0.000 OA
BRANCH   2   5
ATOM      4  C   UNL     1       7.101   4.747  14.272  0.00  0.00    +0.000 C 
ATOM      5  O   UNL     1       7.388   5.802  15.192  0.00  0.00    +0.000 OA
ENDBRANCH   2   5
ENDBRANCH   1   2
BRANCH   1   6
ATOM      6  N   UNL     1       6.818   7.699  17.317  0.00  0.00    +0.000 NA
ATOM      7  C   UNL     1       7.824   7.918  18.090  0.00  0.00    +0.000 C 
BRANCH   7   8
ATOM      8  C   UNL     1       8.372   9.279  18.251  0.00  0.00    +0.000 A 
ATOM      9  C   UNL     1       9.312   9.547  19.253  0.00  0.00    +0.000 A 
ATOM     10  C   UNL     1       9.826  10.834  19.403  0.00  0.00    +0.000 A 
ATOM     11  C   UNL     1       9.394  11.843  18.547  0.00  0.00    +0.000 A 
ATOM     12  C   UNL     1       8.468  11.582  17.540  0.00  0.00    +0.000 A 
ATOM     13  C   UNL     1       7.953  10.293  17.387  0.00  0.00    +0.000 A 
BRANCH  11  14
ATOM     14  O   UNL     1       9.859  13.119  18.668  0.00  0.00    +0.000 OA
ATOM     15  H   UNL     1      10.680  13.100  19.187  0.00  0.00    +0.000 HD
ENDBRANCH  11  14
ENDBRANCH   7   8
ENDBRANCH   1   6
BRANCH   1  16
ATOM     16  C   UNL     1       4.926   6.305  16.647  0.00  0.00    +0.000 C 
BRANCH  16  17
ATOM     17  C   UNL     1       3.818   5.991  17.614  0.00  0.00    +0.000 A 
ATOM     18  C   UNL     1       3.218   6.883  18.485  0.00  0.00    +0.000 A 
ATOM     19  N   UNL     1       2.244   6.220  19.178  0.00  0.00    +0.000 N 
ATOM     20  C   UNL     1       2.182   4.907  18.776  0.00  0.00    +0.000 A 
ATOM     21  C   UNL     1       1.334   3.876  19.195  0.00  0.00    +0.000 A 
ATOM     22  C   UNL     1       1.504   2.619  18.608  0.00  0.00    +0.000 A 
ATOM     23  C   UNL     1       2.486   2.405  17.643  0.00  0.00    +0.000 A 
ATOM     24  C   UNL     1       3.323   3.450  17.233  0.00  0.00    +0.000 A 
ATOM     25  C   UNL     1       3.168   4.729  17.805  0.00  0.00    +0.000 A 
ATOM     26  H   UNL     1       1.649   6.632  19.883  0.00  0.00    +0.000 HD
ENDBRANCH  16  17
ENDBRANCH   1  16
TORSDOF 7
ENDMDL
MODEL 5
REMARK VINA RESULT:      -7.4      0.996      1.200
REMARK  Name = 
REMARK  8 active torsions:
REMARK  status: ('A' for Active; 'I' for Inactive)
REMARK    1  A    between atoms: C_1  and  O_2
REMARK    2  A    between atoms: O_2  and  C_3
REMARK    3  A    between atoms: C_3  and  C_5
REMARK    4  A    between atoms: C_5  and  C_6
REMARK    5  A    between atoms: C_5  and  N_16
REMARK    6  A    between atoms: C_6  and  C_7
REMARK    7  A    between atoms: C_17  and  C_18
REMARK    8  A    between atoms: C_21  and  O_22
REMARK                            x       y       z     vdW  Elec       q    Type
REMARK                         _______ _______ _______ _____ _____    ______ ____
ROOT
ATOM      1  C   UNL     1       5.192   5.429  17.249  0.00  0.00    +0.000 C 
ENDROOT
BRANCH   1   2
ATOM      2  C   UNL     1       5.581   5.944  15.852  0.00  0.00    +0.000 C 
ATOM      3  O   UNL     1       5.074   6.918  15.303  0.00  0.00    +0.000 OA
BRANCH   2   5
ATOM      4  C   UNL     1       6.375   4.643  14.065  0.00  0.00    +0.000 C 
ATOM      5  O   UNL     1       6.634   5.249  15.332  0.00  0.00    +0.000 OA
ENDBRANCH   2   5
ENDBRANCH   1   2
BRANCH   1   6
ATOM      6  N   UNL     1       4.513   6.522  17.988  0.00  0.00    +0.000 NA
ATOM      7  C   UNL     1       3.247   6.630  17.779  0.00  0.00    +0.000 C 
BRANCH   7   8
ATOM      8  C   UNL     1       2.467   7.714  18.408  0.00  0.00    +0.000 A 
ATOM      9  C   UNL     1       2.122   8.853  17.671  0.00  0.00    +0.000 A 
ATOM     10  C   UNL     1       1.387   9.876  18.268  0.00  0.00    +0.000 A 
ATOM     11  C   UNL     1       1.002   9.749  19.600  0.00  0.00    +0.000 A 
ATOM     12  C   UNL     1       1.330   8.613  20.336  0.00  0.00    +0.000 A 
ATOM     13  C   UNL     1       2.065   7.587  19.740  0.00  0.00    +0.000 A 
BRANCH  11  14
ATOM     14  O   UNL     1       0.295  10.731  20.228  0.00  0.00    +0.000 OA
ATOM     15  H   UNL     1       0.072  10.426  21.123  0.00  0.00    +0.000 HD
ENDBRANCH  11  14
ENDBRANCH   7   8
ENDBRANCH   1   6
BRANCH   1  16
ATOM     16  C   UNL     1       4.227   4.232  17.183  0.00  0.00    +0.000 C 
BRANCH  16  17
ATOM     17  C   UNL     1       4.094   3.495  18.486  0.00  0.00    +0.000 A 
ATOM     18  C   UNL     1       5.096   2.793  19.133  0.00  0.00    +0.000 A 
ATOM     19  N   UNL     1       4.586   2.285  20.295  0.00  0.00    +0.000 N 
ATOM     20  C   UNL     1       3.267   2.644  20.433  0.00  0.00    +0.000 A 
ATOM     21  C   UNL     1       2.361   2.365  21.463  0.00  0.00    +0.000 A 
ATOM     22  C   UNL     1       1.060   2.861  21.334  0.00  0.00    +0.000 A 
ATOM     23  C   UNL     1       0.684   3.603  20.216  0.00  0.00    +0.000 A 
ATOM     24  C   UNL     1       1.605   3.875  19.197  0.00  0.00    +0.000 A 
ATOM     25  C   UNL     1       2.924   3.392  19.307  0.00  0.00    +0.000 A 
ATOM     26  H   UNL     1       5.102   1.728  20.962  0.00  0.00    +0.000 HD
ENDBRANCH  16  17
ENDBRANCH   1  16
TORSDOF 7
ENDMDL
MODEL 6
REMARK VINA RESULT:      -7.4      3.450      5.227
REMARK  Name = 
REMARK  8 active torsions:
REMARK  status: ('A' for Active; 'I' for Inactive)
REMARK    1  A    between atoms: C_1  and  O_2
REMARK    2  A    between atoms: O_2  and  C_3
REMARK    3  A    between atoms: C_3  and  C_5
REMARK    4  A    between atoms: C_5  and  C_6
REMARK    5  A    between atoms: C_5  and  N_16
REMARK    6  A    between atoms: C_6  and  C_7
REMARK    7  A    between atoms: C_17  and  C_18
REMARK    8  A    between atoms: C_21  and  O_22
REMARK                            x       y       z     vdW  Elec       q    Type
REMARK                         _______ _______ _______ _____ _____    ______ ____
ROOT
ATOM      1  C   UNL     1       6.668   6.668  17.269  0.00  0.00    +0.000 C 
ENDROOT
BRANCH   1   2
ATOM      2  C   UNL     1       6.376   6.289  15.806  0.00  0.00    +0.000 C 
ATOM      3  O   UNL     1       5.412   6.691  15.162  0.00  0.00    +0.000 OA
BRANCH   2   5
ATOM      4  C   UNL     1       7.009   4.813  14.092  0.00  0.00    +0.000 C 
ATOM      5  O   UNL     1       7.377   5.531  15.271  0.00  0.00    +0.000 OA
ENDBRANCH   2   5
ENDBRANCH   1   2
BRANCH   1   6
ATOM      6  N   UNL     1       7.144   8.072  17.312  0.00  0.00    +0.000 NA
ATOM      7  C   UNL     1       8.066   8.318  18.177  0.00  0.00    +0.000 C 
BRANCH   7   8
ATOM      8  C   UNL     1       8.583   9.688  18.361  0.00  0.00    +0.000 A 
ATOM      9  C   UNL     1       8.170  10.718  17.506  0.00  0.00    +0.000 A 
ATOM     10  C   UNL     1       8.662  12.011  17.682  0.00  0.00    +0.000 A 
ATOM     11  C   UNL     1       9.563  12.262  18.713  0.00  0.00    +0.000 A 
ATOM     12  C   UNL     1       9.968  11.246  19.575  0.00  0.00    +0.000 A 
ATOM     13  C   UNL     1       9.476   9.951  19.403  0.00  0.00    +0.000 A 
BRANCH  11  14
ATOM     14  O   UNL     1      10.080  13.508  18.912  0.00  0.00    +0.000 OA
ATOM     15  H   UNL     1      10.181  13.651  19.867  0.00  0.00    +0.000 HD
ENDBRANCH  11  14
ENDBRANCH   7   8
ENDBRANCH   1   6
BRANCH   1  16
ATOM     16  C   UNL     1       5.416   6.565  18.159  0.00  0.00    +0.000 C 
BRANCH  16  17
ATOM     17  C   UNL     1       5.053   5.153  18.525  0.00  0.00    +0.000 A 
ATOM     18  C   UNL     1       5.890   4.220  19.109  0.00  0.00    +0.000 A 
ATOM     19  N   UNL     1       5.183   3.066  19.302  0.00  0.00    +0.000 N 
ATOM     20  C   UNL     1       3.890   3.222  18.862  0.00  0.00    +0.000 A 
ATOM     21  C   UNL     1       2.819   2.319  18.877  0.00  0.00    +0.000 A 
ATOM     22  C   UNL     1       1.599   2.754  18.350  0.00  0.00    +0.000 A 
ATOM     23  C   UNL     1       1.460   4.037  17.828  0.00  0.00    +0.000 A 
ATOM     24  C   UNL     1       2.542   4.927  17.825  0.00  0.00    +0.000 A 
ATOM     25  C   UNL     1       3.781   4.516  18.356  0.00  0.00    +0.000 A 
ATOM     26  H   UNL     1       5.551   2.219  19.711  0.00  0.00    +0.000 HD
ENDBRANCH  16  17
ENDBRANCH   1  16
TORSDOF 7
ENDMDL
MODEL 7
REMARK VINA RESULT:      -7.4      3.413      5.345
REMARK  Name = 
REMARK  8 active torsions:
REMARK  status: ('A' for Active; 'I' for Inactive)
REMARK    1  A    between atoms: C_1  and  O_2
REMARK    2  A    between atoms: O_2  and  C_3
REMARK    3  A    between atoms: C_3  and  C_5
REMARK    4  A    between atoms: C_5  and  C_6
REMARK    5  A    between atoms: C_5  and  N_16
REMARK    6  A    between atoms: C_6  and  C_7
REMARK    7  A    between atoms: C_17  and  C_18
REMARK    8  A    between atoms: C_21  and  O_22
REMARK                            x       y       z     vdW  Elec       q    Type
REMARK                         _______ _______ _______ _____ _____    ______ ____
ROOT
ATOM      1  C   UNL     1       6.824   6.606  17.204  0.00  0.00    +0.000 C 
ENDROOT
BRANCH   1   2
ATOM      2  C   UNL     1       6.403   6.240  15.769  0.00  0.00    +0.000 C 
ATOM      3  O   UNL     1       5.374   6.628  15.226  0.00  0.00    +0.000 OA
BRANCH   2   5
ATOM      4  C   UNL     1       6.860   4.522  14.235  0.00  0.00    +0.000 C 
ATOM      5  O   UNL     1       7.366   5.514  15.130  0.00  0.00    +0.000 OA
ENDBRANCH   2   5
ENDBRANCH   1   2
BRANCH   1   6
ATOM      6  N   UNL     1       7.376   7.983  17.203  0.00  0.00    +0.000 NA
ATOM      7  C   UNL     1       8.040   8.315  18.255  0.00  0.00    +0.000 C 
BRANCH   7   8
ATOM      8  C   UNL     1       8.589   9.677  18.404  0.00  0.00    +0.000 A 
ATOM      9  C   UNL     1       9.535   9.951  19.399  0.00  0.00    +0.000 A 
ATOM     10  C   UNL     1      10.051  11.239  19.537  0.00  0.00    +0.000 A 
ATOM     11  C   UNL     1       9.614  12.242  18.676  0.00  0.00    +0.000 A 
ATOM     12  C   UNL     1       8.683  11.975  17.676  0.00  0.00    +0.000 A 
ATOM     13  C   UNL     1       8.166  10.686  17.535  0.00  0.00    +0.000 A 
BRANCH  11  14
ATOM     14  O   UNL     1      10.081  13.519  18.785  0.00  0.00    +0.000 OA
ATOM     15  H   UNL     1       9.587  14.082  18.166  0.00  0.00    +0.000 HD
ENDBRANCH  11  14
ENDBRANCH   7   8
ENDBRANCH   1   6
BRANCH   1  16
ATOM     16  C   UNL     1       5.640   6.571  18.186  0.00  0.00    +0.000 C 
BRANCH  16  17
ATOM     17  C   UNL     1       5.185   5.181  18.531  0.00  0.00    +0.000 A 
ATOM     18  C   UNL     1       5.957   4.189  19.110  0.00  0.00    +0.000 A 
ATOM     19  N   UNL     1       5.177   3.079  19.282  0.00  0.00    +0.000 N 
ATOM     20  C   UNL     1       3.900   3.322  18.834  0.00  0.00    +0.000 A 
ATOM     21  C   UNL     1       2.774   2.489  18.829  0.00  0.00    +0.000 A 
ATOM     22  C   UNL     1       1.589   3.006  18.298  0.00  0.00    +0.000 A 
ATOM     23  C   UNL     1       1.536   4.302  17.791  0.00  0.00    +0.000 A 
ATOM     24  C   UNL     1       2.671   5.122  17.808  0.00  0.00    +0.000 A 
ATOM     25  C   UNL     1       3.877   4.627  18.344  0.00  0.00    +0.000 A 
ATOM     26  H   UNL     1       5.487   2.207  19.683  0.00  0.00    +0.000 HD
ENDBRANCH  16  17
ENDBRANCH   1  16
TORSDOF 7
ENDMDL
MODEL 8
REMARK VINA RESULT:      -7.4      3.217      5.204
REMARK  Name = 
REMARK  8 active torsions:
REMARK  status: ('A' for Active; 'I' for Inactive)
REMARK    1  A    between atoms: C_1  and  O_2
REMARK    2  A    between atoms: O_2  and  C_3
REMARK    3  A    between atoms: C_3  and  C_5
REMARK    4  A    between atoms: C_5  and  C_6
REMARK    5  A    between atoms: C_5  and  N_16
REMARK    6  A    between atoms: C_6  and  C_7
REMARK    7  A    between atoms: C_17  and  C_18
REMARK    8  A    between atoms: C_21  and  O_22
REMARK                            x       y       z     vdW  Elec       q    Type
REMARK                         _______ _______ _______ _____ _____    ______ ____
ROOT
ATOM      1  C   UNL     1       6.338   6.338  17.340  0.00  0.00    +0.000 C 
ENDROOT
BRANCH   1   2
ATOM      2  C   UNL     1       7.170   5.484  16.367  0.00  0.00    +0.000 C 
ATOM      3  O   UNL     1       7.901   4.558  16.705  0.00  0.00    +0.000 OA
BRANCH   2   5
ATOM      4  C   UNL     1       6.727   4.688  14.202  0.00  0.00    +0.000 C 
ATOM      5  O   UNL     1       6.918   5.810  15.066  0.00  0.00    +0.000 OA
ENDBRANCH   2   5
ENDBRANCH   1   2
BRANCH   1   6
ATOM      6  N   UNL     1       6.865   7.724  17.329  0.00  0.00    +0.000 NA
ATOM      7  C   UNL     1       7.825   7.959  18.156  0.00  0.00    +0.000 C 
BRANCH   7   8
ATOM      8  C   UNL     1       8.396   9.314  18.285  0.00  0.00    +0.000 A 
ATOM      9  C   UNL     1       8.017  10.327  17.395  0.00  0.00    +0.000 A 
ATOM     10  C   UNL     1       8.560  11.605  17.519  0.00  0.00    +0.000 A 
ATOM     11  C   UNL     1       9.479  11.858  18.534  0.00  0.00    +0.000 A 
ATOM     12  C   UNL     1       9.851  10.860  19.430  0.00  0.00    +0.000 A 
ATOM     13  C   UNL     1       9.308   9.579  19.309  0.00  0.00    +0.000 A 
BRANCH  11  14
ATOM     14  O   UNL     1      10.045  13.090  18.683  0.00  0.00    +0.000 OA
ATOM     15  H   UNL     1      10.368  13.387  17.816  0.00  0.00    +0.000 HD
ENDBRANCH  11  14
ENDBRANCH   7   8
ENDBRANCH   1   6
BRANCH   1  16
ATOM     16  C   UNL     1       4.852   6.394  16.943  0.00  0.00    +0.000 C 
BRANCH  16  17
ATOM     17  C   UNL     1       4.053   5.221  17.440  0.00  0.00    +0.000 A 
ATOM     18  C   UNL     1       4.069   3.942  16.915  0.00  0.00    +0.000 A 
ATOM     19  N   UNL     1       3.225   3.160  17.654  0.00  0.00    +0.000 N 
ATOM     20  C   UNL     1       2.656   3.899  18.665  0.00  0.00    +0.000 A 
ATOM     21  C   UNL     1       1.754   3.513  19.664  0.00  0.00    +0.000 A 
ATOM     22  C   UNL     1       1.333   4.493  20.568  0.00  0.00    +0.000 A 
ATOM     23  C   UNL     1       1.794   5.803  20.473  0.00  0.00    +0.000 A 
ATOM     24  C   UNL     1       2.699   6.170  19.468  0.00  0.00    +0.000 A 
ATOM     25  C   UNL     1       3.145   5.200  18.548  0.00  0.00    +0.000 A 
ATOM     26  H   UNL     1       3.045   2.181  17.489  0.00  0.00    +0.000 HD
ENDBRANCH  16  17
ENDBRANCH   1  16
TORSDOF 7
ENDMDL
MODEL 9
REMARK VINA RESULT:      -7.2      3.289      5.296
REMARK  Name = 
REMARK  8 active torsions:
REMARK  status: ('A' for Active; 'I' for Inactive)
REMARK    1  A    between atoms: C_1  and  O_2
REMARK    2  A    between atoms: O_2  and  C_3
REMARK    3  A    between atoms: C_3  and  C_5
REMARK    4  A    between atoms: C_5  and  C_6
REMARK    5  A    between atoms: C_5  and  N_16
REMARK    6  A    between atoms: C_6  and  C_7
REMARK    7  A    between atoms: C_17  and  C_18
REMARK    8  A    between atoms: C_21  and  O_22
REMARK                            x       y       z     vdW  Elec       q    Type
REMARK                         _______ _______ _______ _____ _____    ______ ____
ROOT
ATOM      1  C   UNL     1       6.447   6.531  17.306  0.00  0.00    +0.000 C 
ENDROOT
BRANCH   1   2
ATOM      2  C   UNL     1       7.337   5.671  16.390  0.00  0.00    +0.000 C 
ATOM      3  O   UNL     1       7.649   5.972  15.242  0.00  0.00    +0.000 OA
BRANCH   2   5
ATOM      4  C   UNL     1       7.655   4.611  18.461  0.00  0.00    +0.000 C 
ATOM      5  O   UNL     1       7.827   4.578  17.043  0.00  0.00    +0.000 OA
ENDBRANCH   2   5
ENDBRANCH   1   2
BRANCH   1   6
ATOM      6  N   UNL     1       6.964   7.921  17.304  0.00  0.00    +0.000 NA
ATOM      7  C   UNL     1       7.916   8.161  18.138  0.00  0.00    +0.000 C 
BRANCH   7   8
ATOM      8  C   UNL     1       8.475   9.519  18.277  0.00  0.00    +0.000 A 
ATOM      9  C   UNL     1       9.481   9.775  19.217  0.00  0.00    +0.000 A 
ATOM     10  C   UNL     1      10.006  11.060  19.346  0.00  0.00    +0.000 A 
ATOM     11  C   UNL     1       9.519  12.079  18.531  0.00  0.00    +0.000 A 
ATOM     12  C   UNL     1       8.529  11.829  17.586  0.00  0.00    +0.000 A 
ATOM     13  C   UNL     1       8.002  10.543  17.453  0.00  0.00    +0.000 A 
BRANCH  11  14
ATOM     14  O   UNL     1       9.994  13.353  18.635  0.00  0.00    +0.000 OA
ATOM     15  H   UNL     1      10.965  13.322  18.629  0.00  0.00    +0.000 HD
ENDBRANCH  11  14
ENDBRANCH   7   8
ENDBRANCH   1   6
BRANCH   1  16
ATOM     16  C   UNL     1       4.984   6.569  16.830  0.00  0.00    +0.000 C 
BRANCH  16  17
ATOM     17  C   UNL     1       4.168   5.399  17.304  0.00  0.00    +0.000 A 
ATOM     18  C   UNL     1       4.157   4.132  16.748  0.00  0.00    +0.000 A 
ATOM     19  N   UNL     1       3.304   3.349  17.475  0.00  0.00    +0.000 N 
ATOM     20  C   UNL     1       2.756   4.073  18.507  0.00  0.00    +0.000 A 
ATOM     21  C   UNL     1       1.854   3.679  19.503  0.00  0.00    +0.000 A 
ATOM     22  C   UNL     1       1.458   4.643  20.434  0.00  0.00    +0.000 A 
ATOM     23  C   UNL     1       1.941   5.948  20.366  0.00  0.00    +0.000 A 
ATOM     24  C   UNL     1       2.845   6.322  19.365  0.00  0.00    +0.000 A 
ATOM     25  C   UNL     1       3.267   5.367  18.417  0.00  0.00    +0.000 A 
ATOM     26  H   UNL     1       3.105   2.377  17.287  0.00  0.00    +0.000 HD
ENDBRANCH  16  17
ENDBRANCH   1  16
TORSDOF 7
ENDMDL
