MODEL 1
REMARK VINA RESULT:      -7.0      0.000      0.000
REMARK  Name = 
REMARK  14 active torsions:
REMARK  status: ('A' for Active; 'I' for Inactive)
REMARK    1  A    between atoms: C_1  and  C_2
REMARK    2  A    between atoms: C_2  and  C_3
REMARK    3  A    between atoms: C_3  and  C_4
REMARK    4  A    between atoms: C_4  and  N_5
REMARK    5  A    between atoms: C_6  and  C_7
REMARK    6  A    between atoms: C_7  and  C_8
REMARK    7  A    between atoms: C_11  and  O_12
REMARK    8  A    between atoms: O_12  and  C_13
REMARK    9  A    between atoms: C_13  and  C_14
REMARK   10  A    between atoms: C_20  and  C_21
REMARK   11  A    between atoms: N_23  and  C_24
REMARK   12  A    between atoms: N_23  and  C_26
REMARK   13  A    between atoms: C_24  and  C_25
REMARK   14  A    between atoms: C_26  and  C_27
REMARK                            x       y       z     vdW  Elec       q    Type
REMARK                         _______ _______ _______ _____ _____    ______ ____
ROOT
ATOM      1  N   UNL     1       1.558   8.341  20.017  0.00  0.00    +0.000 N 
ATOM      2  C   UNL     1       1.487   9.468  19.227  0.00  0.00    +0.000 A 
ATOM      3  N   UNL     1       2.052   9.219  18.038  0.00  0.00    +0.000 NA
ATOM      4  C   UNL     1       2.609   7.958  18.116  0.00  0.00    +0.000 A 
ATOM      5  C   UNL     1       3.374   7.215  17.172  0.00  0.00    +0.000 A 
ATOM      6  C   UNL     1       3.942   5.986  17.565  0.00  0.00    +0.000 A 
ATOM      7  C   UNL     1       3.749   5.552  18.891  0.00  0.00    +0.000 A 
ATOM      8  C   UNL     1       2.950   6.234  19.808  0.00  0.00    +0.000 A 
ATOM      9  C   UNL     1       2.380   7.431  19.379  0.00  0.00    +0.000 A 
ENDROOT
BRANCH   6  10
ATOM     10  C   UNL     1       4.882   5.109  16.779  0.00  0.00    +0.000 C 
ATOM     11  O   UNL     1       4.366   4.075  16.332  0.00  0.00    +0.000 OA
ATOM     12  N   UNL     1       6.225   5.402  16.471  0.00  0.00    +0.000 N 
BRANCH  12  13
ATOM     13  C   UNL     1       7.011   6.511  17.023  0.00  0.00    +0.000 C 
ATOM     14  C   UNL     1       7.595   6.308  18.423  0.00  0.00    +0.000 C 
ENDBRANCH  12  13
BRANCH  12  15
ATOM     15  C   UNL     1       6.936   4.349  15.718  0.00  0.00    +0.000 C 
ATOM     16  C   UNL     1       6.969   4.596  14.211  0.00  0.00    +0.000 C 
ENDBRANCH  12  15
ENDBRANCH   6  10
BRANCH   1  17
ATOM     17  C   UNL     1       0.985   8.129  21.332  0.00  0.00    +0.000 C 
BRANCH  17  18
ATOM     18  C   UNL     1      -0.521   8.376  21.468  0.00  0.00    +0.000 C 
BRANCH  18  20
ATOM     19  C   UNL     1       0.238   9.545  23.559  0.00  0.00    +0.000 C 
ATOM     20  C   UNL     1      -0.875   9.418  22.530  0.00  0.00    +0.000 C 
ENDBRANCH  18  20
ENDBRANCH  17  18
ENDBRANCH   1  17
BRANCH   2  21
ATOM     21  C   UNL     1       0.968  10.815  19.695  0.00  0.00    +0.000 C 
BRANCH  21  22
ATOM     22  C   UNL     1      -0.446  11.212  19.297  0.00  0.00    +0.000 A 
ATOM     23  C   UNL     1      -1.173  12.203  19.961  0.00  0.00    +0.000 A 
ATOM     24  C   UNL     1      -2.529  12.398  19.684  0.00  0.00    +0.000 A 
ATOM     25  C   UNL     1      -3.184  11.644  18.710  0.00  0.00    +0.000 A 
ATOM     26  C   UNL     1      -2.453  10.720  17.970  0.00  0.00    +0.000 A 
ATOM     27  C   UNL     1      -1.095  10.506  18.263  0.00  0.00    +0.000 A 
BRANCH  25  28
ATOM     28  O   UNL     1      -4.533  11.849  18.647  0.00  0.00    +0.000 OA
BRANCH  28  29
ATOM     29  C   UNL     1      -5.321  10.885  17.954  0.00  0.00    +0.000 C 
ATOM     30  C   UNL     1      -6.519  10.546  18.828  0.00  0.00    +0.000 C 
ENDBRANCH  28  29
ENDBRANCH  25  28
ENDBRANCH  21  22
ENDBRANCH   2  21
TORSDOF 10
ENDMDL
MODEL 2
REMARK VINA RESULT:      -7.0      2.308      9.168
REMARK  Name = 
REMARK  14 active torsions:
REMARK  status: ('A' for Active; 'I' for Inactive)
REMARK    1  A    between atoms: C_1  and  C_2
REMARK    2  A    between atoms: C_2  and  C_3
REMARK    3  A    between atoms: C_3  and  C_4
REMARK    4  A    between atoms: C_4  and  N_5
REMARK    5  A    between atoms: C_6  and  C_7
REMARK    6  A    between atoms: C_7  and  C_8
REMARK    7  A    between atoms: C_11  and  O_12
REMARK    8  A    between atoms: O_12  and  C_13
REMARK    9  A    between atoms: C_13  and  C_14
REMARK   10  A    between atoms: C_20  and  C_21
REMARK   11  A    between atoms: N_23  and  C_24
REMARK   12  A    between atoms: N_23  and  C_26
REMARK   13  A    between atoms: C_24  and  C_25
REMARK   14  A    between atoms: C_26  and  C_27
REMARK                            x       y       z     vdW  Elec       q    Type
REMARK                         _______ _______ _______ _____ _____    ______ ____
ROOT
ATOM      1  N   UNL     1       2.049   6.514  19.984  0.00  0.00    +0.000 N 
ATOM      2  C   UNL     1       2.384   6.589  18.650  0.00  0.00    +0.000 A 
ATOM      3  N   UNL     1       2.290   7.859  18.234  0.00  0.00    +0.000 NA
ATOM      4  C   UNL     1       1.760   8.585  19.283  0.00  0.00    +0.000 A 
ATOM      5  C   UNL     1       1.398   9.959  19.378  0.00  0.00    +0.000 A 
ATOM      6  C   UNL     1       0.744  10.416  20.540  0.00  0.00    +0.000 A 
ATOM      7  C   UNL     1       0.452   9.486  21.556  0.00  0.00    +0.000 A 
ATOM      8  C   UNL     1       0.857   8.152  21.507  0.00  0.00    +0.000 A 
ATOM      9  C   UNL     1       1.526   7.738  20.356  0.00  0.00    +0.000 A 
ENDROOT
BRANCH   6  10
ATOM     10  C   UNL     1       0.164  11.783  20.797  0.00  0.00    +0.000 C 
ATOM     11  O   UNL     1       0.819  12.480  21.584  0.00  0.00    +0.000 OA
ATOM     12  N   UNL     1      -0.981  12.325  20.180  0.00  0.00    +0.000 N 
BRANCH  12  13
ATOM     13  C   UNL     1      -1.927  11.595  19.330  0.00  0.00    +0.000 C 
ATOM     14  C   UNL     1      -1.698  11.678  17.819  0.00  0.00    +0.000 C 
ENDBRANCH  12  13
BRANCH  12  15
ATOM     15  C   UNL     1      -1.357  13.676  20.642  0.00  0.00    +0.000 C 
ATOM     16  C   UNL     1      -0.829  14.795  19.748  0.00  0.00    +0.000 C 
ENDBRANCH  12  15
ENDBRANCH   6  10
BRANCH   1  17
ATOM     17  C   UNL     1       2.113   5.362  20.862  0.00  0.00    +0.000 C 
BRANCH  17  18
ATOM     18  C   UNL     1       1.078   4.259  20.616  0.00  0.00    +0.000 C 
BRANCH  18  20
ATOM     19  C   UNL     1       2.790   2.512  20.042  0.00  0.00    +0.000 C 
ATOM     20  C   UNL     1       1.598   2.855  20.923  0.00  0.00    +0.000 C 
ENDBRANCH  18  20
ENDBRANCH  17  18
ENDBRANCH   1  17
BRANCH   2  21
ATOM     21  C   UNL     1       2.681   5.389  17.769  0.00  0.00    +0.000 C 
BRANCH  21  22
ATOM     22  C   UNL     1       4.070   5.279  17.157  0.00  0.00    +0.000 A 
ATOM     23  C   UNL     1       4.933   6.369  17.032  0.00  0.00    +0.000 A 
ATOM     24  C   UNL     1       6.115   6.261  16.294  0.00  0.00    +0.000 A 
ATOM     25  C   UNL     1       6.488   5.056  15.698  0.00  0.00    +0.000 A 
ATOM     26  C   UNL     1       5.689   3.933  15.894  0.00  0.00    +0.000 A 
ATOM     27  C   UNL     1       4.489   4.045  16.617  0.00  0.00    +0.000 A 
BRANCH  25  28
ATOM     28  O   UNL     1       7.592   5.136  14.897  0.00  0.00    +0.000 OA
BRANCH  28  29
ATOM     29  C   UNL     1       7.434   4.833  13.514  0.00  0.00    +0.000 C 
ATOM     30  C   UNL     1       8.327   5.778  12.725  0.00  0.00    +0.000 C 
ENDBRANCH  28  29
ENDBRANCH  25  28
ENDBRANCH  21  22
ENDBRANCH   2  21
TORSDOF 10
ENDMDL
MODEL 3
REMARK VINA RESULT:      -6.9      0.972      1.419
REMARK  Name = 
REMARK  14 active torsions:
REMARK  status: ('A' for Active; 'I' for Inactive)
REMARK    1  A    between atoms: C_1  and  C_2
REMARK    2  A    between atoms: C_2  and  C_3
REMARK    3  A    between atoms: C_3  and  C_4
REMARK    4  A    between atoms: C_4  and  N_5
REMARK    5  A    between atoms: C_6  and  C_7
REMARK    6  A    between atoms: C_7  and  C_8
REMARK    7  A    between atoms: C_11  and  O_12
REMARK    8  A    between atoms: O_12  and  C_13
REMARK    9  A    between atoms: C_13  and  C_14
REMARK   10  A    between atoms: C_20  and  C_21
REMARK   11  A    between atoms: N_23  and  C_24
REMARK   12  A    between atoms: N_23  and  C_26
REMARK   13  A    between atoms: C_24  and  C_25
REMARK   14  A    between atoms: C_26  and  C_27
REMARK                            x       y       z     vdW  Elec       q    Type
REMARK                         _______ _______ _______ _____ _____    ______ ____
ROOT
ATOM      1  N   UNL     1       0.785   8.857  19.796  0.00  0.00    +0.000 N 
ATOM      2  C   UNL     1       0.797   9.849  18.840  0.00  0.00    +0.000 A 
ATOM      3  N   UNL     1       1.575   9.475  17.815  0.00  0.00    +0.000 NA
ATOM      4  C   UNL     1       2.173   8.285  18.180  0.00  0.00    +0.000 A 
ATOM      5  C   UNL     1       3.129   7.475  17.504  0.00  0.00    +0.000 A 
ATOM      6  C   UNL     1       3.681   6.363  18.173  0.00  0.00    +0.000 A 
ATOM      7  C   UNL     1       3.279   6.111  19.498  0.00  0.00    +0.000 A 
ATOM      8  C   UNL     1       2.297   6.854  20.152  0.00  0.00    +0.000 A 
ATOM      9  C   UNL     1       1.751   7.930  19.454  0.00  0.00    +0.000 A 
ENDROOT
BRANCH   6  10
ATOM     10  C   UNL     1       4.788   5.456  17.700  0.00  0.00    +0.000 C 
ATOM     11  O   UNL     1       4.503   4.251  17.709  0.00  0.00    +0.000 OA
ATOM     12  N   UNL     1       6.041   5.869  17.207  0.00  0.00    +0.000 N 
BRANCH  12  13
ATOM     13  C   UNL     1       6.574   7.235  17.247  0.00  0.00    +0.000 C 
ATOM     14  C   UNL     1       7.874   7.440  18.029  0.00  0.00    +0.000 C 
ENDBRANCH  12  13
BRANCH  12  15
ATOM     15  C   UNL     1       6.961   4.771  16.846  0.00  0.00    +0.000 C 
ATOM     16  C   UNL     1       7.047   4.518  15.343  0.00  0.00    +0.000 C 
ENDBRANCH  12  15
ENDBRANCH   6  10
BRANCH   1  17
ATOM     17  C   UNL     1      -0.000   8.793  21.014  0.00  0.00    +0.000 C 
BRANCH  17  18
ATOM     18  C   UNL     1       0.563   9.539  22.228  0.00  0.00    +0.000 C 
BRANCH  18  20
ATOM     19  C   UNL     1      -1.352  10.858  23.182  0.00  0.00    +0.000 C 
ATOM     20  C   UNL     1      -0.037  10.932  22.420  0.00  0.00    +0.000 C 
ENDBRANCH  18  20
ENDBRANCH  17  18
ENDBRANCH   1  17
BRANCH   2  21
ATOM     21  C   UNL     1       0.135  11.205  19.000  0.00  0.00    +0.000 C 
BRANCH  21  22
ATOM     22  C   UNL     1      -1.382  11.276  18.899  0.00  0.00    +0.000 A 
ATOM     23  C   UNL     1      -2.116  10.541  17.966  0.00  0.00    +0.000 A 
ATOM     24  C   UNL     1      -3.480  10.782  17.784  0.00  0.00    +0.000 A 
ATOM     25  C   UNL     1      -4.157  11.728  18.555  0.00  0.00    +0.000 A 
ATOM     26  C   UNL     1      -3.463  12.399  19.557  0.00  0.00    +0.000 A 
ATOM     27  C   UNL     1      -2.087  12.175  19.727  0.00  0.00    +0.000 A 
BRANCH  25  28
ATOM     28  O   UNL     1      -5.450  11.952  18.174  0.00  0.00    +0.000 OA
BRANCH  28  29
ATOM     29  C   UNL     1      -6.387  10.893  18.346  0.00  0.00    +0.000 C 
ATOM     30  C   UNL     1      -6.955  10.996  19.753  0.00  0.00    +0.000 C 
ENDBRANCH  28  29
ENDBRANCH  25  28
ENDBRANCH  21  22
ENDBRANCH   2  21
TORSDOF 10
ENDMDL
MODEL 4
REMARK VINA RESULT:      -6.8      3.242      4.667
REMARK  Name = 
REMARK  14 active torsions:
REMARK  status: ('A' for Active; 'I' for Inactive)
REMARK    1  A    between atoms: C_1  and  C_2
REMARK    2  A    between atoms: C_2  and  C_3
REMARK    3  A    between atoms: C_3  and  C_4
REMARK    4  A    between atoms: C_4  and  N_5
REMARK    5  A    between atoms: C_6  and  C_7
REMARK    6  A    between atoms: C_7  and  C_8
REMARK    7  A    between atoms: C_11  and  O_12
REMARK    8  A    between atoms: O_12  and  C_13
REMARK    9  A    between atoms: C_13  and  C_14
REMARK   10  A    between atoms: C_20  and  C_21
REMARK   11  A    between atoms: N_23  and  C_24
REMARK   12  A    between atoms: N_23  and  C_26
REMARK   13  A    between atoms: C_24  and  C_25
REMARK   14  A    between atoms: C_26  and  C_27
REMARK                            x       y       z     vdW  Elec       q    Type
REMARK                         _______ _______ _______ _____ _____    ______ ____
ROOT
ATOM      1  N   UNL     1       1.014   9.277  19.606  0.00  0.00    +0.000 N 
ATOM      2  C   UNL     1       1.178  10.312  18.712  0.00  0.00    +0.000 A 
ATOM      3  N   UNL     1       1.915   9.895  17.673  0.00  0.00    +0.000 NA
ATOM      4  C   UNL     1       2.337   8.614  17.971  0.00  0.00    +0.000 A 
ATOM      5  C   UNL     1       3.184   7.721  17.255  0.00  0.00    +0.000 A 
ATOM      6  C   UNL     1       3.567   6.507  17.861  0.00  0.00    +0.000 A 
ATOM      7  C   UNL     1       3.112   6.235  19.165  0.00  0.00    +0.000 A 
ATOM      8  C   UNL     1       2.231   7.068  19.854  0.00  0.00    +0.000 A 
ATOM      9  C   UNL     1       1.850   8.247  19.217  0.00  0.00    +0.000 A 
ENDROOT
BRANCH   6  10
ATOM     10  C   UNL     1       4.547   5.485  17.344  0.00  0.00    +0.000 C 
ATOM     11  O   UNL     1       4.055   4.371  17.117  0.00  0.00    +0.000 OA
ATOM     12  N   UNL     1       5.905   5.716  17.049  0.00  0.00    +0.000 N 
BRANCH  12  13
ATOM     13  C   UNL     1       6.661   6.930  17.376  0.00  0.00    +0.000 C 
ATOM     14  C   UNL     1       7.800   6.777  18.386  0.00  0.00    +0.000 C 
ENDBRANCH  12  13
BRANCH  12  15
ATOM     15  C   UNL     1       6.654   4.528  16.592  0.00  0.00    +0.000 C 
ATOM     16  C   UNL     1       6.964   4.543  15.097  0.00  0.00    +0.000 C 
ENDBRANCH  12  15
ENDBRANCH   6  10
BRANCH   1  17
ATOM     17  C   UNL     1       0.207   9.251  20.811  0.00  0.00    +0.000 C 
BRANCH  17  18
ATOM     18  C   UNL     1       0.965   9.311  22.141  0.00  0.00    +0.000 C 
BRANCH  18  20
ATOM     19  C   UNL     1      -0.972  10.611  23.074  0.00  0.00    +0.000 C 
ATOM     20  C   UNL     1       0.057   9.525  23.352  0.00  0.00    +0.000 C 
ENDBRANCH  18  20
ENDBRANCH  17  18
ENDBRANCH   1  17
BRANCH   2  21
ATOM     21  C   UNL     1       0.706  11.735  18.947  0.00  0.00    +0.000 C 
BRANCH  21  22
ATOM     22  C   UNL     1       1.757  12.797  19.239  0.00  0.00    +0.000 A 
ATOM     23  C   UNL     1       2.474  13.451  18.235  0.00  0.00    +0.000 A 
ATOM     24  C   UNL     1       3.558  14.273  18.555  0.00  0.00    +0.000 A 
ATOM     25  C   UNL     1       3.927  14.500  19.881  0.00  0.00    +0.000 A 
ATOM     26  C   UNL     1       3.164  13.935  20.898  0.00  0.00    +0.000 A 
ATOM     27  C   UNL     1       2.088  13.089  20.578  0.00  0.00    +0.000 A 
BRANCH  25  28
ATOM     28  O   UNL     1       5.084  15.210  20.035  0.00  0.00    +0.000 OA
BRANCH  28  29
ATOM     29  C   UNL     1       5.207  16.442  19.329  0.00  0.00    +0.000 C 
ATOM     30  C   UNL     1       4.866  17.568  20.292  0.00  0.00    +0.000 C 
ENDBRANCH  28  29
ENDBRANCH  25  28
ENDBRANCH  21  22
ENDBRANCH   2  21
TORSDOF 10
ENDMDL
MODEL 5
REMARK VINA RESULT:      -6.8      1.955      3.501
REMARK  Name = 
REMARK  14 active torsions:
REMARK  status: ('A' for Active; 'I' for Inactive)
REMARK    1  A    between atoms: C_1  and  C_2
REMARK    2  A    between atoms: C_2  and  C_3
REMARK    3  A    between atoms: C_3  and  C_4
REMARK    4  A    between atoms: C_4  and  N_5
REMARK    5  A    between atoms: C_6  and  C_7
REMARK    6  A    between atoms: C_7  and  C_8
REMARK    7  A    between atoms: C_11  and  O_12
REMARK    8  A    between atoms: O_12  and  C_13
REMARK    9  A    between atoms: C_13  and  C_14
REMARK   10  A    between atoms: C_20  and  C_21
REMARK   11  A    between atoms: N_23  and  C_24
REMARK   12  A    between atoms: N_23  and  C_26
REMARK   13  A    between atoms: C_24  and  C_25
REMARK   14  A    between atoms: C_26  and  C_27
REMARK                            x       y       z     vdW  Elec       q    Type
REMARK                         _______ _______ _______ _____ _____    ______ ____
ROOT
ATOM      1  N   UNL     1       2.452   6.013  18.962  0.00  0.00    +0.000 N 
ATOM      2  C   UNL     1       2.477   7.390  19.011  0.00  0.00    +0.000 A 
ATOM      3  N   UNL     1       3.266   7.859  18.035  0.00  0.00    +0.000 NA
ATOM      4  C   UNL     1       3.857   6.763  17.438  0.00  0.00    +0.000 A 
ATOM      5  C   UNL     1       4.820   6.677  16.392  0.00  0.00    +0.000 A 
ATOM      6  C   UNL     1       5.362   5.418  16.062  0.00  0.00    +0.000 A 
ATOM      7  C   UNL     1       4.945   4.294  16.799  0.00  0.00    +0.000 A 
ATOM      8  C   UNL     1       3.956   4.350  17.782  0.00  0.00    +0.000 A 
ATOM      9  C   UNL     1       3.421   5.605  18.065  0.00  0.00    +0.000 A 
ENDROOT
BRANCH   6  10
ATOM     10  C   UNL     1       6.473   5.116  15.089  0.00  0.00    +0.000 C 
ATOM     11  O   UNL     1       7.594   5.492  15.457  0.00  0.00    +0.000 OA
ATOM     12  N   UNL     1       6.342   4.409  13.878  0.00  0.00    +0.000 N 
BRANCH  12  13
ATOM     13  C   UNL     1       5.079   4.011  13.246  0.00  0.00    +0.000 C 
ATOM     14  C   UNL     1       5.185   3.157  11.980  0.00  0.00    +0.000 C 
ENDBRANCH  12  13
BRANCH  12  15
ATOM     15  C   UNL     1       7.585   4.285  13.090  0.00  0.00    +0.000 C 
ATOM     16  C   UNL     1       7.888   5.513  12.235  0.00  0.00    +0.000 C 
ENDBRANCH  12  15
ENDBRANCH   6  10
BRANCH   1  17
ATOM     17  C   UNL     1       1.653   5.102  19.758  0.00  0.00    +0.000 C 
BRANCH  17  18
ATOM     18  C   UNL     1       2.267   4.634  21.082  0.00  0.00    +0.000 C 
BRANCH  18  20
ATOM     19  C   UNL     1       1.678   2.360  20.187  0.00  0.00    +0.000 C 
ATOM     20  C   UNL     1       1.914   3.189  21.440  0.00  0.00    +0.000 C 
ENDBRANCH  18  20
ENDBRANCH  17  18
ENDBRANCH   1  17
BRANCH   2  21
ATOM     21  C   UNL     1       1.815   8.225  20.092  0.00  0.00    +0.000 C 
BRANCH  21  22
ATOM     22  C   UNL     1       0.798   9.272  19.663  0.00  0.00    +0.000 A 
ATOM     23  C   UNL     1       0.158  10.124  20.565  0.00  0.00    +0.000 A 
ATOM     24  C   UNL     1      -0.903  10.933  20.151  0.00  0.00    +0.000 A 
ATOM     25  C   UNL     1      -1.325  10.948  18.821  0.00  0.00    +0.000 A 
ATOM     26  C   UNL     1      -0.636  10.179  17.888  0.00  0.00    +0.000 A 
ATOM     27  C   UNL     1       0.416   9.348  18.307  0.00  0.00    +0.000 A 
BRANCH  25  28
ATOM     28  O   UNL     1      -2.456  11.679  18.592  0.00  0.00    +0.000 OA
BRANCH  28  29
ATOM     29  C   UNL     1      -3.200  11.403  17.409  0.00  0.00    +0.000 C 
ATOM     30  C   UNL     1      -4.672  11.632  17.719  0.00  0.00    +0.000 C 
ENDBRANCH  28  29
ENDBRANCH  25  28
ENDBRANCH  21  22
ENDBRANCH   2  21
TORSDOF 10
ENDMDL
MODEL 6
REMARK VINA RESULT:      -6.8      2.222      4.130
REMARK  Name = 
REMARK  14 active torsions:
REMARK  status: ('A' for Active; 'I' for Inactive)
REMARK    1  A    between atoms: C_1  and  C_2
REMARK    2  A    between atoms: C_2  and  C_3
REMARK    3  A    between atoms: C_3  and  C_4
REMARK    4  A    between atoms: C_4  and  N_5
REMARK    5  A    between atoms: C_6  and  C_7
REMARK    6  A    between atoms: C_7  and  C_8
REMARK    7  A    between atoms: C_11  and  O_12
REMARK    8  A    between atoms: O_12  and  C_13
REMARK    9  A    between atoms: C_13  and  C_14
REMARK   10  A    between atoms: C_20  and  C_21
REMARK   11  A    between atoms: N_23  and  C_24
REMARK   12  A    between atoms: N_23  and  C_26
REMARK   13  A    between atoms: C_24  and  C_25
REMARK   14  A    between atoms: C_26  and  C_27
REMARK                            x       y       z     vdW  Elec       q    Type
REMARK                         _______ _______ _______ _____ _____    ______ ____
ROOT
ATOM      1  N   UNL     1       3.191   5.454  19.058  0.00  0.00    +0.000 N 
ATOM      2  C   UNL     1       2.978   6.815  19.034  0.00  0.00    +0.000 A 
ATOM      3  N   UNL     1       3.506   7.332  17.916  0.00  0.00    +0.000 NA
ATOM      4  C   UNL     1       4.181   6.307  17.282  0.00  0.00    +0.000 A 
ATOM      5  C   UNL     1       4.966   6.301  16.094  0.00  0.00    +0.000 A 
ATOM      6  C   UNL     1       5.664   5.129  15.739  0.00  0.00    +0.000 A 
ATOM      7  C   UNL     1       5.575   4.012  16.592  0.00  0.00    +0.000 A 
ATOM      8  C   UNL     1       4.760   3.979  17.723  0.00  0.00    +0.000 A 
ATOM      9  C   UNL     1       4.062   5.145  18.031  0.00  0.00    +0.000 A 
ENDROOT
BRANCH   6  10
ATOM     10  C   UNL     1       6.642   4.942  14.608  0.00  0.00    +0.000 C 
ATOM     11  O   UNL     1       7.774   5.395  14.828  0.00  0.00    +0.000 OA
ATOM     12  N   UNL     1       6.391   4.258  13.403  0.00  0.00    +0.000 N 
BRANCH  12  13
ATOM     13  C   UNL     1       5.084   3.779  12.941  0.00  0.00    +0.000 C 
ATOM     14  C   UNL     1       5.080   2.887  11.697  0.00  0.00    +0.000 C 
ENDBRANCH  12  13
BRANCH  12  15
ATOM     15  C   UNL     1       7.514   4.255  12.443  0.00  0.00    +0.000 C 
ATOM     16  C   UNL     1       7.576   5.509  11.574  0.00  0.00    +0.000 C 
ENDBRANCH  12  15
ENDBRANCH   6  10
BRANCH   1  17
ATOM     17  C   UNL     1       2.702   4.487  20.022  0.00  0.00    +0.000 C 
BRANCH  17  18
ATOM     18  C   UNL     1       1.184   4.295  20.087  0.00  0.00    +0.000 C 
BRANCH  18  20
ATOM     19  C   UNL     1       1.505   2.303  18.588  0.00  0.00    +0.000 C 
ATOM     20  C   UNL     1       0.736   2.867  19.774  0.00  0.00    +0.000 C 
ENDBRANCH  18  20
ENDBRANCH  17  18
ENDBRANCH   1  17
BRANCH   2  21
ATOM     21  C   UNL     1       2.358   7.610  20.169  0.00  0.00    +0.000 C 
BRANCH  21  22
ATOM     22  C   UNL     1       1.257   8.602  19.827  0.00  0.00    +0.000 A 
ATOM     23  C   UNL     1       1.092   9.144  18.550  0.00  0.00    +0.000 A 
ATOM     24  C   UNL     1       0.193  10.191  18.332  0.00  0.00    +0.000 A 
ATOM     25  C   UNL     1      -0.596  10.696  19.366  0.00  0.00    +0.000 A 
ATOM     26  C   UNL     1      -0.516  10.103  20.623  0.00  0.00    +0.000 A 
ATOM     27  C   UNL     1       0.404   9.066  20.850  0.00  0.00    +0.000 A 
BRANCH  25  28
ATOM     28  O   UNL     1      -1.323  11.804  19.037  0.00  0.00    +0.000 OA
BRANCH  28  29
ATOM     29  C   UNL     1      -1.909  11.854  17.739  0.00  0.00    +0.000 C 
ATOM     30  C   UNL     1      -3.372  11.458  17.872  0.00  0.00    +0.000 C 
ENDBRANCH  28  29
ENDBRANCH  25  28
ENDBRANCH  21  22
ENDBRANCH   2  21
TORSDOF 10
ENDMDL
MODEL 7
REMARK VINA RESULT:      -6.7      2.490      4.298
REMARK  Name = 
REMARK  14 active torsions:
REMARK  status: ('A' for Active; 'I' for Inactive)
REMARK    1  A    between atoms: C_1  and  C_2
REMARK    2  A    between atoms: C_2  and  C_3
REMARK    3  A    between atoms: C_3  and  C_4
REMARK    4  A    between atoms: C_4  and  N_5
REMARK    5  A    between atoms: C_6  and  C_7
REMARK    6  A    between atoms: C_7  and  C_8
REMARK    7  A    between atoms: C_11  and  O_12
REMARK    8  A    between atoms: O_12  and  C_13
REMARK    9  A    between atoms: C_13  and  C_14
REMARK   10  A    between atoms: C_20  and  C_21
REMARK   11  A    between atoms: N_23  and  C_24
REMARK   12  A    between atoms: N_23  and  C_26
REMARK   13  A    between atoms: C_24  and  C_25
REMARK   14  A    between atoms: C_26  and  C_27
REMARK                            x       y       z     vdW  Elec       q    Type
REMARK                         _______ _______ _______ _____ _____    ______ ____
ROOT
ATOM      1  N   UNL     1       2.376   5.645  18.822  0.00  0.00    +0.000 N 
ATOM      2  C   UNL     1       2.511   6.988  19.097  0.00  0.00    +0.000 A 
ATOM      3  N   UNL     1       3.373   7.539  18.232  0.00  0.00    +0.000 NA
ATOM      4  C   UNL     1       3.896   6.508  17.477  0.00  0.00    +0.000 A 
ATOM      5  C   UNL     1       4.887   6.509  16.455  0.00  0.00    +0.000 A 
ATOM      6  C   UNL     1       5.337   5.279  15.935  0.00  0.00    +0.000 A 
ATOM      7  C   UNL     1       4.801   4.090  16.466  0.00  0.00    +0.000 A 
ATOM      8  C   UNL     1       3.784   4.072  17.420  0.00  0.00    +0.000 A 
ATOM      9  C   UNL     1       3.342   5.306  17.893  0.00  0.00    +0.000 A 
ENDROOT
BRANCH   6  10
ATOM     10  C   UNL     1       6.456   5.044  14.953  0.00  0.00    +0.000 C 
ATOM     11  O   UNL     1       7.565   5.443  15.333  0.00  0.00    +0.000 OA
ATOM     12  N   UNL     1       6.347   4.371  13.720  0.00  0.00    +0.000 N 
BRANCH  12  13
ATOM     13  C   UNL     1       5.097   3.952  13.076  0.00  0.00    +0.000 C 
ATOM     14  C   UNL     1       5.226   3.021  11.869  0.00  0.00    +0.000 C 
ENDBRANCH  12  13
BRANCH  12  15
ATOM     15  C   UNL     1       7.592   4.313  12.929  0.00  0.00    +0.000 C 
ATOM     16  C   UNL     1       7.849   5.571  12.104  0.00  0.00    +0.000 C 
ENDBRANCH  12  15
ENDBRANCH   6  10
BRANCH   1  17
ATOM     17  C   UNL     1       1.475   4.689  19.436  0.00  0.00    +0.000 C 
BRANCH  17  18
ATOM     18  C   UNL     1       1.930   4.080  20.766  0.00  0.00    +0.000 C 
BRANCH  18  20
ATOM     19  C   UNL     1       1.628   1.942  19.481  0.00  0.00    +0.000 C 
ATOM     20  C   UNL     1       1.684   2.574  20.864  0.00  0.00    +0.000 C 
ENDBRANCH  18  20
ENDBRANCH  17  18
ENDBRANCH   1  17
BRANCH   2  21
ATOM     21  C   UNL     1       1.879   7.690  20.285  0.00  0.00    +0.000 C 
BRANCH  21  22
ATOM     22  C   UNL     1       1.033   8.926  20.016  0.00  0.00    +0.000 A 
ATOM     23  C   UNL     1       1.074   9.626  18.809  0.00  0.00    +0.000 A 
ATOM     24  C   UNL     1       0.427  10.858  18.677  0.00  0.00    +0.000 A 
ATOM     25  C   UNL     1      -0.310  11.404  19.729  0.00  0.00    +0.000 A 
ATOM     26  C   UNL     1      -0.443  10.675  20.906  0.00  0.00    +0.000 A 
ATOM     27  C   UNL     1       0.224   9.446  21.048  0.00  0.00    +0.000 A 
BRANCH  25  28
ATOM     28  O   UNL     1      -0.769  12.671  19.503  0.00  0.00    +0.000 OA
BRANCH  28  29
ATOM     29  C   UNL     1       0.099  13.757  19.813  0.00  0.00    +0.000 C 
ATOM     30  C   UNL     1      -0.179  14.875  18.820  0.00  0.00    +0.000 C 
ENDBRANCH  28  29
ENDBRANCH  25  28
ENDBRANCH  21  22
ENDBRANCH   2  21
TORSDOF 10
ENDMDL
MODEL 8
REMARK VINA RESULT:      -6.7      2.339      4.153
REMARK  Name = 
REMARK  14 active torsions:
REMARK  status: ('A' for Active; 'I' for Inactive)
REMARK    1  A    between atoms: C_1  and  C_2
REMARK    2  A    between atoms: C_2  and  C_3
REMARK    3  A    between atoms: C_3  and  C_4
REMARK    4  A    between atoms: C_4  and  N_5
REMARK    5  A    between atoms: C_6  and  C_7
REMARK    6  A    between atoms: C_7  and  C_8
REMARK    7  A    between atoms: C_11  and  O_12
REMARK    8  A    between atoms: O_12  and  C_13
REMARK    9  A    between atoms: C_13  and  C_14
REMARK   10  A    between atoms: C_20  and  C_21
REMARK   11  A    between atoms: N_23  and  C_24
REMARK   12  A    between atoms: N_23  and  C_26
REMARK   13  A    between atoms: C_24  and  C_25
REMARK   14  A    between atoms: C_26  and  C_27
REMARK                            x       y       z     vdW  Elec       q    Type
REMARK                         _______ _______ _______ _____ _____    ______ ____
ROOT
ATOM      1  N   UNL     1       3.308   5.251  18.804  0.00  0.00    +0.000 N 
ATOM      2  C   UNL     1       3.075   6.609  18.826  0.00  0.00    +0.000 A 
ATOM      3  N   UNL     1       3.589   7.170  17.722  0.00  0.00    +0.000 NA
ATOM      4  C   UNL     1       4.274   6.176  17.051  0.00  0.00    +0.000 A 
ATOM      5  C   UNL     1       5.050   6.221  15.857  0.00  0.00    +0.000 A 
ATOM      6  C   UNL     1       5.762   5.071  15.460  0.00  0.00    +0.000 A 
ATOM      7  C   UNL     1       5.695   3.925  16.276  0.00  0.00    +0.000 A 
ATOM      8  C   UNL     1       4.889   3.844  17.411  0.00  0.00    +0.000 A 
ATOM      9  C   UNL     1       4.177   4.989  17.761  0.00  0.00    +0.000 A 
ENDROOT
BRANCH   6  10
ATOM     10  C   UNL     1       6.736   4.936  14.317  0.00  0.00    +0.000 C 
ATOM     11  O   UNL     1       7.832   5.479  14.509  0.00  0.00    +0.000 OA
ATOM     12  N   UNL     1       6.520   4.209  13.130  0.00  0.00    +0.000 N 
BRANCH  12  13
ATOM     13  C   UNL     1       5.247   3.621  12.700  0.00  0.00    +0.000 C 
ATOM     14  C   UNL     1       5.322   2.538  11.621  0.00  0.00    +0.000 C 
ENDBRANCH  12  13
BRANCH  12  15
ATOM     15  C   UNL     1       7.625   4.272  12.152  0.00  0.00    +0.000 C 
ATOM     16  C   UNL     1       7.608   5.533  11.293  0.00  0.00    +0.000 C 
ENDBRANCH  12  15
ENDBRANCH   6  10
BRANCH   1  17
ATOM     17  C   UNL     1       2.840   4.246  19.739  0.00  0.00    +0.000 C 
BRANCH  17  18
ATOM     18  C   UNL     1       1.595   3.456  19.325  0.00  0.00    +0.000 C 
BRANCH  18  20
ATOM     19  C   UNL     1       1.588   2.619  21.694  0.00  0.00    +0.000 C 
ATOM     20  C   UNL     1       0.727   3.023  20.507  0.00  0.00    +0.000 C 
ENDBRANCH  18  20
ENDBRANCH  17  18
ENDBRANCH   1  17
BRANCH   2  21
ATOM     21  C   UNL     1       2.452   7.357  19.990  0.00  0.00    +0.000 C 
BRANCH  21  22
ATOM     22  C   UNL     1       1.496   8.498  19.676  0.00  0.00    +0.000 A 
ATOM     23  C   UNL     1       0.624   9.040  20.622  0.00  0.00    +0.000 A 
ATOM     24  C   UNL     1      -0.365   9.950  20.240  0.00  0.00    +0.000 A 
ATOM     25  C   UNL     1      -0.483  10.377  18.916  0.00  0.00    +0.000 A 
ATOM     26  C   UNL     1       0.439   9.923  17.979  0.00  0.00    +0.000 A 
ATOM     27  C   UNL     1       1.420   8.990  18.356  0.00  0.00    +0.000 A 
BRANCH  25  28
ATOM     28  O   UNL     1      -1.576  11.157  18.667  0.00  0.00    +0.000 OA
BRANCH  28  29
ATOM     29  C   UNL     1      -2.705  10.544  18.052  0.00  0.00    +0.000 C 
ATOM     30  C   UNL     1      -2.920  11.209  16.701  0.00  0.00    +0.000 C 
ENDBRANCH  28  29
ENDBRANCH  25  28
ENDBRANCH  21  22
ENDBRANCH   2  21
TORSDOF 10
ENDMDL
MODEL 9
REMARK VINA RESULT:      -6.7      2.727      8.979
REMARK  Name = 
REMARK  14 active torsions:
REMARK  status: ('A' for Active; 'I' for Inactive)
REMARK    1  A    between atoms: C_1  and  C_2
REMARK    2  A    between atoms: C_2  and  C_3
REMARK    3  A    between atoms: C_3  and  C_4
REMARK    4  A    between atoms: C_4  and  N_5
REMARK    5  A    between atoms: C_6  and  C_7
REMARK    6  A    between atoms: C_7  and  C_8
REMARK    7  A    between atoms: C_11  and  O_12
REMARK    8  A    between atoms: O_12  and  C_13
REMARK    9  A    between atoms: C_13  and  C_14
REMARK   10  A    between atoms: C_20  and  C_21
REMARK   11  A    between atoms: N_23  and  C_24
REMARK   12  A    between atoms: N_23  and  C_26
REMARK   13  A    between atoms: C_24  and  C_25
REMARK   14  A    between atoms: C_26  and  C_27
REMARK                            x       y       z     vdW  Elec       q    Type
REMARK                         _______ _______ _______ _____ _____    ______ ____
ROOT
ATOM      1  N   UNL     1       2.477   6.474  19.583  0.00  0.00    +0.000 N 
ATOM      2  C   UNL     1       3.121   6.267  18.383  0.00  0.00    +0.000 A 
ATOM      3  N   UNL     1       3.118   7.402  17.671  0.00  0.00    +0.000 NA
ATOM      4  C   UNL     1       2.346   8.310  18.369  0.00  0.00    +0.000 A 
ATOM      5  C   UNL     1       1.961   9.644  18.053  0.00  0.00    +0.000 A 
ATOM      6  C   UNL     1       1.043  10.308  18.892  0.00  0.00    +0.000 A 
ATOM      7  C   UNL     1       0.524   9.614  20.002  0.00  0.00    +0.000 A 
ATOM      8  C   UNL     1       0.940   8.332  20.362  0.00  0.00    +0.000 A 
ATOM      9  C   UNL     1       1.869   7.714  19.527  0.00  0.00    +0.000 A 
ENDROOT
BRANCH   6  10
ATOM     10  C   UNL     1       0.407  11.659  18.681  0.00  0.00    +0.000 C 
ATOM     11  O   UNL     1      -0.758  11.617  18.261  0.00  0.00    +0.000 OA
ATOM     12  N   UNL     1       0.993  12.904  18.978  0.00  0.00    +0.000 N 
BRANCH  12  13
ATOM     13  C   UNL     1       2.392  13.128  19.358  0.00  0.00    +0.000 C 
ATOM     14  C   UNL     1       2.652  13.535  20.810  0.00  0.00    +0.000 C 
ENDBRANCH  12  13
BRANCH  12  15
ATOM     15  C   UNL     1       0.166  14.079  18.637  0.00  0.00    +0.000 C 
ATOM     16  C   UNL     1      -0.661  14.603  19.808  0.00  0.00    +0.000 C 
ENDBRANCH  12  15
ENDBRANCH   6  10
BRANCH   1  17
ATOM     17  C   UNL     1       2.337   5.555  20.696  0.00  0.00    +0.000 C 
BRANCH  17  18
ATOM     18  C   UNL     1       1.163   4.573  20.628  0.00  0.00    +0.000 C 
BRANCH  18  20
ATOM     19  C   UNL     1       2.479   2.695  21.657  0.00  0.00    +0.000 C 
ATOM     20  C   UNL     1       1.596   3.113  20.490  0.00  0.00    +0.000 C 
ENDBRANCH  18  20
ENDBRANCH  17  18
ENDBRANCH   1  17
BRANCH   2  21
ATOM     21  C   UNL     1       3.630   4.921  17.900  0.00  0.00    +0.000 C 
BRANCH  21  22
ATOM     22  C   UNL     1       4.824   4.906  16.957  0.00  0.00    +0.000 A 
ATOM     23  C   UNL     1       6.072   5.429  17.303  0.00  0.00    +0.000 A 
ATOM     24  C   UNL     1       7.077   5.566  16.343  0.00  0.00    +0.000 A 
ATOM     25  C   UNL     1       6.882   5.148  15.026  0.00  0.00    +0.000 A 
ATOM     26  C   UNL     1       5.680   4.536  14.686  0.00  0.00    +0.000 A 
ATOM     27  C   UNL     1       4.659   4.417  15.644  0.00  0.00    +0.000 A 
BRANCH  25  28
ATOM     28  O   UNL     1       7.899   5.470  14.172  0.00  0.00    +0.000 OA
BRANCH  28  29
ATOM     29  C   UNL     1       7.803   5.021  12.824  0.00  0.00    +0.000 C 
ATOM     30  C   UNL     1       8.167   6.185  11.916  0.00  0.00    +0.000 C 
ENDBRANCH  28  29
ENDBRANCH  25  28
ENDBRANCH  21  22
ENDBRANCH   2  21
TORSDOF 10
ENDMDL
