MODEL 1
REMARK VINA RESULT:      -7.0      0.000      0.000
REMARK  Name = 
REMARK  8 active torsions:
REMARK  status: ('A' for Active; 'I' for Inactive)
REMARK    1  A    between atoms: C_1  and  O_2
REMARK    2  A    between atoms: O_2  and  C_3
REMARK    3  A    between atoms: C_10  and  C_11
REMARK    4  A    between atoms: C_11  and  C_12
REMARK    5  A    between atoms: C_12  and  N_13
REMARK    6  A    between atoms: C_14  and  C_16
REMARK    7  A    between atoms: C_16  and  C_17
REMARK    8  A    between atoms: C_17  and  C_18
REMARK                            x       y       z     vdW  Elec       q    Type
REMARK                         _______ _______ _______ _____ _____    ______ ____
ROOT
ATOM      1  C   UNL     1       2.653   3.620  19.573  0.00  0.00    +0.000 A 
ATOM      2  C   UNL     1       1.578   4.341  19.070  0.00  0.00    +0.000 A 
ATOM      3  C   UNL     1       1.804   5.486  18.309  0.00  0.00    +0.000 A 
ATOM      4  C   UNL     1       3.106   5.934  18.044  0.00  0.00    +0.000 A 
ATOM      5  C   UNL     1       3.285   7.110  17.305  0.00  0.00    +0.000 A 
ATOM      6  C   UNL     1       4.558   7.592  17.027  0.00  0.00    +0.000 A 
ATOM      7  C   UNL     1       5.670   6.893  17.477  0.00  0.00    +0.000 A 
ATOM      8  C   UNL     1       5.532   5.704  18.221  0.00  0.00    +0.000 A 
ATOM      9  C   UNL     1       4.229   5.208  18.524  0.00  0.00    +0.000 A 
ATOM     10  C   UNL     1       3.961   4.044  19.287  0.00  0.00    +0.000 A 
ENDROOT
BRANCH   1  12
ATOM     11  C   UNL     1       2.443   2.699  21.753  0.00  0.00    +0.000 C 
ATOM     12  O   UNL     1       2.560   2.495  20.348  0.00  0.00    +0.000 OA
ENDBRANCH   1  12
BRANCH   8  13
ATOM     13  C   UNL     1       6.818   5.012  18.636  0.00  0.00    +0.000 C 
BRANCH  13  14
ATOM     14  C   UNL     1       7.654   4.581  17.422  0.00  0.00    +0.000 C 
BRANCH  14  15
ATOM     15  N   UNL     1       6.866   3.970  16.362  0.00  0.00    +0.000 N 
ATOM     16  C   UNL     1       6.894   4.456  15.075  0.00  0.00    +0.000 C 
ATOM     17  O   UNL     1       7.603   5.393  14.720  0.00  0.00    +0.000 OA
ATOM     18  H   UNL     1       6.123   3.336  16.628  0.00  0.00    +0.000 HD
BRANCH  16  19
ATOM     19  C   UNL     1       5.964   3.737  14.117  0.00  0.00    +0.000 C 
BRANCH  19  20
ATOM     20  C   UNL     1       6.483   3.804  12.678  0.00  0.00    +0.000 C 
BRANCH  20  21
ATOM     21  C   UNL     1       5.862   2.766  11.744  0.00  0.00    +0.000 C 
ATOM     22 CL   UNL     1       4.162   3.142  11.376  0.00  0.00    +0.000 Cl
ENDBRANCH  20  21
ENDBRANCH  19  20
ENDBRANCH  16  19
ENDBRANCH  14  15
ENDBRANCH  13  14
ENDBRANCH   8  13
TORSDOF 7
ENDMDL
MODEL 2
REMARK VINA RESULT:      -6.9      4.380      6.521
REMARK  Name = 
REMARK  8 active torsions:
REMARK  status: ('A' for Active; 'I' for Inactive)
REMARK    1  A    between atoms: C_1  and  O_2
REMARK    2  A    between atoms: O_2  and  C_3
REMARK    3  A    between atoms: C_10  and  C_11
REMARK    4  A    between atoms: C_11  and  C_12
REMARK    5  A    between atoms: C_12  and  N_13
REMARK    6  A    between atoms: C_14  and  C_16
REMARK    7  A    between atoms: C_16  and  C_17
REMARK    8  A    between atoms: C_17  and  C_18
REMARK                            x       y       z     vdW  Elec       q    Type
REMARK                         _______ _______ _______ _____ _____    ______ ____
ROOT
ATOM      1  C   UNL     1       2.029   3.221  19.259  0.00  0.00    +0.000 A 
ATOM      2  C   UNL     1       2.985   2.422  18.645  0.00  0.00    +0.000 A 
ATOM      3  C   UNL     1       3.940   2.999  17.810  0.00  0.00    +0.000 A 
ATOM      4  C   UNL     1       3.954   4.380  17.570  0.00  0.00    +0.000 A 
ATOM      5  C   UNL     1       4.911   4.911  16.697  0.00  0.00    +0.000 A 
ATOM      6  C   UNL     1       4.953   6.273  16.426  0.00  0.00    +0.000 A 
ATOM      7  C   UNL     1       4.043   7.124  17.041  0.00  0.00    +0.000 A 
ATOM      8  C   UNL     1       3.067   6.628  17.929  0.00  0.00    +0.000 A 
ATOM      9  C   UNL     1       3.005   5.229  18.201  0.00  0.00    +0.000 A 
ATOM     10  C   UNL     1       2.054   4.610  19.050  0.00  0.00    +0.000 A 
ENDROOT
BRANCH   1  12
ATOM     11  C   UNL     1       1.336   2.700  21.471  0.00  0.00    +0.000 C 
ATOM     12  O   UNL     1       1.031   2.772  20.081  0.00  0.00    +0.000 OA
ENDBRANCH   1  12
BRANCH   8  13
ATOM     13  C   UNL     1       2.144   7.655  18.560  0.00  0.00    +0.000 C 
BRANCH  13  14
ATOM     14  C   UNL     1       2.286   9.036  17.903  0.00  0.00    +0.000 C 
BRANCH  14  15
ATOM     15  N   UNL     1       1.014   9.702  17.672  0.00  0.00    +0.000 N 
ATOM     16  C   UNL     1       0.239  10.154  18.717  0.00  0.00    +0.000 C 
ATOM     17  O   UNL     1       0.575  10.069  19.895  0.00  0.00    +0.000 OA
ATOM     18  H   UNL     1       0.595   9.623  16.754  0.00  0.00    +0.000 HD
BRANCH  16  19
ATOM     19  C   UNL     1      -1.082  10.766  18.294  0.00  0.00    +0.000 C 
BRANCH  19  20
ATOM     20  C   UNL     1      -1.744   9.951  17.178  0.00  0.00    +0.000 C 
BRANCH  20  21
ATOM     21  C   UNL     1      -2.706  10.757  16.307  0.00  0.00    +0.000 C 
ATOM     22 CL   UNL     1      -2.829  10.084  14.664  0.00  0.00    +0.000 Cl
ENDBRANCH  20  21
ENDBRANCH  19  20
ENDBRANCH  16  19
ENDBRANCH  14  15
ENDBRANCH  13  14
ENDBRANCH   8  13
TORSDOF 7
ENDMDL
MODEL 3
REMARK VINA RESULT:      -6.9      1.915      2.917
REMARK  Name = 
REMARK  8 active torsions:
REMARK  status: ('A' for Active; 'I' for Inactive)
REMARK    1  A    between atoms: C_1  and  O_2
REMARK    2  A    between atoms: O_2  and  C_3
REMARK    3  A    between atoms: C_10  and  C_11
REMARK    4  A    between atoms: C_11  and  C_12
REMARK    5  A    between atoms: C_12  and  N_13
REMARK    6  A    between atoms: C_14  and  C_16
REMARK    7  A    between atoms: C_16  and  C_17
REMARK    8  A    between atoms: C_17  and  C_18
REMARK                            x       y       z     vdW  Elec       q    Type
REMARK                         _______ _______ _______ _____ _____    ______ ____
ROOT
ATOM      1  C   UNL     1       2.119   3.037  18.664  0.00  0.00    +0.000 A 
ATOM      2  C   UNL     1       1.443   2.913  19.872  0.00  0.00    +0.000 A 
ATOM      3  C   UNL     1       1.156   4.049  20.626  0.00  0.00    +0.000 A 
ATOM      4  C   UNL     1       1.544   5.324  20.192  0.00  0.00    +0.000 A 
ATOM      5  C   UNL     1       1.265   6.434  21.001  0.00  0.00    +0.000 A 
ATOM      6  C   UNL     1       1.640   7.713  20.610  0.00  0.00    +0.000 A 
ATOM      7  C   UNL     1       2.288   7.899  19.396  0.00  0.00    +0.000 A 
ATOM      8  C   UNL     1       2.583   6.809  18.554  0.00  0.00    +0.000 A 
ATOM      9  C   UNL     1       2.216   5.489  18.952  0.00  0.00    +0.000 A 
ATOM     10  C   UNL     1       2.485   4.313  18.207  0.00  0.00    +0.000 A 
ENDROOT
BRANCH   1  12
ATOM     11  C   UNL     1       3.721   1.367  18.128  0.00  0.00    +0.000 C 
ATOM     12  O   UNL     1       2.475   1.998  17.846  0.00  0.00    +0.000 OA
ENDBRANCH   1  12
BRANCH   8  13
ATOM     13  C   UNL     1       3.270   7.136  17.240  0.00  0.00    +0.000 C 
BRANCH  13  14
ATOM     14  C   UNL     1       4.771   6.811  17.281  0.00  0.00    +0.000 C 
BRANCH  14  15
ATOM     15  N   UNL     1       5.180   5.836  16.282  0.00  0.00    +0.000 N 
ATOM     16  C   UNL     1       5.827   4.674  16.634  0.00  0.00    +0.000 C 
ATOM     17  O   UNL     1       6.065   4.356  17.796  0.00  0.00    +0.000 OA
ATOM     18  H   UNL     1       5.194   6.127  15.312  0.00  0.00    +0.000 HD
BRANCH  16  19
ATOM     19  C   UNL     1       6.235   3.807  15.458  0.00  0.00    +0.000 C 
BRANCH  19  20
ATOM     20  C   UNL     1       5.634   4.324  14.148  0.00  0.00    +0.000 C 
BRANCH  20  21
ATOM     21  C   UNL     1       6.077   3.544  12.911  0.00  0.00    +0.000 C 
ATOM     22 CL   UNL     1       4.739   3.318  11.759  0.00  0.00    +0.000 Cl
ENDBRANCH  20  21
ENDBRANCH  19  20
ENDBRANCH  16  19
ENDBRANCH  14  15
ENDBRANCH  13  14
ENDBRANCH   8  13
TORSDOF 7
ENDMDL
MODEL 4
REMARK VINA RESULT:      -6.9      2.177      3.793
REMARK  Name = 
REMARK  8 active torsions:
REMARK  status: ('A' for Active; 'I' for Inactive)
REMARK    1  A    between atoms: C_1  and  O_2
REMARK    2  A    between atoms: O_2  and  C_3
REMARK    3  A    between atoms: C_10  and  C_11
REMARK    4  A    between atoms: C_11  and  C_12
REMARK    5  A    between atoms: C_12  and  N_13
REMARK    6  A    between atoms: C_14  and  C_16
REMARK    7  A    between atoms: C_16  and  C_17
REMARK    8  A    between atoms: C_17  and  C_18
REMARK                            x       y       z     vdW  Elec       q    Type
REMARK                         _______ _______ _______ _____ _____    ______ ____
ROOT
ATOM      1  C   UNL     1       2.516   7.450  18.781  0.00  0.00    +0.000 A 
ATOM      2  C   UNL     1       1.876   7.544  20.010  0.00  0.00    +0.000 A 
ATOM      3  C   UNL     1       1.530   6.386  20.703  0.00  0.00    +0.000 A 
ATOM      4  C   UNL     1       1.811   5.116  20.179  0.00  0.00    +0.000 A 
ATOM      5  C   UNL     1       1.414   3.980  20.894  0.00  0.00    +0.000 A 
ATOM      6  C   UNL     1       1.667   2.704  20.405  0.00  0.00    +0.000 A 
ATOM      7  C   UNL     1       2.335   2.552  19.197  0.00  0.00    +0.000 A 
ATOM      8  C   UNL     1       2.754   3.670  18.450  0.00  0.00    +0.000 A 
ATOM      9  C   UNL     1       2.486   4.985  18.935  0.00  0.00    +0.000 A 
ATOM     10  C   UNL     1       2.830   6.183  18.262  0.00  0.00    +0.000 A 
ENDROOT
BRANCH   1  12
ATOM     11  C   UNL     1       1.991   9.619  17.964  0.00  0.00    +0.000 C 
ATOM     12  O   UNL     1       2.887   8.511  17.998  0.00  0.00    +0.000 OA
ENDBRANCH   1  12
BRANCH   8  13
ATOM     13  C   UNL     1       3.497   3.381  17.158  0.00  0.00    +0.000 C 
BRANCH  13  14
ATOM     14  C   UNL     1       4.941   3.903  17.198  0.00  0.00    +0.000 C 
BRANCH  14  15
ATOM     15  N   UNL     1       5.730   3.517  16.038  0.00  0.00    +0.000 N 
ATOM     16  C   UNL     1       5.863   4.348  14.950  0.00  0.00    +0.000 C 
ATOM     17  O   UNL     1       5.373   5.473  14.893  0.00  0.00    +0.000 OA
ATOM     18  H   UNL     1       5.985   2.542  15.941  0.00  0.00    +0.000 HD
BRANCH  16  19
ATOM     19  C   UNL     1       6.667   3.758  13.808  0.00  0.00    +0.000 C 
BRANCH  19  20
ATOM     20  C   UNL     1       5.995   4.020  12.457  0.00  0.00    +0.000 C 
BRANCH  20  21
ATOM     21  C   UNL     1       5.331   2.789  11.843  0.00  0.00    +0.000 C 
ATOM     22 CL   UNL     1       3.763   3.186  11.098  0.00  0.00    +0.000 Cl
ENDBRANCH  20  21
ENDBRANCH  19  20
ENDBRANCH  16  19
ENDBRANCH  14  15
ENDBRANCH  13  14
ENDBRANCH   8  13
TORSDOF 7
ENDMDL
MODEL 5
REMARK VINA RESULT:      -6.7      3.042      4.952
REMARK  Name = 
REMARK  8 active torsions:
REMARK  status: ('A' for Active; 'I' for Inactive)
REMARK    1  A    between atoms: C_1  and  O_2
REMARK    2  A    between atoms: O_2  and  C_3
REMARK    3  A    between atoms: C_10  and  C_11
REMARK    4  A    between atoms: C_11  and  C_12
REMARK    5  A    between atoms: C_12  and  N_13
REMARK    6  A    between atoms: C_14  and  C_16
REMARK    7  A    between atoms: C_16  and  C_17
REMARK    8  A    between atoms: C_17  and  C_18
REMARK                            x       y       z     vdW  Elec       q    Type
REMARK                         _______ _______ _______ _____ _____    ______ ____
ROOT
ATOM      1  C   UNL     1       2.228   7.967  18.824  0.00  0.00    +0.000 A 
ATOM      2  C   UNL     1       1.732   8.026  20.120  0.00  0.00    +0.000 A 
ATOM      3  C   UNL     1       1.517   6.850  20.835  0.00  0.00    +0.000 A 
ATOM      4  C   UNL     1       1.789   5.597  20.269  0.00  0.00    +0.000 A 
ATOM      5  C   UNL     1       1.526   4.440  21.013  0.00  0.00    +0.000 A 
ATOM      6  C   UNL     1       1.773   3.179  20.484  0.00  0.00    +0.000 A 
ATOM      7  C   UNL     1       2.303   3.063  19.206  0.00  0.00    +0.000 A 
ATOM      8  C   UNL     1       2.585   4.203  18.427  0.00  0.00    +0.000 A 
ATOM      9  C   UNL     1       2.320   5.502  18.954  0.00  0.00    +0.000 A 
ATOM     10  C   UNL     1       2.533   6.718  18.259  0.00  0.00    +0.000 A 
ENDROOT
BRANCH   1  12
ATOM     11  C   UNL     1       1.609  10.175  18.201  0.00  0.00    +0.000 C 
ATOM     12  O   UNL     1       2.461   9.047  18.015  0.00  0.00    +0.000 OA
ENDBRANCH   1  12
BRANCH   8  13
ATOM     13  C   UNL     1       3.186   3.953  17.055  0.00  0.00    +0.000 C 
BRANCH  13  14
ATOM     14  C   UNL     1       4.383   2.993  17.120  0.00  0.00    +0.000 C 
BRANCH  14  15
ATOM     15  N   UNL     1       5.670   3.664  17.016  0.00  0.00    +0.000 N 
ATOM     16  C   UNL     1       6.309   4.169  18.125  0.00  0.00    +0.000 C 
ATOM     17  O   UNL     1       5.874   4.056  19.267  0.00  0.00    +0.000 OA
ATOM     18  H   UNL     1       5.978   3.962  16.098  0.00  0.00    +0.000 HD
BRANCH  16  19
ATOM     19  C   UNL     1       7.608   4.890  17.822  0.00  0.00    +0.000 C 
BRANCH  19  20
ATOM     20  C   UNL     1       7.630   6.288  18.446  0.00  0.00    +0.000 C 
BRANCH  20  21
ATOM     21  C   UNL     1       7.287   7.411  17.468  0.00  0.00    +0.000 C 
ATOM     22 CL   UNL     1       5.645   7.231  16.805  0.00  0.00    +0.000 Cl
ENDBRANCH  20  21
ENDBRANCH  19  20
ENDBRANCH  16  19
ENDBRANCH  14  15
ENDBRANCH  13  14
ENDBRANCH   8  13
TORSDOF 7
ENDMDL
MODEL 6
REMARK VINA RESULT:      -6.7      1.693      2.653
REMARK  Name = 
REMARK  8 active torsions:
REMARK  status: ('A' for Active; 'I' for Inactive)
REMARK    1  A    between atoms: C_1  and  O_2
REMARK    2  A    between atoms: O_2  and  C_3
REMARK    3  A    between atoms: C_10  and  C_11
REMARK    4  A    between atoms: C_11  and  C_12
REMARK    5  A    between atoms: C_12  and  N_13
REMARK    6  A    between atoms: C_14  and  C_16
REMARK    7  A    between atoms: C_16  and  C_17
REMARK    8  A    between atoms: C_17  and  C_18
REMARK                            x       y       z     vdW  Elec       q    Type
REMARK                         _______ _______ _______ _____ _____    ______ ____
ROOT
ATOM      1  C   UNL     1       3.349   3.290  19.676  0.00  0.00    +0.000 A 
ATOM      2  C   UNL     1       2.625   3.340  20.861  0.00  0.00    +0.000 A 
ATOM      3  C   UNL     1       2.009   4.528  21.249  0.00  0.00    +0.000 A 
ATOM      4  C   UNL     1       2.110   5.686  20.466  0.00  0.00    +0.000 A 
ATOM      5  C   UNL     1       1.503   6.867  20.913  0.00  0.00    +0.000 A 
ATOM      6  C   UNL     1       1.587   8.038  20.170  0.00  0.00    +0.000 A 
ATOM      7  C   UNL     1       2.269   8.037  18.961  0.00  0.00    +0.000 A 
ATOM      8  C   UNL     1       2.889   6.868  18.475  0.00  0.00    +0.000 A 
ATOM      9  C   UNL     1       2.823   5.664  19.237  0.00  0.00    +0.000 A 
ATOM     10  C   UNL     1       3.430   4.437  18.870  0.00  0.00    +0.000 A 
ENDROOT
BRANCH   1  12
ATOM     11  C   UNL     1       3.474   1.580  18.032  0.00  0.00    +0.000 C 
ATOM     12  O   UNL     1       4.014   2.192  19.200  0.00  0.00    +0.000 OA
ENDBRANCH   1  12
BRANCH   8  13
ATOM     13  C   UNL     1       3.583   6.980  17.129  0.00  0.00    +0.000 C 
BRANCH  13  14
ATOM     14  C   UNL     1       5.034   6.478  17.188  0.00  0.00    +0.000 C 
BRANCH  14  15
ATOM     15  N   UNL     1       5.478   5.846  15.956  0.00  0.00    +0.000 N 
ATOM     16  C   UNL     1       6.740   5.309  15.837  0.00  0.00    +0.000 C 
ATOM     17  O   UNL     1       7.554   5.284  16.756  0.00  0.00    +0.000 OA
ATOM     18  H   UNL     1       4.938   6.011  15.115  0.00  0.00    +0.000 HD
BRANCH  16  19
ATOM     19  C   UNL     1       7.053   4.749  14.463  0.00  0.00    +0.000 C 
BRANCH  19  20
ATOM     20  C   UNL     1       5.865   3.966  13.895  0.00  0.00    +0.000 C 
BRANCH  20  21
ATOM     21  C   UNL     1       6.079   3.459  12.470  0.00  0.00    +0.000 C 
ATOM     22 CL   UNL     1       4.538   3.265  11.600  0.00  0.00    +0.000 Cl
ENDBRANCH  20  21
ENDBRANCH  19  20
ENDBRANCH  16  19
ENDBRANCH  14  15
ENDBRANCH  13  14
ENDBRANCH   8  13
TORSDOF 7
ENDMDL
MODEL 7
REMARK VINA RESULT:      -6.6      4.675      7.789
REMARK  Name = 
REMARK  8 active torsions:
REMARK  status: ('A' for Active; 'I' for Inactive)
REMARK    1  A    between atoms: C_1  and  O_2
REMARK    2  A    between atoms: O_2  and  C_3
REMARK    3  A    between atoms: C_10  and  C_11
REMARK    4  A    between atoms: C_11  and  C_12
REMARK    5  A    between atoms: C_12  and  N_13
REMARK    6  A    between atoms: C_14  and  C_16
REMARK    7  A    between atoms: C_16  and  C_17
REMARK    8  A    between atoms: C_17  and  C_18
REMARK                            x       y       z     vdW  Elec       q    Type
REMARK                         _______ _______ _______ _____ _____    ______ ____
ROOT
ATOM      1  C   UNL     1       6.550   5.988  16.559  0.00  0.00    +0.000 A 
ATOM      2  C   UNL     1       6.606   4.660  16.156  0.00  0.00    +0.000 A 
ATOM      3  C   UNL     1       5.499   3.833  16.333  0.00  0.00    +0.000 A 
ATOM      4  C   UNL     1       4.320   4.316  16.919  0.00  0.00    +0.000 A 
ATOM      5  C   UNL     1       3.244   3.439  17.108  0.00  0.00    +0.000 A 
ATOM      6  C   UNL     1       2.062   3.877  17.693  0.00  0.00    +0.000 A 
ATOM      7  C   UNL     1       1.938   5.204  18.083  0.00  0.00    +0.000 A 
ATOM      8  C   UNL     1       2.997   6.117  17.907  0.00  0.00    +0.000 A 
ATOM      9  C   UNL     1       4.221   5.675  17.321  0.00  0.00    +0.000 A 
ATOM     10  C   UNL     1       5.363   6.488  17.120  0.00  0.00    +0.000 A 
ENDROOT
BRANCH   1  12
ATOM     11  C   UNL     1       7.710   7.821  17.529  0.00  0.00    +0.000 C 
ATOM     12  O   UNL     1       7.575   6.890  16.459  0.00  0.00    +0.000 OA
ENDBRANCH   1  12
BRANCH   8  13
ATOM     13  C   UNL     1       2.738   7.546  18.347  0.00  0.00    +0.000 C 
BRANCH  13  14
ATOM     14  C   UNL     1       2.153   7.612  19.766  0.00  0.00    +0.000 C 
BRANCH  14  15
ATOM     15  N   UNL     1       1.173   8.672  19.940  0.00  0.00    +0.000 N 
ATOM     16  C   UNL     1       0.864   9.169  21.186  0.00  0.00    +0.000 C 
ATOM     17  O   UNL     1       1.412   8.794  22.219  0.00  0.00    +0.000 OA
ATOM     18  H   UNL     1       0.553   8.878  19.167  0.00  0.00    +0.000 HD
BRANCH  16  19
ATOM     19  C   UNL     1      -0.224  10.225  21.185  0.00  0.00    +0.000 C 
BRANCH  19  20
ATOM     20  C   UNL     1      -0.375  10.870  19.804  0.00  0.00    +0.000 C 
BRANCH  20  21
ATOM     21  C   UNL     1      -0.386  12.397  19.829  0.00  0.00    +0.000 C 
ATOM     22 CL   UNL     1      -0.622  13.082  18.202  0.00  0.00    +0.000 Cl
ENDBRANCH  20  21
ENDBRANCH  19  20
ENDBRANCH  16  19
ENDBRANCH  14  15
ENDBRANCH  13  14
ENDBRANCH   8  13
TORSDOF 7
ENDMDL
MODEL 8
REMARK VINA RESULT:      -6.6      4.422      7.215
REMARK  Name = 
REMARK  8 active torsions:
REMARK  status: ('A' for Active; 'I' for Inactive)
REMARK    1  A    between atoms: C_1  and  O_2
REMARK    2  A    between atoms: O_2  and  C_3
REMARK    3  A    between atoms: C_10  and  C_11
REMARK    4  A    between atoms: C_11  and  C_12
REMARK    5  A    between atoms: C_12  and  N_13
REMARK    6  A    between atoms: C_14  and  C_16
REMARK    7  A    between atoms: C_16  and  C_17
REMARK    8  A    between atoms: C_17  and  C_18
REMARK                            x       y       z     vdW  Elec       q    Type
REMARK                         _______ _______ _______ _____ _____    ______ ____
ROOT
ATOM      1  C   UNL     1       6.628   5.721  16.974  0.00  0.00    +0.000 A 
ATOM      2  C   UNL     1       6.594   4.464  16.384  0.00  0.00    +0.000 A 
ATOM      3  C   UNL     1       5.409   3.732  16.376  0.00  0.00    +0.000 A 
ATOM      4  C   UNL     1       4.240   4.239  16.962  0.00  0.00    +0.000 A 
ATOM      5  C   UNL     1       3.081   3.453  16.962  0.00  0.00    +0.000 A 
ATOM      6  C   UNL     1       1.905   3.916  17.540  0.00  0.00    +0.000 A 
ATOM      7  C   UNL     1       1.873   5.180  18.113  0.00  0.00    +0.000 A 
ATOM      8  C   UNL     1       3.017   6.002  18.131  0.00  0.00    +0.000 A 
ATOM      9  C   UNL     1       4.234   5.531  17.554  0.00  0.00    +0.000 A 
ATOM     10  C   UNL     1       5.455   6.250  17.537  0.00  0.00    +0.000 A 
ENDROOT
BRANCH   1  12
ATOM     11  C   UNL     1       7.506   7.877  17.450  0.00  0.00    +0.000 C 
ATOM     12  O   UNL     1       7.733   6.524  17.063  0.00  0.00    +0.000 OA
ENDBRANCH   1  12
BRANCH   8  13
ATOM     13  C   UNL     1       2.856   7.373  18.762  0.00  0.00    +0.000 C 
BRANCH  13  14
ATOM     14  C   UNL     1       2.352   8.414  17.751  0.00  0.00    +0.000 C 
BRANCH  14  15
ATOM     15  N   UNL     1       1.272   9.244  18.263  0.00  0.00    +0.000 N 
ATOM     16  C   UNL     1       1.407  10.608  18.380  0.00  0.00    +0.000 C 
ATOM     17  O   UNL     1       2.410  11.222  18.029  0.00  0.00    +0.000 OA
ATOM     18  H   UNL     1       0.510   8.786  18.749  0.00  0.00    +0.000 HD
BRANCH  16  19
ATOM     19  C   UNL     1       0.205  11.303  18.991  0.00  0.00    +0.000 C 
BRANCH  19  20
ATOM     20  C   UNL     1      -1.032  10.401  18.972  0.00  0.00    +0.000 C 
BRANCH  20  21
ATOM     21  C   UNL     1      -2.131  10.873  18.022  0.00  0.00    +0.000 C 
ATOM     22 CL   UNL     1      -2.321   9.774  16.634  0.00  0.00    +0.000 Cl
ENDBRANCH  20  21
ENDBRANCH  19  20
ENDBRANCH  16  19
ENDBRANCH  14  15
ENDBRANCH  13  14
ENDBRANCH   8  13
TORSDOF 7
ENDMDL
MODEL 9
REMARK VINA RESULT:      -6.6      1.861      2.860
REMARK  Name = 
REMARK  8 active torsions:
REMARK  status: ('A' for Active; 'I' for Inactive)
REMARK    1  A    between atoms: C_1  and  O_2
REMARK    2  A    between atoms: O_2  and  C_3
REMARK    3  A    between atoms: C_10  and  C_11
REMARK    4  A    between atoms: C_11  and  C_12
REMARK    5  A    between atoms: C_12  and  N_13
REMARK    6  A    between atoms: C_14  and  C_16
REMARK    7  A    between atoms: C_16  and  C_17
REMARK    8  A    between atoms: C_17  and  C_18
REMARK                            x       y       z     vdW  Elec       q    Type
REMARK                         _______ _______ _______ _____ _____    ______ ____
ROOT
ATOM      1  C   UNL     1       1.674   5.710  20.644  0.00  0.00    +0.000 A 
ATOM      2  C   UNL     1       1.377   4.393  20.975  0.00  0.00    +0.000 A 
ATOM      3  C   UNL     1       1.917   3.350  20.226  0.00  0.00    +0.000 A 
ATOM      4  C   UNL     1       2.757   3.603  19.132  0.00  0.00    +0.000 A 
ATOM      5  C   UNL     1       3.249   2.524  18.387  0.00  0.00    +0.000 A 
ATOM      6  C   UNL     1       4.077   2.732  17.290  0.00  0.00    +0.000 A 
ATOM      7  C   UNL     1       4.434   4.026  16.936  0.00  0.00    +0.000 A 
ATOM      8  C   UNL     1       3.963   5.138  17.662  0.00  0.00    +0.000 A 
ATOM      9  C   UNL     1       3.099   4.936  18.781  0.00  0.00    +0.000 A 
ATOM     10  C   UNL     1       2.538   5.971  19.569  0.00  0.00    +0.000 A 
ENDROOT
BRANCH   1  12
ATOM     11  C   UNL     1       1.502   8.078  20.705  0.00  0.00    +0.000 C 
ATOM     12  O   UNL     1       1.190   6.816  21.288  0.00  0.00    +0.000 OA
ENDBRANCH   1  12
BRANCH   8  13
ATOM     13  C   UNL     1       4.440   6.501  17.198  0.00  0.00    +0.000 C 
BRANCH  13  14
ATOM     14  C   UNL     1       5.879   6.453  16.662  0.00  0.00    +0.000 C 
BRANCH  14  15
ATOM     15  N   UNL     1       5.994   5.797  15.369  0.00  0.00    +0.000 N 
ATOM     16  C   UNL     1       7.015   4.914  15.098  0.00  0.00    +0.000 C 
ATOM     17  O   UNL     1       7.863   4.587  15.923  0.00  0.00    +0.000 OA
ATOM     18  H   UNL     1       5.456   6.171  14.597  0.00  0.00    +0.000 HD
BRANCH  16  19
ATOM     19  C   UNL     1       7.014   4.375  13.681  0.00  0.00    +0.000 C 
BRANCH  19  20
ATOM     20  C   UNL     1       5.684   3.693  13.344  0.00  0.00    +0.000 C 
BRANCH  20  21
ATOM     21  C   UNL     1       5.608   3.152  11.917  0.00  0.00    +0.000 C 
ATOM     22 CL   UNL     1       3.949   3.215  11.275  0.00  0.00    +0.000 Cl
ENDBRANCH  20  21
ENDBRANCH  19  20
ENDBRANCH  16  19
ENDBRANCH  14  15
ENDBRANCH  13  14
ENDBRANCH   8  13
TORSDOF 7
ENDMDL
