MODEL 1
REMARK VINA RESULT:      -9.9      0.000      0.000
REMARK  Name = 
REMARK  3 active torsions:
REMARK  status: ('A' for Active; 'I' for Inactive)
REMARK    1  A    between atoms: C_4  and  C_5
REMARK    2  A    between atoms: C_10  and  C_11
REMARK    3  A    between atoms: N_15  and  C_16
REMARK                            x       y       z     vdW  Elec       q    Type
REMARK                         _______ _______ _______ _____ _____    ______ ____
ROOT
ATOM      1  N   UNL     1       4.057   0.695  18.542  0.00  0.00    +0.000 N 
ATOM      2  C   UNL     1       3.645   2.048  18.612  0.00  0.00    +0.000 C 
ATOM      3  N   UNL     1       4.078   2.876  17.740  0.00  0.00    +0.000 NA
ATOM      4  C   UNL     1       3.851   4.303  17.778  0.00  0.00    +0.000 C 
ATOM      5  N   UNL     1       2.943   4.740  18.867  0.00  0.00    +0.000 N 
ATOM      6  C   UNL     1       2.504   3.738  19.830  0.00  0.00    +0.000 C 
ATOM      7  N   UNL     1       1.812   4.059  21.035  0.00  0.00    +0.000 N 
ATOM      8  N   UNL     1       2.852   2.502  19.689  0.00  0.00    +0.000 NA
ATOM      9  H   UNL     1       4.667   0.377  17.774  0.00  0.00    +0.000 HD
ATOM     10  H   UNL     1       3.843   0.037  19.302  0.00  0.00    +0.000 HD
ATOM     11  H   UNL     1       1.700   5.017  21.385  0.00  0.00    +0.000 HD
ATOM     12  H   UNL     1       1.527   3.302  21.673  0.00  0.00    +0.000 HD
ENDROOT
BRANCH   5  13
ATOM     13  C   UNL     1       2.556   6.153  18.969  0.00  0.00    +0.000 A 
ATOM     14  C   UNL     1       2.558   7.017  17.844  0.00  0.00    +0.000 A 
ATOM     15  C   UNL     1       2.125   8.347  17.945  0.00  0.00    +0.000 A 
ATOM     16  C   UNL     1       1.692   8.862  19.165  0.00  0.00    +0.000 A 
ATOM     17  F   UNL     1       1.249  10.141  19.251  0.00  0.00    +0.000 F 
ATOM     18  C   UNL     1       1.723   8.059  20.296  0.00  0.00    +0.000 A 
ATOM     19 CL   UNL     1       1.191   8.679  21.854  0.00  0.00    +0.000 Cl
ATOM     20  C   UNL     1       2.161   6.740  20.204  0.00  0.00    +0.000 A 
ENDBRANCH   5  13
BRANCH   4  21
ATOM     21  C   UNL     1       5.230   4.912  17.908  0.00  0.00    +0.000 A 
ATOM     22  C   UNL     1       5.754   4.988  19.220  0.00  0.00    +0.000 A 
ATOM     23  C   UNL     1       6.956   5.629  19.480  0.00  0.00    +0.000 A 
ATOM     24  C   UNL     1       7.680   6.192  18.438  0.00  0.00    +0.000 A 
ATOM     25  C   UNL     1       7.210   6.104  17.129  0.00  0.00    +0.000 A 
ATOM     26  C   UNL     1       5.988   5.469  16.826  0.00  0.00    +0.000 A 
BRANCH  26  27
ATOM     27  C   UNL     1       5.614   5.454  15.347  0.00  0.00    +0.000 C 
ATOM     28  F   UNL     1       4.857   4.380  14.940  0.00  0.00    +0.000 F 
ATOM     29  F   UNL     1       4.918   6.611  15.044  0.00  0.00    +0.000 F 
ATOM     30  F   UNL     1       6.777   5.430  14.597  0.00  0.00    +0.000 F 
ENDBRANCH  26  27
ENDBRANCH   4  21
TORSDOF 3
ENDMDL
MODEL 2
REMARK VINA RESULT:      -8.9      1.013      1.382
REMARK  Name = 
REMARK  3 active torsions:
REMARK  status: ('A' for Active; 'I' for Inactive)
REMARK    1  A    between atoms: C_4  and  C_5
REMARK    2  A    between atoms: C_10  and  C_11
REMARK    3  A    between atoms: N_15  and  C_16
REMARK                            x       y       z     vdW  Elec       q    Type
REMARK                         _______ _______ _______ _____ _____    ______ ____
ROOT
ATOM      1  N   UNL     1       4.135   0.602  18.177  0.00  0.00    +0.000 N 
ATOM      2  C   UNL     1       3.669   1.916  18.427  0.00  0.00    +0.000 C 
ATOM      3  N   UNL     1       4.020   2.860  17.642  0.00  0.00    +0.000 NA
ATOM      4  C   UNL     1       3.734   4.261  17.861  0.00  0.00    +0.000 C 
ATOM      5  N   UNL     1       2.866   4.522  19.036  0.00  0.00    +0.000 N 
ATOM      6  C   UNL     1       2.521   3.394  19.891  0.00  0.00    +0.000 C 
ATOM      7  N   UNL     1       1.880   3.537  21.157  0.00  0.00    +0.000 N 
ATOM      8  N   UNL     1       2.914   2.201  19.586  0.00  0.00    +0.000 NA
ATOM      9  H   UNL     1       4.717   0.407  17.348  0.00  0.00    +0.000 HD
ATOM     10  H   UNL     1       3.989  -0.150  18.862  0.00  0.00    +0.000 HD
ATOM     11  H   UNL     1       1.745   4.440  21.624  0.00  0.00    +0.000 HD
ATOM     12  H   UNL     1       1.661   2.697  21.712  0.00  0.00    +0.000 HD
ENDROOT
BRANCH   5  13
ATOM     13  C   UNL     1       2.424   5.892  19.324  0.00  0.00    +0.000 A 
ATOM     14  C   UNL     1       1.934   6.273  20.599  0.00  0.00    +0.000 A 
ATOM     15  C   UNL     1       1.577   7.601  20.876  0.00  0.00    +0.000 A 
ATOM     16  C   UNL     1       1.679   8.584  19.894  0.00  0.00    +0.000 A 
ATOM     17  F   UNL     1       1.357   9.871  20.175  0.00  0.00    +0.000 F 
ATOM     18  C   UNL     1       2.108   8.236  18.621  0.00  0.00    +0.000 A 
ATOM     19 CL   UNL     1       2.242   9.451  17.355  0.00  0.00    +0.000 Cl
ATOM     20  C   UNL     1       2.455   6.918  18.337  0.00  0.00    +0.000 A 
ENDBRANCH   5  13
BRANCH   4  21
ATOM     21  C   UNL     1       5.091   4.917  18.000  0.00  0.00    +0.000 A 
ATOM     22  C   UNL     1       5.625   4.968  19.308  0.00  0.00    +0.000 A 
ATOM     23  C   UNL     1       6.806   5.645  19.578  0.00  0.00    +0.000 A 
ATOM     24  C   UNL     1       7.497   6.270  18.550  0.00  0.00    +0.000 A 
ATOM     25  C   UNL     1       7.016   6.208  17.243  0.00  0.00    +0.000 A 
ATOM     26  C   UNL     1       5.816   5.539  16.930  0.00  0.00    +0.000 A 
BRANCH  26  27
ATOM     27  C   UNL     1       5.427   5.560  15.455  0.00  0.00    +0.000 C 
ATOM     28  F   UNL     1       4.582   4.552  15.053  0.00  0.00    +0.000 F 
ATOM     29  F   UNL     1       4.823   6.771  15.163  0.00  0.00    +0.000 F 
ATOM     30  F   UNL     1       6.576   5.446  14.692  0.00  0.00    +0.000 F 
ENDBRANCH  26  27
ENDBRANCH   4  21
TORSDOF 3
ENDMDL
MODEL 3
REMARK VINA RESULT:      -7.9      7.598      9.624
REMARK  Name = 
REMARK  3 active torsions:
REMARK  status: ('A' for Active; 'I' for Inactive)
REMARK    1  A    between atoms: C_4  and  C_5
REMARK    2  A    between atoms: C_10  and  C_11
REMARK    3  A    between atoms: N_15  and  C_16
REMARK                            x       y       z     vdW  Elec       q    Type
REMARK                         _______ _______ _______ _____ _____    ______ ____
ROOT
ATOM      1  N   UNL     1       3.354  14.482  21.549  0.00  0.00    +0.000 N 
ATOM      2  C   UNL     1       2.372  13.796  20.793  0.00  0.00    +0.000 C 
ATOM      3  N   UNL     1       1.260  13.496  21.345  0.00  0.00    +0.000 NA
ATOM      4  C   UNL     1       0.234  12.679  20.737  0.00  0.00    +0.000 C 
ATOM      5  N   UNL     1       0.518  12.304  19.329  0.00  0.00    +0.000 N 
ATOM      6  C   UNL     1       1.816  12.669  18.777  0.00  0.00    +0.000 C 
ATOM      7  N   UNL     1       2.298  12.189  17.524  0.00  0.00    +0.000 N 
ATOM      8  N   UNL     1       2.655  13.354  19.482  0.00  0.00    +0.000 NA
ATOM      9  H   UNL     1       3.155  14.770  22.519  0.00  0.00    +0.000 HD
ATOM     10  H   UNL     1       4.305  14.613  21.184  0.00  0.00    +0.000 HD
ATOM     11  H   UNL     1       1.839  11.444  16.989  0.00  0.00    +0.000 HD
ATOM     12  H   UNL     1       3.225  12.489  17.188  0.00  0.00    +0.000 HD
ENDROOT
BRANCH   5  13
ATOM     13  C   UNL     1      -0.480  11.548  18.562  0.00  0.00    +0.000 A 
ATOM     14  C   UNL     1      -0.195  10.277  18.002  0.00  0.00    +0.000 A 
ATOM     15  C   UNL     1      -1.179   9.540  17.327  0.00  0.00    +0.000 A 
ATOM     16  C   UNL     1      -2.467  10.049  17.174  0.00  0.00    +0.000 A 
ATOM     17  F   UNL     1      -3.421   9.321  16.542  0.00  0.00    +0.000 F 
ATOM     18  C   UNL     1      -2.766  11.312  17.666  0.00  0.00    +0.000 A 
ATOM     19 CL   UNL     1      -4.380  11.987  17.483  0.00  0.00    +0.000 Cl
ATOM     20  C   UNL     1      -1.791  12.051  18.329  0.00  0.00    +0.000 A 
ENDBRANCH   5  13
BRANCH   4  21
ATOM     21  C   UNL     1       0.119  11.467  21.637  0.00  0.00    +0.000 A 
ATOM     22  C   UNL     1       1.076  10.447  21.429  0.00  0.00    +0.000 A 
ATOM     23  C   UNL     1       1.003   9.241  22.112  0.00  0.00    +0.000 A 
ATOM     24  C   UNL     1      -0.011   9.028  23.034  0.00  0.00    +0.000 A 
ATOM     25  C   UNL     1      -0.950  10.027  23.289  0.00  0.00    +0.000 A 
ATOM     26  C   UNL     1      -0.915  11.261  22.609  0.00  0.00    +0.000 A 
BRANCH  26  27
ATOM     27  C   UNL     1      -2.010  12.249  23.001  0.00  0.00    +0.000 C 
ATOM     28  F   UNL     1      -2.965  11.760  23.863  0.00  0.00    +0.000 F 
ATOM     29  F   UNL     1      -1.428  13.359  23.588  0.00  0.00    +0.000 F 
ATOM     30  F   UNL     1      -2.674  12.653  21.856  0.00  0.00    +0.000 F 
ENDBRANCH  26  27
ENDBRANCH   4  21
TORSDOF 3
ENDMDL
MODEL 4
REMARK VINA RESULT:      -7.6      6.715      8.944
REMARK  Name = 
REMARK  3 active torsions:
REMARK  status: ('A' for Active; 'I' for Inactive)
REMARK    1  A    between atoms: C_4  and  C_5
REMARK    2  A    between atoms: C_10  and  C_11
REMARK    3  A    between atoms: N_15  and  C_16
REMARK                            x       y       z     vdW  Elec       q    Type
REMARK                         _______ _______ _______ _____ _____    ______ ____
ROOT
ATOM      1  N   UNL     1       3.220  14.328  21.413  0.00  0.00    +0.000 N 
ATOM      2  C   UNL     1       1.985  13.856  20.902  0.00  0.00    +0.000 C 
ATOM      3  N   UNL     1       1.612  12.666  21.179  0.00  0.00    +0.000 NA
ATOM      4  C   UNL     1       0.452  12.016  20.612  0.00  0.00    +0.000 C 
ATOM      5  N   UNL     1      -0.373  12.899  19.750  0.00  0.00    +0.000 N 
ATOM      6  C   UNL     1       0.130  14.237  19.469  0.00  0.00    +0.000 C 
ATOM      7  N   UNL     1      -0.449  15.103  18.495  0.00  0.00    +0.000 N 
ATOM      8  N   UNL     1       1.228  14.648  20.011  0.00  0.00    +0.000 NA
ATOM      9  H   UNL     1       3.787  13.731  22.033  0.00  0.00    +0.000 HD
ATOM     10  H   UNL     1       3.615  15.222  21.097  0.00  0.00    +0.000 HD
ATOM     11  H   UNL     1      -1.163  14.802  17.823  0.00  0.00    +0.000 HD
ATOM     12  H   UNL     1      -0.047  16.040  18.346  0.00  0.00    +0.000 HD
ENDROOT
BRANCH   5  13
ATOM     13  C   UNL     1      -1.628  12.392  19.180  0.00  0.00    +0.000 A 
ATOM     14  C   UNL     1      -2.851  12.433  19.896  0.00  0.00    +0.000 A 
ATOM     15  C   UNL     1      -4.052  12.004  19.313  0.00  0.00    +0.000 A 
ATOM     16  C   UNL     1      -4.072  11.509  18.011  0.00  0.00    +0.000 A 
ATOM     17  F   UNL     1      -5.241  11.120  17.443  0.00  0.00    +0.000 F 
ATOM     18  C   UNL     1      -2.885  11.408  17.299  0.00  0.00    +0.000 A 
ATOM     19 CL   UNL     1      -2.873  10.780  15.655  0.00  0.00    +0.000 Cl
ATOM     20  C   UNL     1      -1.688  11.824  17.876  0.00  0.00    +0.000 A 
ENDBRANCH   5  13
BRANCH   4  21
ATOM     21  C   UNL     1       1.006  10.832  19.847  0.00  0.00    +0.000 A 
ATOM     22  C   UNL     1       1.603  11.124  18.599  0.00  0.00    +0.000 A 
ATOM     23  C   UNL     1       2.042  10.113  17.757  0.00  0.00    +0.000 A 
ATOM     24  C   UNL     1       1.920   8.787  18.144  0.00  0.00    +0.000 A 
ATOM     25  C   UNL     1       1.369   8.466  19.384  0.00  0.00    +0.000 A 
ATOM     26  C   UNL     1       0.902   9.464  20.264  0.00  0.00    +0.000 A 
BRANCH  26  27
ATOM     27  C   UNL     1       0.330   8.951  21.581  0.00  0.00    +0.000 C 
ATOM     28  F   UNL     1      -0.864   9.517  21.966  0.00  0.00    +0.000 F 
ATOM     29  F   UNL     1       0.149   7.582  21.495  0.00  0.00    +0.000 F 
ATOM     30  F   UNL     1       1.239   9.213  22.591  0.00  0.00    +0.000 F 
ENDBRANCH  26  27
ENDBRANCH   4  21
TORSDOF 3
ENDMDL
MODEL 5
REMARK VINA RESULT:      -7.4      3.268      4.910
REMARK  Name = 
REMARK  3 active torsions:
REMARK  status: ('A' for Active; 'I' for Inactive)
REMARK    1  A    between atoms: C_4  and  C_5
REMARK    2  A    between atoms: C_10  and  C_11
REMARK    3  A    between atoms: N_15  and  C_16
REMARK                            x       y       z     vdW  Elec       q    Type
REMARK                         _______ _______ _______ _____ _____    ______ ____
ROOT
ATOM      1  N   UNL     1       6.902   3.933  18.246  0.00  0.00    +0.000 N 
ATOM      2  C   UNL     1       5.855   4.863  18.458  0.00  0.00    +0.000 C 
ATOM      3  N   UNL     1       4.946   4.591  19.313  0.00  0.00    +0.000 NA
ATOM      4  C   UNL     1       3.753   5.382  19.525  0.00  0.00    +0.000 C 
ATOM      5  N   UNL     1       3.718   6.641  18.741  0.00  0.00    +0.000 N 
ATOM      6  C   UNL     1       4.785   6.871  17.774  0.00  0.00    +0.000 C 
ATOM      7  N   UNL     1       4.759   7.924  16.814  0.00  0.00    +0.000 N 
ATOM      8  N   UNL     1       5.756   6.026  17.662  0.00  0.00    +0.000 NA
ATOM      9  H   UNL     1       6.948   3.067  18.804  0.00  0.00    +0.000 HD
ATOM     10  H   UNL     1       7.566   4.053  17.472  0.00  0.00    +0.000 HD
ATOM     11  H   UNL     1       3.933   8.505  16.633  0.00  0.00    +0.000 HD
ATOM     12  H   UNL     1       5.547   8.034  16.160  0.00  0.00    +0.000 HD
ENDROOT
BRANCH   5  13
ATOM     13  C   UNL     1       2.606   7.582  18.925  0.00  0.00    +0.000 A 
ATOM     14  C   UNL     1       2.080   8.345  17.851  0.00  0.00    +0.000 A 
ATOM     15  C   UNL     1       0.976   9.191  18.030  0.00  0.00    +0.000 A 
ATOM     16  C   UNL     1       0.373   9.317  19.280  0.00  0.00    +0.000 A 
ATOM     17  F   UNL     1      -0.710  10.117  19.442  0.00  0.00    +0.000 F 
ATOM     18  C   UNL     1       0.894   8.623  20.364  0.00  0.00    +0.000 A 
ATOM     19 CL   UNL     1       0.162   8.765  21.957  0.00  0.00    +0.000 Cl
ATOM     20  C   UNL     1       1.995   7.789  20.194  0.00  0.00    +0.000 A 
ENDBRANCH   5  13
BRANCH   4  21
ATOM     21  C   UNL     1       2.608   4.458  19.169  0.00  0.00    +0.000 A 
ATOM     22  C   UNL     1       2.146   4.529  17.835  0.00  0.00    +0.000 A 
ATOM     23  C   UNL     1       1.029   3.817  17.420  0.00  0.00    +0.000 A 
ATOM     24  C   UNL     1       0.357   3.000  18.318  0.00  0.00    +0.000 A 
ATOM     25  C   UNL     1       0.808   2.880  19.631  0.00  0.00    +0.000 A 
ATOM     26  C   UNL     1       1.932   3.594  20.093  0.00  0.00    +0.000 A 
BRANCH  26  27
ATOM     27  C   UNL     1       2.299   3.353  21.553  0.00  0.00    +0.000 C 
ATOM     28  F   UNL     1       2.605   4.482  22.279  0.00  0.00    +0.000 F 
ATOM     29  F   UNL     1       1.250   2.707  22.183  0.00  0.00    +0.000 F 
ATOM     30  F   UNL     1       3.414   2.534  21.601  0.00  0.00    +0.000 F 
ENDBRANCH  26  27
ENDBRANCH   4  21
TORSDOF 3
ENDMDL
MODEL 6
REMARK VINA RESULT:      -7.4      8.145     10.131
REMARK  Name = 
REMARK  3 active torsions:
REMARK  status: ('A' for Active; 'I' for Inactive)
REMARK    1  A    between atoms: C_4  and  C_5
REMARK    2  A    between atoms: C_10  and  C_11
REMARK    3  A    between atoms: N_15  and  C_16
REMARK                            x       y       z     vdW  Elec       q    Type
REMARK                         _______ _______ _______ _____ _____    ______ ____
ROOT
ATOM      1  N   UNL     1      -4.565  12.267  24.621  0.00  0.00    +0.000 N 
ATOM      2  C   UNL     1      -3.583  12.785  23.741  0.00  0.00    +0.000 C 
ATOM      3  N   UNL     1      -3.345  12.172  22.646  0.00  0.00    +0.000 NA
ATOM      4  C   UNL     1      -2.278  12.511  21.730  0.00  0.00    +0.000 C 
ATOM      5  N   UNL     1      -1.532  13.739  22.102  0.00  0.00    +0.000 N 
ATOM      6  C   UNL     1      -1.853  14.370  23.375  0.00  0.00    +0.000 C 
ATOM      7  N   UNL     1      -1.075  15.419  23.948  0.00  0.00    +0.000 N 
ATOM      8  N   UNL     1      -2.803  13.901  24.115  0.00  0.00    +0.000 NA
ATOM      9  H   UNL     1      -5.106  11.429  24.360  0.00  0.00    +0.000 HD
ATOM     10  H   UNL     1      -4.682  12.650  25.567  0.00  0.00    +0.000 HD
ATOM     11  H   UNL     1      -0.159  15.707  23.586  0.00  0.00    +0.000 HD
ATOM     12  H   UNL     1      -1.358  15.826  24.851  0.00  0.00    +0.000 HD
ENDROOT
BRANCH   5  13
ATOM     13  C   UNL     1      -0.480  14.247  21.213  0.00  0.00    +0.000 A 
ATOM     14  C   UNL     1       0.871  13.828  21.329  0.00  0.00    +0.000 A 
ATOM     15  C   UNL     1       1.852  14.275  20.431  0.00  0.00    +0.000 A 
ATOM     16  C   UNL     1       1.526  15.160  19.406  0.00  0.00    +0.000 A 
ATOM     17  F   UNL     1       2.474  15.568  18.525  0.00  0.00    +0.000 F 
ATOM     18  C   UNL     1       0.225  15.629  19.294  0.00  0.00    +0.000 A 
ATOM     19 CL   UNL     1      -0.219  16.753  18.015  0.00  0.00    +0.000 Cl
ATOM     20  C   UNL     1      -0.752  15.196  20.188  0.00  0.00    +0.000 A 
ENDBRANCH   5  13
BRANCH   4  21
ATOM     21  C   UNL     1      -1.385  11.289  21.706  0.00  0.00    +0.000 A 
ATOM     22  C   UNL     1      -0.978  10.793  22.966  0.00  0.00    +0.000 A 
ATOM     23  C   UNL     1      -0.068   9.750  23.069  0.00  0.00    +0.000 A 
ATOM     24  C   UNL     1       0.442   9.159  21.922  0.00  0.00    +0.000 A 
ATOM     25  C   UNL     1       0.033   9.601  20.665  0.00  0.00    +0.000 A 
ATOM     26  C   UNL     1      -0.881  10.664  20.518  0.00  0.00    +0.000 A 
BRANCH  26  27
ATOM     27  C   UNL     1      -1.230  11.025  19.077  0.00  0.00    +0.000 C 
ATOM     28  F   UNL     1      -2.568  11.222  18.825  0.00  0.00    +0.000 F 
ATOM     29  F   UNL     1      -0.551  12.178  18.723  0.00  0.00    +0.000 F 
ATOM     30  F   UNL     1      -0.814   9.997  18.250  0.00  0.00    +0.000 F 
ENDBRANCH  26  27
ENDBRANCH   4  21
TORSDOF 3
ENDMDL
MODEL 7
REMARK VINA RESULT:      -7.4      6.880      9.041
REMARK  Name = 
REMARK  3 active torsions:
REMARK  status: ('A' for Active; 'I' for Inactive)
REMARK    1  A    between atoms: C_4  and  C_5
REMARK    2  A    between atoms: C_10  and  C_11
REMARK    3  A    between atoms: N_15  and  C_16
REMARK                            x       y       z     vdW  Elec       q    Type
REMARK                         _______ _______ _______ _____ _____    ______ ____
ROOT
ATOM      1  N   UNL     1       3.342  14.459  21.331  0.00  0.00    +0.000 N 
ATOM      2  C   UNL     1       2.076  14.003  20.886  0.00  0.00    +0.000 C 
ATOM      3  N   UNL     1       1.686  12.833  21.216  0.00  0.00    +0.000 NA
ATOM      4  C   UNL     1       0.488  12.195  20.717  0.00  0.00    +0.000 C 
ATOM      5  N   UNL     1      -0.351  13.073  19.863  0.00  0.00    +0.000 N 
ATOM      6  C   UNL     1       0.172  14.389  19.520  0.00  0.00    +0.000 C 
ATOM      7  N   UNL     1      -0.426  15.239  18.544  0.00  0.00    +0.000 N 
ATOM      8  N   UNL     1       1.302  14.788  20.003  0.00  0.00    +0.000 NA
ATOM      9  H   UNL     1       3.920  13.866  21.946  0.00  0.00    +0.000 HD
ATOM     10  H   UNL     1       3.746  15.332  20.971  0.00  0.00    +0.000 HD
ATOM     11  H   UNL     1      -1.174  14.937  17.911  0.00  0.00    +0.000 HD
ATOM     12  H   UNL     1      -0.007  16.161  18.349  0.00  0.00    +0.000 HD
ENDROOT
BRANCH   5  13
ATOM     13  C   UNL     1      -1.640  12.582  19.361  0.00  0.00    +0.000 A 
ATOM     14  C   UNL     1      -1.761  11.933  18.105  0.00  0.00    +0.000 A 
ATOM     15  C   UNL     1      -2.988  11.413  17.669  0.00  0.00    +0.000 A 
ATOM     16  C   UNL     1      -4.132  11.535  18.455  0.00  0.00    +0.000 A 
ATOM     17  F   UNL     1      -5.310  11.007  18.039  0.00  0.00    +0.000 F 
ATOM     18  C   UNL     1      -4.060  12.208  19.667  0.00  0.00    +0.000 A 
ATOM     19 CL   UNL     1      -5.486  12.387  20.682  0.00  0.00    +0.000 Cl
ATOM     20  C   UNL     1      -2.846  12.734  20.102  0.00  0.00    +0.000 A 
ENDBRANCH   5  13
BRANCH   4  21
ATOM     21  C   UNL     1       0.981  10.975  19.968  0.00  0.00    +0.000 A 
ATOM     22  C   UNL     1       1.624  11.224  18.734  0.00  0.00    +0.000 A 
ATOM     23  C   UNL     1       2.016  10.183  17.904  0.00  0.00    +0.000 A 
ATOM     24  C   UNL     1       1.797   8.869  18.290  0.00  0.00    +0.000 A 
ATOM     25  C   UNL     1       1.197   8.589  19.517  0.00  0.00    +0.000 A 
ATOM     26  C   UNL     1       0.776   9.618  20.384  0.00  0.00    +0.000 A 
BRANCH  26  27
ATOM     27  C   UNL     1       0.140   9.149  21.688  0.00  0.00    +0.000 C 
ATOM     28  F   UNL     1      -0.900   9.923  22.150  0.00  0.00    +0.000 F 
ATOM     29  F   UNL     1      -0.324   7.856  21.526  0.00  0.00    +0.000 F 
ATOM     30  F   UNL     1       1.108   9.149  22.678  0.00  0.00    +0.000 F 
ENDBRANCH  26  27
ENDBRANCH   4  21
TORSDOF 3
ENDMDL
MODEL 8
REMARK VINA RESULT:      -7.3      8.148     10.083
REMARK  Name = 
REMARK  3 active torsions:
REMARK  status: ('A' for Active; 'I' for Inactive)
REMARK    1  A    between atoms: C_4  and  C_5
REMARK    2  A    between atoms: C_10  and  C_11
REMARK    3  A    between atoms: N_15  and  C_16
REMARK                            x       y       z     vdW  Elec       q    Type
REMARK                         _______ _______ _______ _____ _____    ______ ____
ROOT
ATOM      1  N   UNL     1      -4.409  12.437  24.909  0.00  0.00    +0.000 N 
ATOM      2  C   UNL     1      -3.479  12.901  23.946  0.00  0.00    +0.000 C 
ATOM      3  N   UNL     1      -3.309  12.229  22.874  0.00  0.00    +0.000 NA
ATOM      4  C   UNL     1      -2.297  12.512  21.879  0.00  0.00    +0.000 C 
ATOM      5  N   UNL     1      -1.526  13.753  22.139  0.00  0.00    +0.000 N 
ATOM      6  C   UNL     1      -1.769  14.454  23.394  0.00  0.00    +0.000 C 
ATOM      7  N   UNL     1      -0.955  15.527  23.862  0.00  0.00    +0.000 N 
ATOM      8  N   UNL     1      -2.675  14.031  24.212  0.00  0.00    +0.000 NA
ATOM      9  H   UNL     1      -4.968  11.590  24.726  0.00  0.00    +0.000 HD
ATOM     10  H   UNL     1      -4.468  12.871  25.839  0.00  0.00    +0.000 HD
ATOM     11  H   UNL     1      -0.062  15.789  23.431  0.00  0.00    +0.000 HD
ATOM     12  H   UNL     1      -1.183  15.983  24.757  0.00  0.00    +0.000 HD
ENDROOT
BRANCH   5  13
ATOM     13  C   UNL     1      -0.527  14.206  21.164  0.00  0.00    +0.000 A 
ATOM     14  C   UNL     1      -0.890  14.905  19.984  0.00  0.00    +0.000 A 
ATOM     15  C   UNL     1       0.082  15.388  19.095  0.00  0.00    +0.000 A 
ATOM     16  C   UNL     1       1.437  15.177  19.341  0.00  0.00    +0.000 A 
ATOM     17  F   UNL     1       2.373  15.668  18.491  0.00  0.00    +0.000 F 
ATOM     18  C   UNL     1       1.825  14.454  20.460  0.00  0.00    +0.000 A 
ATOM     19 CL   UNL     1       3.527  14.163  20.797  0.00  0.00    +0.000 Cl
ATOM     20  C   UNL     1       0.864  13.964  21.342  0.00  0.00    +0.000 A 
ENDBRANCH   5  13
BRANCH   4  21
ATOM     21  C   UNL     1      -1.411  11.284  21.868  0.00  0.00    +0.000 A 
ATOM     22  C   UNL     1      -1.093  10.737  23.132  0.00  0.00    +0.000 A 
ATOM     23  C   UNL     1      -0.198   9.684  23.257  0.00  0.00    +0.000 A 
ATOM     24  C   UNL     1       0.386   9.134  22.125  0.00  0.00    +0.000 A 
ATOM     25  C   UNL     1       0.066   9.626  20.861  0.00  0.00    +0.000 A 
ATOM     26  C   UNL     1      -0.831  10.701  20.693  0.00  0.00    +0.000 A 
BRANCH  26  27
ATOM     27  C   UNL     1      -1.078  11.121  19.248  0.00  0.00    +0.000 C 
ATOM     28  F   UNL     1      -2.234  11.836  19.030  0.00  0.00    +0.000 F 
ATOM     29  F   UNL     1      -0.010  11.884  18.809  0.00  0.00    +0.000 F 
ATOM     30  F   UNL     1      -1.158   9.983  18.464  0.00  0.00    +0.000 F 
ENDBRANCH  26  27
ENDBRANCH   4  21
TORSDOF 3
ENDMDL
MODEL 9
REMARK VINA RESULT:      -7.3      3.407      5.105
REMARK  Name = 
REMARK  3 active torsions:
REMARK  status: ('A' for Active; 'I' for Inactive)
REMARK    1  A    between atoms: C_4  and  C_5
REMARK    2  A    between atoms: C_10  and  C_11
REMARK    3  A    between atoms: N_15  and  C_16
REMARK                            x       y       z     vdW  Elec       q    Type
REMARK                         _______ _______ _______ _____ _____    ______ ____
ROOT
ATOM      1  N   UNL     1       6.792   3.971  17.764  0.00  0.00    +0.000 N 
ATOM      2  C   UNL     1       5.754   4.809  18.240  0.00  0.00    +0.000 C 
ATOM      3  N   UNL     1       4.972   4.373  19.151  0.00  0.00    +0.000 NA
ATOM      4  C   UNL     1       3.793   5.065  19.623  0.00  0.00    +0.000 C 
ATOM      5  N   UNL     1       3.620   6.421  19.046  0.00  0.00    +0.000 N 
ATOM      6  C   UNL     1       4.545   6.840  18.001  0.00  0.00    +0.000 C 
ATOM      7  N   UNL     1       4.363   8.018  17.220  0.00  0.00    +0.000 N 
ATOM      8  N   UNL     1       5.518   6.068  17.645  0.00  0.00    +0.000 NA
ATOM      9  H   UNL     1       6.937   3.038  18.177  0.00  0.00    +0.000 HD
ATOM     10  H   UNL     1       7.348   4.234  16.940  0.00  0.00    +0.000 HD
ATOM     11  H   UNL     1       3.504   8.578  17.231  0.00  0.00    +0.000 HD
ATOM     12  H   UNL     1       5.057   8.259  16.497  0.00  0.00    +0.000 HD
ENDROOT
BRANCH   5  13
ATOM     13  C   UNL     1       2.513   7.270  19.505  0.00  0.00    +0.000 A 
ATOM     14  C   UNL     1       1.878   7.069  20.757  0.00  0.00    +0.000 A 
ATOM     15  C   UNL     1       0.866   7.928  21.208  0.00  0.00    +0.000 A 
ATOM     16  C   UNL     1       0.443   9.000  20.425  0.00  0.00    +0.000 A 
ATOM     17  F   UNL     1      -0.519   9.843  20.877  0.00  0.00    +0.000 F 
ATOM     18  C   UNL     1       1.007   9.197  19.172  0.00  0.00    +0.000 A 
ATOM     19 CL   UNL     1       0.492  10.536  18.154  0.00  0.00    +0.000 Cl
ATOM     20  C   UNL     1       2.007   8.342  18.715  0.00  0.00    +0.000 A 
ENDBRANCH   5  13
BRANCH   4  21
ATOM     21  C   UNL     1       2.640   4.148  19.277  0.00  0.00    +0.000 A 
ATOM     22  C   UNL     1       2.197   4.187  17.936  0.00  0.00    +0.000 A 
ATOM     23  C   UNL     1       1.076   3.479  17.526  0.00  0.00    +0.000 A 
ATOM     24  C   UNL     1       0.380   2.697  18.436  0.00  0.00    +0.000 A 
ATOM     25  C   UNL     1       0.812   2.608  19.759  0.00  0.00    +0.000 A 
ATOM     26  C   UNL     1       1.940   3.320  20.216  0.00  0.00    +0.000 A 
BRANCH  26  27
ATOM     27  C   UNL     1       2.284   3.114  21.687  0.00  0.00    +0.000 C 
ATOM     28  F   UNL     1       2.570   4.262  22.392  0.00  0.00    +0.000 F 
ATOM     29  F   UNL     1       1.229   2.476  22.314  0.00  0.00    +0.000 F 
ATOM     30  F   UNL     1       3.403   2.304  21.772  0.00  0.00    +0.000 F 
ENDBRANCH  26  27
ENDBRANCH   4  21
TORSDOF 3
ENDMDL
