MODEL 1
REMARK VINA RESULT:      -7.4      0.000      0.000
REMARK  Name = 
REMARK  7 active torsions:
REMARK  status: ('A' for Active; 'I' for Inactive)
REMARK    1  A    between atoms: C_1  and  O_2
REMARK    2  A    between atoms: O_2  and  C_3
REMARK    3  A    between atoms: C_3  and  C_4
REMARK    4  A    between atoms: C_12  and  C_13
REMARK    5  A    between atoms: N_15  and  C_16
REMARK    6  A    between atoms: C_16  and  C_17
REMARK    7  A    between atoms: C_21  and  C_22
REMARK                            x       y       z     vdW  Elec       q    Type
REMARK                         _______ _______ _______ _____ _____    ______ ____
ROOT
ATOM      1  C   UNL     1       6.423   4.819  17.905  0.00  0.00    +0.000 C 
ATOM      2  O   UNL     1       7.060   4.577  16.883  0.00  0.00    +0.000 OA
ATOM      3  N   UNL     1       5.132   4.370  18.095  0.00  0.00    +0.000 N 
ATOM      4  C   UNL     1       4.444   3.583  17.128  0.00  0.00    +0.000 C 
ATOM      5  C   UNL     1       3.079   3.386  17.775  0.00  0.00    +0.000 C 
ATOM      6  C   UNL     1       2.699   1.913  17.732  0.00  0.00    +0.000 C 
ATOM      7  N   UNL     1       1.702   1.782  18.778  0.00  0.00    +0.000 NA
ATOM      8  C   UNL     1       1.694   3.086  19.457  0.00  0.00    +0.000 C 
ATOM      9  C   UNL     1       3.135   3.717  19.321  0.00  0.00    +0.000 C 
ATOM     10  C   UNL     1       4.188   4.854  19.077  0.00  0.00    +0.000 C 
ATOM     11  H   UNL     1       1.980   1.049  19.428  0.00  0.00    +0.000 HD
ENDROOT
BRANCH   9  12
ATOM     12  C   UNL     1       2.555   4.764  20.351  0.00  0.00    +0.000 C 
ATOM     13  O   UNL     1       2.257   4.535  21.520  0.00  0.00    +0.000 OA
ATOM     14  N   UNL     1       2.404   6.016  19.761  0.00  0.00    +0.000 N 
ATOM     15  H   UNL     1       2.539   6.101  18.757  0.00  0.00    +0.000 HD
BRANCH  14  16
ATOM     16  C   UNL     1       1.841   7.146  20.459  0.00  0.00    +0.000 C 
BRANCH  16  17
ATOM     17  C   UNL     1       1.746   8.268  19.501  0.00  0.00    +0.000 A 
ATOM     18  S   UNL     1       2.510   8.220  17.959  0.00  0.00    +0.000 S 
ATOM     19  N   UNL     1       1.989   9.751  17.544  0.00  0.00    +0.000 NA
ATOM     20  N   UNL     1       1.248  10.316  18.481  0.00  0.00    +0.000 NA
ATOM     21  C   UNL     1       1.094   9.492  19.589  0.00  0.00    +0.000 A 
ATOM     22  C   UNL     1       0.285   9.987  20.730  0.00  0.00    +0.000 C 
ENDBRANCH  16  17
ENDBRANCH  14  16
ENDBRANCH   9  12
BRANCH   1  23
ATOM     23  C   UNL     1       7.057   5.573  19.085  0.00  0.00    +0.000 C 
BRANCH  23  25
ATOM     24  C   UNL     1       7.631   7.525  17.877  0.00  0.00    +0.000 C 
ATOM     25  O   UNL     1       8.102   6.473  18.712  0.00  0.00    +0.000 OA
ENDBRANCH  23  25
ENDBRANCH   1  23
TORSDOF 5
ENDMDL
MODEL 2
REMARK VINA RESULT:      -7.1      2.580      5.218
REMARK  Name = 
REMARK  7 active torsions:
REMARK  status: ('A' for Active; 'I' for Inactive)
REMARK    1  A    between atoms: C_1  and  O_2
REMARK    2  A    between atoms: O_2  and  C_3
REMARK    3  A    between atoms: C_3  and  C_4
REMARK    4  A    between atoms: C_12  and  C_13
REMARK    5  A    between atoms: N_15  and  C_16
REMARK    6  A    between atoms: C_16  and  C_17
REMARK    7  A    between atoms: C_21  and  C_22
REMARK                            x       y       z     vdW  Elec       q    Type
REMARK                         _______ _______ _______ _____ _____    ______ ____
ROOT
ATOM      1  C   UNL     1       1.885   7.449  19.928  0.00  0.00    +0.000 C 
ATOM      2  O   UNL     1       1.312   7.946  20.895  0.00  0.00    +0.000 OA
ATOM      3  N   UNL     1       2.109   6.092  19.818  0.00  0.00    +0.000 N 
ATOM      4  C   UNL     1       1.682   5.162  20.809  0.00  0.00    +0.000 C 
ATOM      5  C   UNL     1       2.190   3.837  20.255  0.00  0.00    +0.000 C 
ATOM      6  C   UNL     1       1.069   2.808  20.282  0.00  0.00    +0.000 C 
ATOM      7  N   UNL     1       1.485   1.817  19.307  0.00  0.00    +0.000 NA
ATOM      8  C   UNL     1       2.678   2.394  18.668  0.00  0.00    +0.000 C 
ATOM      9  C   UNL     1       2.547   3.966  18.719  0.00  0.00    +0.000 C 
ATOM     10  C   UNL     1       3.038   5.443  18.920  0.00  0.00    +0.000 C 
ATOM     11  H   UNL     1       0.747   1.683  18.618  0.00  0.00    +0.000 HD
ENDROOT
BRANCH   9  12
ATOM     12  C   UNL     1       3.802   3.901  17.764  0.00  0.00    +0.000 C 
ATOM     13  O   UNL     1       3.788   3.591  16.577  0.00  0.00    +0.000 OA
ATOM     14  N   UNL     1       4.969   4.235  18.447  0.00  0.00    +0.000 N 
ATOM     15  H   UNL     1       4.928   4.346  19.457  0.00  0.00    +0.000 HD
BRANCH  14  16
ATOM     16  C   UNL     1       6.272   4.203  17.830  0.00  0.00    +0.000 C 
BRANCH  16  17
ATOM     17  C   UNL     1       6.761   5.595  17.733  0.00  0.00    +0.000 A 
ATOM     18  S   UNL     1       7.987   6.208  18.775  0.00  0.00    +0.000 S 
ATOM     19  N   UNL     1       7.942   7.731  18.095  0.00  0.00    +0.000 NA
ATOM     20  N   UNL     1       7.073   7.829  17.104  0.00  0.00    +0.000 NA
ATOM     21  C   UNL     1       6.402   6.633  16.881  0.00  0.00    +0.000 A 
ATOM     22  C   UNL     1       5.389   6.582  15.797  0.00  0.00    +0.000 C 
ENDBRANCH  16  17
ENDBRANCH  14  16
ENDBRANCH   9  12
BRANCH   1  23
ATOM     23  C   UNL     1       2.321   8.306  18.728  0.00  0.00    +0.000 C 
BRANCH  23  25
ATOM     24  C   UNL     1       1.331  10.444  18.499  0.00  0.00    +0.000 C 
ATOM     25  O   UNL     1       1.266   9.068  18.138  0.00  0.00    +0.000 OA
ENDBRANCH  23  25
ENDBRANCH   1  23
TORSDOF 5
ENDMDL
MODEL 3
REMARK VINA RESULT:      -7.1      2.427      3.143
REMARK  Name = 
REMARK  7 active torsions:
REMARK  status: ('A' for Active; 'I' for Inactive)
REMARK    1  A    between atoms: C_1  and  O_2
REMARK    2  A    between atoms: O_2  and  C_3
REMARK    3  A    between atoms: C_3  and  C_4
REMARK    4  A    between atoms: C_12  and  C_13
REMARK    5  A    between atoms: N_15  and  C_16
REMARK    6  A    between atoms: C_16  and  C_17
REMARK    7  A    between atoms: C_21  and  C_22
REMARK                            x       y       z     vdW  Elec       q    Type
REMARK                         _______ _______ _______ _____ _____    ______ ____
ROOT
ATOM      1  C   UNL     1       5.304   4.621  16.436  0.00  0.00    +0.000 C 
ATOM      2  O   UNL     1       5.633   3.479  16.124  0.00  0.00    +0.000 OA
ATOM      3  N   UNL     1       4.335   4.878  17.384  0.00  0.00    +0.000 N 
ATOM      4  C   UNL     1       3.651   3.842  18.082  0.00  0.00    +0.000 C 
ATOM      5  C   UNL     1       2.681   4.622  18.960  0.00  0.00    +0.000 C 
ATOM      6  C   UNL     1       2.771   4.119  20.394  0.00  0.00    +0.000 C 
ATOM      7  N   UNL     1       2.237   5.215  21.180  0.00  0.00    +0.000 NA
ATOM      8  C   UNL     1       2.047   6.312  20.219  0.00  0.00    +0.000 C 
ATOM      9  C   UNL     1       3.113   6.141  19.066  0.00  0.00    +0.000 C 
ATOM     10  C   UNL     1       3.644   6.131  17.590  0.00  0.00    +0.000 C 
ATOM     11  H   UNL     1       2.911   5.487  21.894  0.00  0.00    +0.000 HD
ENDROOT
BRANCH   9  12
ATOM     12  C   UNL     1       2.595   7.573  18.649  0.00  0.00    +0.000 C 
ATOM     13  O   UNL     1       2.914   8.187  17.635  0.00  0.00    +0.000 OA
ATOM     14  N   UNL     1       1.714   8.083  19.599  0.00  0.00    +0.000 N 
ATOM     15  H   UNL     1       1.602   7.583  20.478  0.00  0.00    +0.000 HD
BRANCH  14  16
ATOM     16  C   UNL     1       1.132   9.399  19.498  0.00  0.00    +0.000 C 
BRANCH  16  17
ATOM     17  C   UNL     1       0.699   9.807  20.851  0.00  0.00    +0.000 A 
ATOM     18  S   UNL     1       1.361   9.100  22.274  0.00  0.00    +0.000 S 
ATOM     19  N   UNL     1       0.399  10.009  23.292  0.00  0.00    +0.000 NA
ATOM     20  N   UNL     1      -0.394  10.844  22.644  0.00  0.00    +0.000 NA
ATOM     21  C   UNL     1      -0.234  10.749  21.267  0.00  0.00    +0.000 A 
ATOM     22  C   UNL     1      -1.058  11.626  20.398  0.00  0.00    +0.000 C 
ENDBRANCH  16  17
ENDBRANCH  14  16
ENDBRANCH   9  12
BRANCH   1  23
ATOM     23  C   UNL     1       6.015   5.849  15.844  0.00  0.00    +0.000 C 
BRANCH  23  25
ATOM     24  C   UNL     1       7.465   6.710  17.505  0.00  0.00    +0.000 C 
ATOM     25  O   UNL     1       7.369   6.005  16.272  0.00  0.00    +0.000 OA
ENDBRANCH  23  25
ENDBRANCH   1  23
TORSDOF 5
ENDMDL
MODEL 4
REMARK VINA RESULT:      -7.0      2.937      5.654
REMARK  Name = 
REMARK  7 active torsions:
REMARK  status: ('A' for Active; 'I' for Inactive)
REMARK    1  A    between atoms: C_1  and  O_2
REMARK    2  A    between atoms: O_2  and  C_3
REMARK    3  A    between atoms: C_3  and  C_4
REMARK    4  A    between atoms: C_12  and  C_13
REMARK    5  A    between atoms: N_15  and  C_16
REMARK    6  A    between atoms: C_16  and  C_17
REMARK    7  A    between atoms: C_21  and  C_22
REMARK                            x       y       z     vdW  Elec       q    Type
REMARK                         _______ _______ _______ _____ _____    ______ ____
ROOT
ATOM      1  C   UNL     1       1.952   7.764  19.508  0.00  0.00    +0.000 C 
ATOM      2  O   UNL     1       1.896   8.521  20.473  0.00  0.00    +0.000 OA
ATOM      3  N   UNL     1       2.155   6.406  19.644  0.00  0.00    +0.000 N 
ATOM      4  C   UNL     1       2.302   5.776  20.912  0.00  0.00    +0.000 C 
ATOM      5  C   UNL     1       2.538   4.320  20.531  0.00  0.00    +0.000 C 
ATOM      6  C   UNL     1       1.616   3.422  21.344  0.00  0.00    +0.000 C 
ATOM      7  N   UNL     1       1.553   2.198  20.569  0.00  0.00    +0.000 NA
ATOM      8  C   UNL     1       2.260   2.506  19.317  0.00  0.00    +0.000 C 
ATOM      9  C   UNL     1       2.101   4.051  19.034  0.00  0.00    +0.000 C 
ATOM     10  C   UNL     1       2.561   5.488  18.603  0.00  0.00    +0.000 C 
ATOM     11  H   UNL     1       0.580   1.964  20.374  0.00  0.00    +0.000 HD
ENDROOT
BRANCH   9  12
ATOM     12  C   UNL     1       2.739   3.658  17.644  0.00  0.00    +0.000 C 
ATOM     13  O   UNL     1       2.125   3.449  16.603  0.00  0.00    +0.000 OA
ATOM     14  N   UNL     1       4.125   3.561  17.740  0.00  0.00    +0.000 N 
ATOM     15  H   UNL     1       4.555   3.611  18.660  0.00  0.00    +0.000 HD
BRANCH  14  16
ATOM     16  C   UNL     1       4.959   3.162  16.633  0.00  0.00    +0.000 C 
BRANCH  16  17
ATOM     17  C   UNL     1       5.924   4.252  16.377  0.00  0.00    +0.000 A 
ATOM     18  S   UNL     1       6.482   5.291  17.631  0.00  0.00    +0.000 S 
ATOM     19  N   UNL     1       7.436   6.190  16.597  0.00  0.00    +0.000 NA
ATOM     20  N   UNL     1       7.393   5.758  15.348  0.00  0.00    +0.000 NA
ATOM     21  C   UNL     1       6.550   4.662  15.206  0.00  0.00    +0.000 A 
ATOM     22  C   UNL     1       6.395   4.061  13.858  0.00  0.00    +0.000 C 
ENDBRANCH  16  17
ENDBRANCH  14  16
ENDBRANCH   9  12
BRANCH   1  23
ATOM     23  C   UNL     1       1.715   8.273  18.076  0.00  0.00    +0.000 C 
BRANCH  23  25
ATOM     24  C   UNL     1       2.029  10.611  17.897  0.00  0.00    +0.000 C 
ATOM     25  O   UNL     1       2.594   9.324  17.674  0.00  0.00    +0.000 OA
ENDBRANCH  23  25
ENDBRANCH   1  23
TORSDOF 5
ENDMDL
MODEL 5
REMARK VINA RESULT:      -6.9      2.416      5.348
REMARK  Name = 
REMARK  7 active torsions:
REMARK  status: ('A' for Active; 'I' for Inactive)
REMARK    1  A    between atoms: C_1  and  O_2
REMARK    2  A    between atoms: O_2  and  C_3
REMARK    3  A    between atoms: C_3  and  C_4
REMARK    4  A    between atoms: C_12  and  C_13
REMARK    5  A    between atoms: N_15  and  C_16
REMARK    6  A    between atoms: C_16  and  C_17
REMARK    7  A    between atoms: C_21  and  C_22
REMARK                            x       y       z     vdW  Elec       q    Type
REMARK                         _______ _______ _______ _____ _____    ______ ____
ROOT
ATOM      1  C   UNL     1       1.952   7.330  19.899  0.00  0.00    +0.000 C 
ATOM      2  O   UNL     1       1.363   7.763  20.886  0.00  0.00    +0.000 OA
ATOM      3  N   UNL     1       2.226   5.988  19.731  0.00  0.00    +0.000 N 
ATOM      4  C   UNL     1       1.837   5.001  20.682  0.00  0.00    +0.000 C 
ATOM      5  C   UNL     1       2.393   3.720  20.072  0.00  0.00    +0.000 C 
ATOM      6  C   UNL     1       1.310   2.650  20.056  0.00  0.00    +0.000 C 
ATOM      7  N   UNL     1       1.761   1.718  19.040  0.00  0.00    +0.000 NA
ATOM      8  C   UNL     1       2.929   2.365  18.424  0.00  0.00    +0.000 C 
ATOM      9  C   UNL     1       2.740   3.928  18.542  0.00  0.00    +0.000 C 
ATOM     10  C   UNL     1       3.176   5.413  18.805  0.00  0.00    +0.000 C 
ATOM     11  H   UNL     1       1.026   1.585  18.346  0.00  0.00    +0.000 HD
ENDROOT
BRANCH   9  12
ATOM     12  C   UNL     1       3.994   3.950  17.583  0.00  0.00    +0.000 C 
ATOM     13  O   UNL     1       3.966   3.866  16.359  0.00  0.00    +0.000 OA
ATOM     14  N   UNL     1       5.177   4.069  18.309  0.00  0.00    +0.000 N 
ATOM     15  H   UNL     1       5.136   3.995  19.322  0.00  0.00    +0.000 HD
BRANCH  14  16
ATOM     16  C   UNL     1       6.479   4.058  17.688  0.00  0.00    +0.000 C 
BRANCH  16  17
ATOM     17  C   UNL     1       6.994   5.444  17.695  0.00  0.00    +0.000 A 
ATOM     18  S   UNL     1       6.724   6.525  16.383  0.00  0.00    +0.000 S 
ATOM     19  N   UNL     1       7.584   7.764  17.098  0.00  0.00    +0.000 NA
ATOM     20  N   UNL     1       8.062   7.442  18.288  0.00  0.00    +0.000 NA
ATOM     21  C   UNL     1       7.733   6.139  18.644  0.00  0.00    +0.000 A 
ATOM     22  C   UNL     1       8.199   5.627  19.957  0.00  0.00    +0.000 C 
ENDBRANCH  16  17
ENDBRANCH  14  16
ENDBRANCH   9  12
BRANCH   1  23
ATOM     23  C   UNL     1       2.352   8.253  18.736  0.00  0.00    +0.000 C 
BRANCH  23  25
ATOM     24  C   UNL     1       1.302  10.364  18.537  0.00  0.00    +0.000 C 
ATOM     25  O   UNL     1       1.266   8.989  18.171  0.00  0.00    +0.000 OA
ENDBRANCH  23  25
ENDBRANCH   1  23
TORSDOF 5
ENDMDL
MODEL 6
REMARK VINA RESULT:      -6.9      2.705      5.268
REMARK  Name = 
REMARK  7 active torsions:
REMARK  status: ('A' for Active; 'I' for Inactive)
REMARK    1  A    between atoms: C_1  and  O_2
REMARK    2  A    between atoms: O_2  and  C_3
REMARK    3  A    between atoms: C_3  and  C_4
REMARK    4  A    between atoms: C_12  and  C_13
REMARK    5  A    between atoms: N_15  and  C_16
REMARK    6  A    between atoms: C_16  and  C_17
REMARK    7  A    between atoms: C_21  and  C_22
REMARK                            x       y       z     vdW  Elec       q    Type
REMARK                         _______ _______ _______ _____ _____    ______ ____
ROOT
ATOM      1  C   UNL     1       1.267   6.753  20.581  0.00  0.00    +0.000 C 
ATOM      2  O   UNL     1       0.158   7.043  21.022  0.00  0.00    +0.000 OA
ATOM      3  N   UNL     1       1.646   5.450  20.331  0.00  0.00    +0.000 N 
ATOM      4  C   UNL     1       0.778   4.343  20.553  0.00  0.00    +0.000 C 
ATOM      5  C   UNL     1       1.656   3.156  20.175  0.00  0.00    +0.000 C 
ATOM      6  C   UNL     1       0.897   2.240  19.225  0.00  0.00    +0.000 C 
ATOM      7  N   UNL     1       1.944   1.487  18.562  0.00  0.00    +0.000 NA
ATOM      8  C   UNL     1       3.199   2.108  19.010  0.00  0.00    +0.000 C 
ATOM      9  C   UNL     1       2.906   3.627  19.328  0.00  0.00    +0.000 C 
ATOM     10  C   UNL     1       2.996   4.969  20.136  0.00  0.00    +0.000 C 
ATOM     11  H   UNL     1       1.847   1.580  17.551  0.00  0.00    +0.000 HD
ENDROOT
BRANCH   9  12
ATOM     12  C   UNL     1       4.480   3.699  19.439  0.00  0.00    +0.000 C 
ATOM     13  O   UNL     1       5.217   2.796  19.822  0.00  0.00    +0.000 OA
ATOM     14  N   UNL     1       4.952   4.950  19.050  0.00  0.00    +0.000 N 
ATOM     15  H   UNL     1       4.279   5.692  18.877  0.00  0.00    +0.000 HD
BRANCH  14  16
ATOM     16  C   UNL     1       6.348   5.310  19.106  0.00  0.00    +0.000 C 
BRANCH  16  17
ATOM     17  C   UNL     1       6.811   5.542  17.721  0.00  0.00    +0.000 A 
ATOM     18  S   UNL     1       6.637   4.354  16.489  0.00  0.00    +0.000 S 
ATOM     19  N   UNL     1       7.377   5.303  15.332  0.00  0.00    +0.000 NA
ATOM     20  N   UNL     1       7.743   6.487  15.792  0.00  0.00    +0.000 NA
ATOM     21  C   UNL     1       7.426   6.642  17.136  0.00  0.00    +0.000 A 
ATOM     22  C   UNL     1       7.775   7.923  17.801  0.00  0.00    +0.000 C 
ENDBRANCH  16  17
ENDBRANCH  14  16
ENDBRANCH   9  12
BRANCH   1  23
ATOM     23  C   UNL     1       2.285   7.839  20.197  0.00  0.00    +0.000 C 
BRANCH  23  25
ATOM     24  C   UNL     1       2.411   8.280  17.875  0.00  0.00    +0.000 C 
ATOM     25  O   UNL     1       1.864   8.684  19.125  0.00  0.00    +0.000 OA
ENDBRANCH  23  25
ENDBRANCH   1  23
TORSDOF 5
ENDMDL
MODEL 7
REMARK VINA RESULT:      -6.9      2.859      5.984
REMARK  Name = 
REMARK  7 active torsions:
REMARK  status: ('A' for Active; 'I' for Inactive)
REMARK    1  A    between atoms: C_1  and  O_2
REMARK    2  A    between atoms: O_2  and  C_3
REMARK    3  A    between atoms: C_3  and  C_4
REMARK    4  A    between atoms: C_12  and  C_13
REMARK    5  A    between atoms: N_15  and  C_16
REMARK    6  A    between atoms: C_16  and  C_17
REMARK    7  A    between atoms: C_21  and  C_22
REMARK                            x       y       z     vdW  Elec       q    Type
REMARK                         _______ _______ _______ _____ _____    ______ ____
ROOT
ATOM      1  C   UNL     1       1.323   8.901  19.594  0.00  0.00    +0.000 C 
ATOM      2  O   UNL     1       0.856   9.471  20.576  0.00  0.00    +0.000 OA
ATOM      3  N   UNL     1       1.746   7.588  19.632  0.00  0.00    +0.000 N 
ATOM      4  C   UNL     1       1.662   6.790  20.809  0.00  0.00    +0.000 C 
ATOM      5  C   UNL     1       2.276   5.471  20.356  0.00  0.00    +0.000 C 
ATOM      6  C   UNL     1       1.364   4.319  20.751  0.00  0.00    +0.000 C 
ATOM      7  N   UNL     1       1.759   3.244  19.861  0.00  0.00    +0.000 NA
ATOM      8  C   UNL     1       2.707   3.860  18.921  0.00  0.00    +0.000 C 
ATOM      9  C   UNL     1       2.328   5.386  18.777  0.00  0.00    +0.000 C 
ATOM     10  C   UNL     1       2.595   6.929  18.666  0.00  0.00    +0.000 C 
ATOM     11  H   UNL     1       0.943   2.895  19.360  0.00  0.00    +0.000 HD
ENDROOT
BRANCH   9  12
ATOM     12  C   UNL     1       3.387   5.331  17.607  0.00  0.00    +0.000 C 
ATOM     13  O   UNL     1       3.558   4.394  16.834  0.00  0.00    +0.000 OA
ATOM     14  N   UNL     1       4.139   6.503  17.557  0.00  0.00    +0.000 N 
ATOM     15  H   UNL     1       4.039   7.178  18.310  0.00  0.00    +0.000 HD
BRANCH  14  16
ATOM     16  C   UNL     1       5.217   6.700  16.619  0.00  0.00    +0.000 C 
BRANCH  16  17
ATOM     17  C   UNL     1       6.323   5.798  17.006  0.00  0.00    +0.000 A 
ATOM     18  S   UNL     1       6.995   5.804  18.590  0.00  0.00    +0.000 S 
ATOM     19  N   UNL     1       8.118   4.624  18.225  0.00  0.00    +0.000 NA
ATOM     20  N   UNL     1       8.024   4.189  16.980  0.00  0.00    +0.000 NA
ATOM     21  C   UNL     1       7.013   4.835  16.279  0.00  0.00    +0.000 A 
ATOM     22  C   UNL     1       6.783   4.457  14.863  0.00  0.00    +0.000 C 
ENDBRANCH  16  17
ENDBRANCH  14  16
ENDBRANCH   9  12
BRANCH   1  23
ATOM     23  C   UNL     1       1.391   9.593  18.222  0.00  0.00    +0.000 C 
BRANCH  23  25
ATOM     24  C   UNL     1       1.920  11.889  18.445  0.00  0.00    +0.000 C 
ATOM     25  O   UNL     1       2.407  10.592  18.119  0.00  0.00    +0.000 OA
ENDBRANCH  23  25
ENDBRANCH   1  23
TORSDOF 5
ENDMDL
MODEL 8
REMARK VINA RESULT:      -6.8      0.883      1.344
REMARK  Name = 
REMARK  7 active torsions:
REMARK  status: ('A' for Active; 'I' for Inactive)
REMARK    1  A    between atoms: C_1  and  O_2
REMARK    2  A    between atoms: O_2  and  C_3
REMARK    3  A    between atoms: C_3  and  C_4
REMARK    4  A    between atoms: C_12  and  C_13
REMARK    5  A    between atoms: N_15  and  C_16
REMARK    6  A    between atoms: C_16  and  C_17
REMARK    7  A    between atoms: C_21  and  C_22
REMARK                            x       y       z     vdW  Elec       q    Type
REMARK                         _______ _______ _______ _____ _____    ______ ____
ROOT
ATOM      1  C   UNL     1       6.426   4.806  17.732  0.00  0.00    +0.000 C 
ATOM      2  O   UNL     1       7.031   4.565  16.691  0.00  0.00    +0.000 OA
ATOM      3  N   UNL     1       5.127   4.392  17.945  0.00  0.00    +0.000 N 
ATOM      4  C   UNL     1       4.392   3.646  16.981  0.00  0.00    +0.000 C 
ATOM      5  C   UNL     1       3.037   3.478  17.658  0.00  0.00    +0.000 C 
ATOM      6  C   UNL     1       2.612   2.018  17.596  0.00  0.00    +0.000 C 
ATOM      7  N   UNL     1       1.637   1.897  18.663  0.00  0.00    +0.000 NA
ATOM      8  C   UNL     1       1.685   3.186  19.368  0.00  0.00    +0.000 C 
ATOM      9  C   UNL     1       3.141   3.776  19.208  0.00  0.00    +0.000 C 
ATOM     10  C   UNL     1       4.223   4.885  18.960  0.00  0.00    +0.000 C 
ATOM     11  H   UNL     1       1.908   1.142  19.292  0.00  0.00    +0.000 HD
ENDROOT
BRANCH   9  12
ATOM     12  C   UNL     1       2.618   4.819  20.272  0.00  0.00    +0.000 C 
ATOM     13  O   UNL     1       2.340   4.576  21.442  0.00  0.00    +0.000 OA
ATOM     14  N   UNL     1       2.495   6.088  19.711  0.00  0.00    +0.000 N 
ATOM     15  H   UNL     1       2.609   6.189  18.706  0.00  0.00    +0.000 HD
BRANCH  14  16
ATOM     16  C   UNL     1       1.984   7.220  20.444  0.00  0.00    +0.000 C 
BRANCH  16  17
ATOM     17  C   UNL     1       1.777   8.325  19.483  0.00  0.00    +0.000 A 
ATOM     18  S   UNL     1       0.718   9.639  19.817  0.00  0.00    +0.000 S 
ATOM     19  N   UNL     1       1.001  10.371  18.343  0.00  0.00    +0.000 NA
ATOM     20  N   UNL     1       1.867   9.708  17.596  0.00  0.00    +0.000 NA
ATOM     21  C   UNL     1       2.320   8.554  18.225  0.00  0.00    +0.000 A 
ATOM     22  C   UNL     1       3.300   7.699  17.510  0.00  0.00    +0.000 C 
ENDBRANCH  16  17
ENDBRANCH  14  16
ENDBRANCH   9  12
BRANCH   1  23
ATOM     23  C   UNL     1       7.112   5.517  18.911  0.00  0.00    +0.000 C 
BRANCH  23  25
ATOM     24  C   UNL     1       7.691   7.577  17.901  0.00  0.00    +0.000 C 
ATOM     25  O   UNL     1       8.172   6.394  18.529  0.00  0.00    +0.000 OA
ENDBRANCH  23  25
ENDBRANCH   1  23
TORSDOF 5
ENDMDL
MODEL 9
REMARK VINA RESULT:      -6.8      2.248      2.678
REMARK  Name = 
REMARK  7 active torsions:
REMARK  status: ('A' for Active; 'I' for Inactive)
REMARK    1  A    between atoms: C_1  and  O_2
REMARK    2  A    between atoms: O_2  and  C_3
REMARK    3  A    between atoms: C_3  and  C_4
REMARK    4  A    between atoms: C_12  and  C_13
REMARK    5  A    between atoms: N_15  and  C_16
REMARK    6  A    between atoms: C_16  and  C_17
REMARK    7  A    between atoms: C_21  and  C_22
REMARK                            x       y       z     vdW  Elec       q    Type
REMARK                         _______ _______ _______ _____ _____    ______ ____
ROOT
ATOM      1  C   UNL     1       7.191   5.380  17.798  0.00  0.00    +0.000 C 
ATOM      2  O   UNL     1       7.927   4.420  17.582  0.00  0.00    +0.000 OA
ATOM      3  N   UNL     1       5.816   5.287  17.733  0.00  0.00    +0.000 N 
ATOM      4  C   UNL     1       5.143   4.072  17.421  0.00  0.00    +0.000 C 
ATOM      5  C   UNL     1       3.680   4.494  17.433  0.00  0.00    +0.000 C 
ATOM      6  C   UNL     1       2.873   3.520  18.281  0.00  0.00    +0.000 C 
ATOM      7  N   UNL     1       1.683   4.271  18.632  0.00  0.00    +0.000 NA
ATOM      8  C   UNL     1       1.939   5.634  18.145  0.00  0.00    +0.000 C 
ATOM      9  C   UNL     1       3.498   5.879  18.175  0.00  0.00    +0.000 C 
ATOM     10  C   UNL     1       4.883   6.388  17.641  0.00  0.00    +0.000 C 
ATOM     11  H   UNL     1       1.566   4.276  19.645  0.00  0.00    +0.000 HD
ENDROOT
BRANCH   9  12
ATOM     12  C   UNL     1       3.068   7.366  17.863  0.00  0.00    +0.000 C 
ATOM     13  O   UNL     1       3.568   8.097  17.013  0.00  0.00    +0.000 OA
ATOM     14  N   UNL     1       2.029   7.772  18.696  0.00  0.00    +0.000 N 
ATOM     15  H   UNL     1       1.757   7.166  19.466  0.00  0.00    +0.000 HD
BRANCH  14  16
ATOM     16  C   UNL     1       1.478   9.105  18.665  0.00  0.00    +0.000 C 
BRANCH  16  17
ATOM     17  C   UNL     1       1.207   9.514  20.060  0.00  0.00    +0.000 A 
ATOM     18  S   UNL     1       1.202   8.386  21.359  0.00  0.00    +0.000 S 
ATOM     19  N   UNL     1       0.815   9.546  22.496  0.00  0.00    +0.000 NA
ATOM     20  N   UNL     1       0.702  10.757  21.979  0.00  0.00    +0.000 NA
ATOM     21  C   UNL     1       0.926  10.760  20.608  0.00  0.00    +0.000 A 
ATOM     22  C   UNL     1       0.835  12.051  19.880  0.00  0.00    +0.000 C 
ENDBRANCH  16  17
ENDBRANCH  14  16
ENDBRANCH   9  12
BRANCH   1  23
ATOM     23  C   UNL     1       7.758   6.738  18.244  0.00  0.00    +0.000 C 
BRANCH  23  25
ATOM     24  C   UNL     1       7.975   9.034  17.714  0.00  0.00    +0.000 C 
ATOM     25  O   UNL     1       7.826   7.714  17.203  0.00  0.00    +0.000 OA
ENDBRANCH  23  25
ENDBRANCH   1  23
TORSDOF 5
ENDMDL
