MODEL 1
REMARK VINA RESULT:      -8.5      0.000      0.000
REMARK  Name = 
REMARK  6 active torsions:
REMARK  status: ('A' for Active; 'I' for Inactive)
REMARK    1  A    between atoms: N_2  and  C_3
REMARK    2  A    between atoms: N_9  and  S_10
REMARK    3  A    between atoms: S_10  and  C_13
REMARK    4  A    between atoms: C_15  and  O_16
REMARK    5  A    between atoms: O_16  and  C_17
REMARK    6  A    between atoms: N_23  and  C_24
REMARK                            x       y       z     vdW  Elec       q    Type
REMARK                         _______ _______ _______ _____ _____    ______ ____
ROOT
ATOM      1  C   UNL     1       2.063   8.442  18.823  0.00  0.00    +0.000 A 
ATOM      2  C   UNL     1       3.078   8.148  17.895  0.00  0.00    +0.000 A 
ATOM      3  C   UNL     1       3.542   6.850  17.749  0.00  0.00    +0.000 A 
ATOM      4  C   UNL     1       2.913   5.939  18.585  0.00  0.00    +0.000 A 
ATOM      5  C   UNL     1       2.479   6.283  19.862  0.00  0.00    +0.000 A 
ATOM      6  C   UNL     1       1.768   7.539  19.865  0.00  0.00    +0.000 A 
ATOM      7  C   UNL     1       2.350   4.962  20.421  0.00  0.00    +0.000 A 
ATOM      8  C   UNL     1       1.476   4.444  19.476  0.00  0.00    +0.000 A 
ATOM      9  N   UNL     1       2.306   4.696  18.363  0.00  0.00    +0.000 N 
ATOM     10  C   UNL     1       2.732   3.877  17.254  0.00  0.00    +0.000 C 
ATOM     11  C   UNL     1       0.595   3.315  19.938  0.00  0.00    +0.000 C 
ATOM     12  C   UNL     1       1.445   2.327  20.810  0.00  0.00    +0.000 C 
ATOM     13  C   UNL     1       2.467   1.685  19.891  0.00  0.00    +0.000 C 
ATOM     14  C   UNL     1       3.703   2.585  20.094  0.00  0.00    +0.000 C 
ATOM     15  C   UNL     1       3.263   3.799  21.003  0.00  0.00    +0.000 C 
ATOM     16  N   UNL     1       2.322   3.001  21.825  0.00  0.00    +0.000 NA
ATOM     17  H   UNL     1       1.791   3.628  22.419  0.00  0.00    +0.000 HD
ENDROOT
BRANCH   1  18
ATOM     18  S   UNL     1       1.164   9.891  18.377  0.00  0.00    +0.000 S 
ATOM     19  O   UNL     1       0.159   9.487  17.402  0.00  0.00    +0.000 OA
ATOM     20  O   UNL     1       2.147  10.887  18.000  0.00  0.00    +0.000 OA
BRANCH  18  27
ATOM     21  C   UNL     1      -3.224  11.767  18.835  0.00  0.00    +0.000 A 
ATOM     22  C   UNL     1      -3.451  12.459  20.019  0.00  0.00    +0.000 A 
ATOM     23  C   UNL     1      -2.450  12.495  20.988  0.00  0.00    +0.000 A 
ATOM     24  C   UNL     1      -1.219  11.837  20.754  0.00  0.00    +0.000 A 
ATOM     25  C   UNL     1      -0.020  11.763  21.515  0.00  0.00    +0.000 A 
ATOM     26  C   UNL     1       0.884  11.022  20.796  0.00  0.00    +0.000 A 
ATOM     27  N   UNL     1       0.272  10.612  19.636  0.00  0.00    +0.000 N 
ATOM     28  C   UNL     1      -1.020  11.119  19.559  0.00  0.00    +0.000 A 
ATOM     29  C   UNL     1      -2.029  11.075  18.569  0.00  0.00    +0.000 A 
BRANCH  21  31
ATOM     30  C   UNL     1      -5.064  11.775  17.044  0.00  0.00    +0.000 C 
ATOM     31  N   UNL     1      -4.226  11.777  17.863  0.00  0.00    +0.000 NA
ENDBRANCH  21  31
ENDBRANCH  18  27
ENDBRANCH   1  18
BRANCH   3  32
ATOM     32  O   UNL     1       4.320   6.444  16.708  0.00  0.00    +0.000 OA
ATOM     33  C   UNL     1       5.700   6.352  17.070  0.00  0.00    +0.000 C 
ENDBRANCH   3  32
TORSDOF 4
ENDMDL
MODEL 2
REMARK VINA RESULT:      -8.1      2.530      4.353
REMARK  Name = 
REMARK  6 active torsions:
REMARK  status: ('A' for Active; 'I' for Inactive)
REMARK    1  A    between atoms: N_2  and  C_3
REMARK    2  A    between atoms: N_9  and  S_10
REMARK    3  A    between atoms: S_10  and  C_13
REMARK    4  A    between atoms: C_15  and  O_16
REMARK    5  A    between atoms: O_16  and  C_17
REMARK    6  A    between atoms: N_23  and  C_24
REMARK                            x       y       z     vdW  Elec       q    Type
REMARK                         _______ _______ _______ _____ _____    ______ ____
ROOT
ATOM      1  C   UNL     1       1.739   7.447  19.924  0.00  0.00    +0.000 A 
ATOM      2  C   UNL     1       1.587   6.137  20.413  0.00  0.00    +0.000 A 
ATOM      3  C   UNL     1       2.452   5.132  20.010  0.00  0.00    +0.000 A 
ATOM      4  C   UNL     1       3.426   5.562  19.120  0.00  0.00    +0.000 A 
ATOM      5  C   UNL     1       3.179   6.557  18.178  0.00  0.00    +0.000 A 
ATOM      6  C   UNL     1       2.499   7.689  18.761  0.00  0.00    +0.000 A 
ATOM      7  C   UNL     1       4.273   6.294  17.279  0.00  0.00    +0.000 A 
ATOM      8  C   UNL     1       5.304   6.410  18.201  0.00  0.00    +0.000 A 
ATOM      9  N   UNL     1       4.819   5.420  19.081  0.00  0.00    +0.000 N 
ATOM     10  C   UNL     1       5.443   4.286  19.720  0.00  0.00    +0.000 C 
ATOM     11  C   UNL     1       6.646   6.804  17.646  0.00  0.00    +0.000 C 
ATOM     12  C   UNL     1       6.901   6.014  16.316  0.00  0.00    +0.000 C 
ATOM     13  C   UNL     1       7.037   4.549  16.683  0.00  0.00    +0.000 C 
ATOM     14  C   UNL     1       5.603   4.023  16.466  0.00  0.00    +0.000 C 
ATOM     15  C   UNL     1       4.684   5.265  16.141  0.00  0.00    +0.000 C 
ATOM     16  N   UNL     1       5.728   5.991  15.379  0.00  0.00    +0.000 NA
ATOM     17  H   UNL     1       5.395   6.928  15.175  0.00  0.00    +0.000 HD
ENDROOT
BRANCH   1  18
ATOM     18  S   UNL     1       1.061   8.643  21.027  0.00  0.00    +0.000 S 
ATOM     19  O   UNL     1       2.085   8.936  22.021  0.00  0.00    +0.000 OA
ATOM     20  O   UNL     1      -0.217   8.121  21.467  0.00  0.00    +0.000 OA
BRANCH  18  27
ATOM     21  C   UNL     1      -1.977  12.224  21.988  0.00  0.00    +0.000 A 
ATOM     22  C   UNL     1      -2.086  13.191  20.995  0.00  0.00    +0.000 A 
ATOM     23  C   UNL     1      -1.278  13.097  19.864  0.00  0.00    +0.000 A 
ATOM     24  C   UNL     1      -0.368  12.021  19.735  0.00  0.00    +0.000 A 
ATOM     25  C   UNL     1       0.511  11.638  18.686  0.00  0.00    +0.000 A 
ATOM     26  C   UNL     1       1.139  10.480  19.069  0.00  0.00    +0.000 A 
ATOM     27  N   UNL     1       0.698  10.154  20.330  0.00  0.00    +0.000 N 
ATOM     28  C   UNL     1      -0.256  11.066  20.765  0.00  0.00    +0.000 A 
ATOM     29  C   UNL     1      -1.069  11.154  21.919  0.00  0.00    +0.000 A 
BRANCH  21  31
ATOM     30  C   UNL     1      -3.539  12.388  24.021  0.00  0.00    +0.000 C 
ATOM     31  N   UNL     1      -2.823  12.319  23.095  0.00  0.00    +0.000 NA
ENDBRANCH  21  31
ENDBRANCH  18  27
ENDBRANCH   1  18
BRANCH   3  32
ATOM     32  O   UNL     1       2.535   3.922  20.628  0.00  0.00    +0.000 OA
ATOM     33  C   UNL     1       1.263   3.275  20.721  0.00  0.00    +0.000 C 
ENDBRANCH   3  32
TORSDOF 4
ENDMDL
MODEL 3
REMARK VINA RESULT:      -8.1      2.390      4.018
REMARK  Name = 
REMARK  6 active torsions:
REMARK  status: ('A' for Active; 'I' for Inactive)
REMARK    1  A    between atoms: N_2  and  C_3
REMARK    2  A    between atoms: N_9  and  S_10
REMARK    3  A    between atoms: S_10  and  C_13
REMARK    4  A    between atoms: C_15  and  O_16
REMARK    5  A    between atoms: O_16  and  C_17
REMARK    6  A    between atoms: N_23  and  C_24
REMARK                            x       y       z     vdW  Elec       q    Type
REMARK                         _______ _______ _______ _____ _____    ______ ____
ROOT
ATOM      1  C   UNL     1       1.600   7.565  19.993  0.00  0.00    +0.000 A 
ATOM      2  C   UNL     1       1.247   6.226  20.240  0.00  0.00    +0.000 A 
ATOM      3  C   UNL     1       2.025   5.191  19.746  0.00  0.00    +0.000 A 
ATOM      4  C   UNL     1       3.128   5.623  19.023  0.00  0.00    +0.000 A 
ATOM      5  C   UNL     1       3.097   6.778  18.246  0.00  0.00    +0.000 A 
ATOM      6  C   UNL     1       2.497   7.884  18.954  0.00  0.00    +0.000 A 
ATOM      7  C   UNL     1       4.239   6.517  17.407  0.00  0.00    +0.000 A 
ATOM      8  C   UNL     1       5.177   6.350  18.417  0.00  0.00    +0.000 A 
ATOM      9  N   UNL     1       4.492   5.307  19.076  0.00  0.00    +0.000 N 
ATOM     10  C   UNL     1       4.911   4.015  19.563  0.00  0.00    +0.000 C 
ATOM     11  C   UNL     1       6.605   6.646  18.048  0.00  0.00    +0.000 C 
ATOM     12  C   UNL     1       6.901   6.049  16.629  0.00  0.00    +0.000 C 
ATOM     13  C   UNL     1       6.827   4.539  16.754  0.00  0.00    +0.000 C 
ATOM     14  C   UNL     1       5.371   4.247  16.335  0.00  0.00    +0.000 C 
ATOM     15  C   UNL     1       4.641   5.635  16.150  0.00  0.00    +0.000 C 
ATOM     16  N   UNL     1       5.835   6.328  15.609  0.00  0.00    +0.000 NA
ATOM     17  H   UNL     1       5.636   7.320  15.540  0.00  0.00    +0.000 HD
ENDROOT
BRANCH   1  18
ATOM     18  S   UNL     1       0.956   8.651  21.223  0.00  0.00    +0.000 S 
ATOM     19  O   UNL     1       1.969   8.765  22.264  0.00  0.00    +0.000 OA
ATOM     20  O   UNL     1      -0.357   8.149  21.571  0.00  0.00    +0.000 OA
BRANCH  18  27
ATOM     21  C   UNL     1      -1.546  10.763  17.721  0.00  0.00    +0.000 A 
ATOM     22  C   UNL     1      -1.288  12.118  17.544  0.00  0.00    +0.000 A 
ATOM     23  C   UNL     1      -0.409  12.762  18.412  0.00  0.00    +0.000 A 
ATOM     24  C   UNL     1       0.214  12.033  19.453  0.00  0.00    +0.000 A 
ATOM     25  C   UNL     1       1.184  12.402  20.424  0.00  0.00    +0.000 A 
ATOM     26  C   UNL     1       1.471  11.287  21.171  0.00  0.00    +0.000 A 
ATOM     27  N   UNL     1       0.689  10.254  20.711  0.00  0.00    +0.000 N 
ATOM     28  C   UNL     1      -0.082  10.668  19.632  0.00  0.00    +0.000 A 
ATOM     29  C   UNL     1      -0.974  10.004  18.757  0.00  0.00    +0.000 A 
BRANCH  21  31
ATOM     30  C   UNL     1      -3.124   9.610  16.055  0.00  0.00    +0.000 C 
ATOM     31  N   UNL     1      -2.400  10.132  16.816  0.00  0.00    +0.000 NA
ENDBRANCH  21  31
ENDBRANCH  18  27
ENDBRANCH   1  18
BRANCH   3  32
ATOM     32  O   UNL     1       1.903   3.899  20.155  0.00  0.00    +0.000 OA
ATOM     33  C   UNL     1       1.203   3.095  19.203  0.00  0.00    +0.000 C 
ENDBRANCH   3  32
TORSDOF 4
ENDMDL
MODEL 4
REMARK VINA RESULT:      -7.9      2.037      4.274
REMARK  Name = 
REMARK  6 active torsions:
REMARK  status: ('A' for Active; 'I' for Inactive)
REMARK    1  A    between atoms: N_2  and  C_3
REMARK    2  A    between atoms: N_9  and  S_10
REMARK    3  A    between atoms: S_10  and  C_13
REMARK    4  A    between atoms: C_15  and  O_16
REMARK    5  A    between atoms: O_16  and  C_17
REMARK    6  A    between atoms: N_23  and  C_24
REMARK                            x       y       z     vdW  Elec       q    Type
REMARK                         _______ _______ _______ _____ _____    ______ ____
ROOT
ATOM      1  C   UNL     1       1.924   8.450  18.439  0.00  0.00    +0.000 A 
ATOM      2  C   UNL     1       1.542   7.291  19.139  0.00  0.00    +0.000 A 
ATOM      3  C   UNL     1       2.338   6.157  19.107  0.00  0.00    +0.000 A 
ATOM      4  C   UNL     1       3.487   6.306  18.343  0.00  0.00    +0.000 A 
ATOM      5  C   UNL     1       3.515   7.094  17.196  0.00  0.00    +0.000 A 
ATOM      6  C   UNL     1       2.886   8.375  17.411  0.00  0.00    +0.000 A 
ATOM      7  C   UNL     1       4.702   6.557  16.581  0.00  0.00    +0.000 A 
ATOM      8  C   UNL     1       5.576   6.784  17.636  0.00  0.00    +0.000 A 
ATOM      9  N   UNL     1       4.841   6.048  18.590  0.00  0.00    +0.000 N 
ATOM     10  C   UNL     1       5.216   5.030  19.541  0.00  0.00    +0.000 C 
ATOM     11  C   UNL     1       7.027   6.941  17.270  0.00  0.00    +0.000 C 
ATOM     12  C   UNL     1       7.400   5.868  16.191  0.00  0.00    +0.000 C 
ATOM     13  C   UNL     1       7.303   4.509  16.856  0.00  0.00    +0.000 C 
ATOM     14  C   UNL     1       5.872   4.066  16.488  0.00  0.00    +0.000 C 
ATOM     15  C   UNL     1       5.169   5.279  15.762  0.00  0.00    +0.000 C 
ATOM     16  N   UNL     1       6.401   5.740  15.078  0.00  0.00    +0.000 NA
ATOM     17  H   UNL     1       6.217   6.635  14.637  0.00  0.00    +0.000 HD
ENDROOT
BRANCH   1  18
ATOM     18  S   UNL     1       1.220   9.905  19.142  0.00  0.00    +0.000 S 
ATOM     19  O   UNL     1       2.080  11.020  18.766  0.00  0.00    +0.000 OA
ATOM     20  O   UNL     1       1.009   9.623  20.548  0.00  0.00    +0.000 OA
BRANCH  18  27
ATOM     21  C   UNL     1      -2.347  12.762  20.588  0.00  0.00    +0.000 A 
ATOM     22  C   UNL     1      -3.537  12.628  19.880  0.00  0.00    +0.000 A 
ATOM     23  C   UNL     1      -3.586  11.759  18.793  0.00  0.00    +0.000 A 
ATOM     24  C   UNL     1      -2.435  11.021  18.427  0.00  0.00    +0.000 A 
ATOM     25  C   UNL     1      -2.216  10.033  17.429  0.00  0.00    +0.000 A 
ATOM     26  C   UNL     1      -0.914   9.613  17.538  0.00  0.00    +0.000 A 
ATOM     27  N   UNL     1      -0.318  10.331  18.547  0.00  0.00    +0.000 N 
ATOM     28  C   UNL     1      -1.233  11.193  19.140  0.00  0.00    +0.000 A 
ATOM     29  C   UNL     1      -1.171  12.074  20.245  0.00  0.00    +0.000 A 
BRANCH  21  31
ATOM     30  C   UNL     1      -2.326  14.330  22.622  0.00  0.00    +0.000 C 
ATOM     31  N   UNL     1      -2.332  13.610  21.696  0.00  0.00    +0.000 NA
ENDBRANCH  21  31
ENDBRANCH  18  27
ENDBRANCH   1  18
BRANCH   3  32
ATOM     32  O   UNL     1       2.177   5.104  19.954  0.00  0.00    +0.000 OA
ATOM     33  C   UNL     1       1.616   3.964  19.298  0.00  0.00    +0.000 C 
ENDBRANCH   3  32
TORSDOF 4
ENDMDL
MODEL 5
REMARK VINA RESULT:      -7.8      1.761      1.989
REMARK  Name = 
REMARK  6 active torsions:
REMARK  status: ('A' for Active; 'I' for Inactive)
REMARK    1  A    between atoms: N_2  and  C_3
REMARK    2  A    between atoms: N_9  and  S_10
REMARK    3  A    between atoms: S_10  and  C_13
REMARK    4  A    between atoms: C_15  and  O_16
REMARK    5  A    between atoms: O_16  and  C_17
REMARK    6  A    between atoms: N_23  and  C_24
REMARK                            x       y       z     vdW  Elec       q    Type
REMARK                         _______ _______ _______ _____ _____    ______ ____
ROOT
ATOM      1  C   UNL     1       1.946   8.530  19.014  0.00  0.00    +0.000 A 
ATOM      2  C   UNL     1       2.941   8.305  18.046  0.00  0.00    +0.000 A 
ATOM      3  C   UNL     1       3.428   7.027  17.822  0.00  0.00    +0.000 A 
ATOM      4  C   UNL     1       2.840   6.061  18.626  0.00  0.00    +0.000 A 
ATOM      5  C   UNL     1       2.434   6.331  19.930  0.00  0.00    +0.000 A 
ATOM      6  C   UNL     1       1.698   7.569  20.016  0.00  0.00    +0.000 A 
ATOM      7  C   UNL     1       2.347   4.980  20.424  0.00  0.00    +0.000 A 
ATOM      8  C   UNL     1       1.458   4.492  19.476  0.00  0.00    +0.000 A 
ATOM      9  N   UNL     1       2.252   4.818  18.356  0.00  0.00    +0.000 N 
ATOM     10  C   UNL     1       2.665   4.065  17.197  0.00  0.00    +0.000 C 
ATOM     11  C   UNL     1       0.613   3.322  19.903  0.00  0.00    +0.000 C 
ATOM     12  C   UNL     1       1.506   2.310  20.700  0.00  0.00    +0.000 C 
ATOM     13  C   UNL     1       2.515   1.737  19.724  0.00  0.00    +0.000 C 
ATOM     14  C   UNL     1       3.738   2.653  19.941  0.00  0.00    +0.000 C 
ATOM     15  C   UNL     1       3.298   3.810  20.922  0.00  0.00    +0.000 C 
ATOM     16  N   UNL     1       2.397   2.950  21.726  0.00  0.00    +0.000 NA
ATOM     17  H   UNL     1       1.869   3.535  22.365  0.00  0.00    +0.000 HD
ENDROOT
BRANCH   1  18
ATOM     18  S   UNL     1       1.007   9.980  18.666  0.00  0.00    +0.000 S 
ATOM     19  O   UNL     1      -0.088   9.580  17.790  0.00  0.00    +0.000 OA
ATOM     20  O   UNL     1       1.947  10.980  18.203  0.00  0.00    +0.000 OA
BRANCH  18  27
ATOM     21  C   UNL     1      -0.414  14.399  19.864  0.00  0.00    +0.000 A 
ATOM     22  C   UNL     1      -0.806  14.556  21.188  0.00  0.00    +0.000 A 
ATOM     23  C   UNL     1      -0.831  13.443  22.026  0.00  0.00    +0.000 A 
ATOM     24  C   UNL     1      -0.451  12.175  21.525  0.00  0.00    +0.000 A 
ATOM     25  C   UNL     1      -0.315  10.906  22.152  0.00  0.00    +0.000 A 
ATOM     26  C   UNL     1       0.127  10.018  21.203  0.00  0.00    +0.000 A 
ATOM     27  N   UNL     1       0.239  10.691  20.010  0.00  0.00    +0.000 N 
ATOM     28  C   UNL     1      -0.082  12.033  20.173  0.00  0.00    +0.000 A 
ATOM     29  C   UNL     1      -0.056  13.156  19.313  0.00  0.00    +0.000 A 
BRANCH  21  31
ATOM     30  C   UNL     1      -0.313  16.494  18.382  0.00  0.00    +0.000 C 
ATOM     31  N   UNL     1      -0.361  15.534  19.054  0.00  0.00    +0.000 NA
ENDBRANCH  21  31
ENDBRANCH  18  27
ENDBRANCH   1  18
BRANCH   3  32
ATOM     32  O   UNL     1       4.186   6.691  16.742  0.00  0.00    +0.000 OA
ATOM     33  C   UNL     1       5.559   6.493  17.087  0.00  0.00    +0.000 C 
ENDBRANCH   3  32
TORSDOF 4
ENDMDL
MODEL 6
REMARK VINA RESULT:      -7.7      2.290      2.965
REMARK  Name = 
REMARK  6 active torsions:
REMARK  status: ('A' for Active; 'I' for Inactive)
REMARK    1  A    between atoms: N_2  and  C_3
REMARK    2  A    between atoms: N_9  and  S_10
REMARK    3  A    between atoms: S_10  and  C_13
REMARK    4  A    between atoms: C_15  and  O_16
REMARK    5  A    between atoms: O_16  and  C_17
REMARK    6  A    between atoms: N_23  and  C_24
REMARK                            x       y       z     vdW  Elec       q    Type
REMARK                         _______ _______ _______ _____ _____    ______ ____
ROOT
ATOM      1  C   UNL     1       1.612   8.611  19.435  0.00  0.00    +0.000 A 
ATOM      2  C   UNL     1       2.534   8.467  18.382  0.00  0.00    +0.000 A 
ATOM      3  C   UNL     1       3.055   7.221  18.071  0.00  0.00    +0.000 A 
ATOM      4  C   UNL     1       2.577   6.201  18.881  0.00  0.00    +0.000 A 
ATOM      5  C   UNL     1       2.267   6.406  20.223  0.00  0.00    +0.000 A 
ATOM      6  C   UNL     1       1.489   7.606  20.415  0.00  0.00    +0.000 A 
ATOM      7  C   UNL     1       2.279   5.036  20.669  0.00  0.00    +0.000 A 
ATOM      8  C   UNL     1       1.337   4.542  19.777  0.00  0.00    +0.000 A 
ATOM      9  N   UNL     1       2.023   4.943  18.611  0.00  0.00    +0.000 N 
ATOM     10  C   UNL     1       2.371   4.252  17.394  0.00  0.00    +0.000 C 
ATOM     11  C   UNL     1       0.581   3.321  20.225  0.00  0.00    +0.000 C 
ATOM     12  C   UNL     1       1.578   2.323  20.908  0.00  0.00    +0.000 C 
ATOM     13  C   UNL     1       2.528   1.831  19.833  0.00  0.00    +0.000 C 
ATOM     14  C   UNL     1       3.724   2.794  19.987  0.00  0.00    +0.000 C 
ATOM     15  C   UNL     1       3.317   3.894  21.043  0.00  0.00    +0.000 C 
ATOM     16  N   UNL     1       2.521   2.967  21.883  0.00  0.00    +0.000 NA
ATOM     17  H   UNL     1       2.023   3.504  22.585  0.00  0.00    +0.000 HD
ENDROOT
BRANCH   1  18
ATOM     18  S   UNL     1       0.587  10.029  19.219  0.00  0.00    +0.000 S 
ATOM     19  O   UNL     1      -0.325  10.072  20.355  0.00  0.00    +0.000 OA
ATOM     20  O   UNL     1       0.039   9.942  17.881  0.00  0.00    +0.000 OA
BRANCH  18  27
ATOM     21  C   UNL     1       0.284  14.014  21.867  0.00  0.00    +0.000 A 
ATOM     22  C   UNL     1       1.015  15.097  21.391  0.00  0.00    +0.000 A 
ATOM     23  C   UNL     1       1.814  14.934  20.262  0.00  0.00    +0.000 A 
ATOM     24  C   UNL     1       1.868  13.679  19.611  0.00  0.00    +0.000 A 
ATOM     25  C   UNL     1       2.527  13.248  18.428  0.00  0.00    +0.000 A 
ATOM     26  C   UNL     1       2.205  11.929  18.228  0.00  0.00    +0.000 A 
ATOM     27  N   UNL     1       1.396  11.527  19.264  0.00  0.00    +0.000 N 
ATOM     28  C   UNL     1       1.141  12.587  20.125  0.00  0.00    +0.000 A 
ATOM     29  C   UNL     1       0.327  12.741  21.272  0.00  0.00    +0.000 A 
BRANCH  21  31
ATOM     30  C   UNL     1      -1.227  14.386  23.910  0.00  0.00    +0.000 C 
ATOM     31  N   UNL     1      -0.539  14.210  22.976  0.00  0.00    +0.000 NA
ENDBRANCH  21  31
ENDBRANCH  18  27
ENDBRANCH   1  18
BRANCH   3  32
ATOM     32  O   UNL     1       3.736   6.958  16.921  0.00  0.00    +0.000 OA
ATOM     33  C   UNL     1       5.121   6.700  17.162  0.00  0.00    +0.000 C 
ENDBRANCH   3  32
TORSDOF 4
ENDMDL
MODEL 7
REMARK VINA RESULT:      -7.7      2.250      4.091
REMARK  Name = 
REMARK  6 active torsions:
REMARK  status: ('A' for Active; 'I' for Inactive)
REMARK    1  A    between atoms: N_2  and  C_3
REMARK    2  A    between atoms: N_9  and  S_10
REMARK    3  A    between atoms: S_10  and  C_13
REMARK    4  A    between atoms: C_15  and  O_16
REMARK    5  A    between atoms: O_16  and  C_17
REMARK    6  A    between atoms: N_23  and  C_24
REMARK                            x       y       z     vdW  Elec       q    Type
REMARK                         _______ _______ _______ _____ _____    ______ ____
ROOT
ATOM      1  C   UNL     1       1.963   8.308  17.874  0.00  0.00    +0.000 A 
ATOM      2  C   UNL     1       1.411   7.088  18.305  0.00  0.00    +0.000 A 
ATOM      3  C   UNL     1       2.190   5.943  18.353  0.00  0.00    +0.000 A 
ATOM      4  C   UNL     1       3.501   6.146  17.948  0.00  0.00    +0.000 A 
ATOM      5  C   UNL     1       3.834   7.059  16.951  0.00  0.00    +0.000 A 
ATOM      6  C   UNL     1       3.166   8.324  17.140  0.00  0.00    +0.000 A 
ATOM      7  C   UNL     1       5.145   6.562  16.618  0.00  0.00    +0.000 A 
ATOM      8  C   UNL     1       5.702   6.642  17.887  0.00  0.00    +0.000 A 
ATOM      9  N   UNL     1       4.740   5.822  18.515  0.00  0.00    +0.000 N 
ATOM     10  C   UNL     1       4.849   4.692  19.405  0.00  0.00    +0.000 C 
ATOM     11  C   UNL     1       7.197   6.798  17.943  0.00  0.00    +0.000 C 
ATOM     12  C   UNL     1       7.851   5.845  16.884  0.00  0.00    +0.000 C 
ATOM     13  C   UNL     1       7.582   4.422  17.334  0.00  0.00    +0.000 C 
ATOM     14  C   UNL     1       6.305   4.066  16.547  0.00  0.00    +0.000 C 
ATOM     15  C   UNL     1       5.819   5.374  15.808  0.00  0.00    +0.000 C 
ATOM     16  N   UNL     1       7.189   5.875  15.537  0.00  0.00    +0.000 NA
ATOM     17  H   UNL     1       7.127   6.819  15.172  0.00  0.00    +0.000 HD
ENDROOT
BRANCH   1  18
ATOM     18  S   UNL     1       1.091   9.692  18.531  0.00  0.00    +0.000 S 
ATOM     19  O   UNL     1      -0.161   9.797  17.792  0.00  0.00    +0.000 OA
ATOM     20  O   UNL     1       2.014  10.808  18.512  0.00  0.00    +0.000 OA
BRANCH  18  27
ATOM     21  C   UNL     1      -1.786  12.126  21.494  0.00  0.00    +0.000 A 
ATOM     22  C   UNL     1      -1.699  11.764  22.833  0.00  0.00    +0.000 A 
ATOM     23  C   UNL     1      -0.869  10.707  23.199  0.00  0.00    +0.000 A 
ATOM     24  C   UNL     1      -0.121  10.023  22.211  0.00  0.00    +0.000 A 
ATOM     25  C   UNL     1       0.837   8.976  22.296  0.00  0.00    +0.000 A 
ATOM     26  C   UNL     1       1.285   8.717  21.025  0.00  0.00    +0.000 A 
ATOM     27  N   UNL     1       0.614   9.546  20.159  0.00  0.00    +0.000 N 
ATOM     28  C   UNL     1      -0.244  10.389  20.856  0.00  0.00    +0.000 A 
ATOM     29  C   UNL     1      -1.086  11.459  20.473  0.00  0.00    +0.000 A 
BRANCH  21  31
ATOM     30  C   UNL     1      -3.268  14.132  20.880  0.00  0.00    +0.000 C 
ATOM     31  N   UNL     1      -2.594  13.212  21.156  0.00  0.00    +0.000 NA
ENDBRANCH  21  31
ENDBRANCH  18  27
ENDBRANCH   1  18
BRANCH   3  32
ATOM     32  O   UNL     1       1.811   4.804  18.996  0.00  0.00    +0.000 OA
ATOM     33  C   UNL     1       1.487   3.752  18.084  0.00  0.00    +0.000 C 
ENDBRANCH   3  32
TORSDOF 4
ENDMDL
MODEL 8
REMARK VINA RESULT:      -7.7      2.088      2.627
REMARK  Name = 
REMARK  6 active torsions:
REMARK  status: ('A' for Active; 'I' for Inactive)
REMARK    1  A    between atoms: N_2  and  C_3
REMARK    2  A    between atoms: N_9  and  S_10
REMARK    3  A    between atoms: S_10  and  C_13
REMARK    4  A    between atoms: C_15  and  O_16
REMARK    5  A    between atoms: O_16  and  C_17
REMARK    6  A    between atoms: N_23  and  C_24
REMARK                            x       y       z     vdW  Elec       q    Type
REMARK                         _______ _______ _______ _____ _____    ______ ____
ROOT
ATOM      1  C   UNL     1       2.218   8.328  18.611  0.00  0.00    +0.000 A 
ATOM      2  C   UNL     1       3.363   8.208  17.802  0.00  0.00    +0.000 A 
ATOM      3  C   UNL     1       3.940   6.967  17.582  0.00  0.00    +0.000 A 
ATOM      4  C   UNL     1       3.280   5.927  18.220  0.00  0.00    +0.000 A 
ATOM      5  C   UNL     1       2.661   6.092  19.456  0.00  0.00    +0.000 A 
ATOM      6  C   UNL     1       1.862   7.293  19.499  0.00  0.00    +0.000 A 
ATOM      7  C   UNL     1       2.563   4.708  19.847  0.00  0.00    +0.000 A 
ATOM      8  C   UNL     1       1.859   4.253  18.741  0.00  0.00    +0.000 A 
ATOM      9  N   UNL     1       2.803   4.684  17.785  0.00  0.00    +0.000 N 
ATOM     10  C   UNL     1       3.428   4.028  16.662  0.00  0.00    +0.000 C 
ATOM     11  C   UNL     1       1.015   3.026  18.955  0.00  0.00    +0.000 C 
ATOM     12  C   UNL     1       1.819   1.997  19.821  0.00  0.00    +0.000 C 
ATOM     13  C   UNL     1       2.995   1.530  18.986  0.00  0.00    +0.000 C 
ATOM     14  C   UNL     1       4.123   2.474  19.451  0.00  0.00    +0.000 C 
ATOM     15  C   UNL     1       3.479   3.544  20.418  0.00  0.00    +0.000 C 
ATOM     16  N   UNL     1       2.505   2.598  21.013  0.00  0.00    +0.000 NA
ATOM     17  H   UNL     1       1.856   3.118  21.594  0.00  0.00    +0.000 HD
ENDROOT
BRANCH   1  18
ATOM     18  S   UNL     1       1.277   9.762  18.206  0.00  0.00    +0.000 S 
ATOM     19  O   UNL     1       0.090   9.307  17.492  0.00  0.00    +0.000 OA
ATOM     20  O   UNL     1       2.184  10.680  17.547  0.00  0.00    +0.000 OA
BRANCH  18  27
ATOM     21  C   UNL     1       1.281  14.349  19.599  0.00  0.00    +0.000 A 
ATOM     22  C   UNL     1       0.843  14.573  20.899  0.00  0.00    +0.000 A 
ATOM     23  C   UNL     1       0.379  13.498  21.655  0.00  0.00    +0.000 A 
ATOM     24  C   UNL     1       0.366  12.198  21.097  0.00  0.00    +0.000 A 
ATOM     25  C   UNL     1       0.021  10.932  21.643  0.00  0.00    +0.000 A 
ATOM     26  C   UNL     1       0.232   9.987  20.670  0.00  0.00    +0.000 A 
ATOM     27  N   UNL     1       0.666  10.633  19.537  0.00  0.00    +0.000 N 
ATOM     28  C   UNL     1       0.789  11.997  19.768  0.00  0.00    +0.000 A 
ATOM     29  C   UNL     1       1.260  13.082  18.992  0.00  0.00    +0.000 A 
BRANCH  21  31
ATOM     30  C   UNL     1       2.198  16.350  18.275  0.00  0.00    +0.000 C 
ATOM     31  N   UNL     1       1.776  15.434  18.875  0.00  0.00    +0.000 NA
ENDBRANCH  21  31
ENDBRANCH  18  27
ENDBRANCH   1  18
BRANCH   3  32
ATOM     32  O   UNL     1       4.873   6.734  16.618  0.00  0.00    +0.000 OA
ATOM     33  C   UNL     1       6.202   6.721  17.146  0.00  0.00    +0.000 C 
ENDBRANCH   3  32
TORSDOF 4
ENDMDL
MODEL 9
REMARK VINA RESULT:      -7.6      5.609      9.018
REMARK  Name = 
REMARK  6 active torsions:
REMARK  status: ('A' for Active; 'I' for Inactive)
REMARK    1  A    between atoms: N_2  and  C_3
REMARK    2  A    between atoms: N_9  and  S_10
REMARK    3  A    between atoms: S_10  and  C_13
REMARK    4  A    between atoms: C_15  and  O_16
REMARK    5  A    between atoms: O_16  and  C_17
REMARK    6  A    between atoms: N_23  and  C_24
REMARK                            x       y       z     vdW  Elec       q    Type
REMARK                         _______ _______ _______ _____ _____    ______ ____
ROOT
ATOM      1  C   UNL     1       0.409  11.801  19.343  0.00  0.00    +0.000 A 
ATOM      2  C   UNL     1       0.311  11.950  20.738  0.00  0.00    +0.000 A 
ATOM      3  C   UNL     1       0.381  13.207  21.317  0.00  0.00    +0.000 A 
ATOM      4  C   UNL     1       0.547  14.233  20.398  0.00  0.00    +0.000 A 
ATOM      5  C   UNL     1       1.286  14.066  19.229  0.00  0.00    +0.000 A 
ATOM      6  C   UNL     1       0.947  12.838  18.553  0.00  0.00    +0.000 A 
ATOM      7  C   UNL     1       1.521  15.452  18.910  0.00  0.00    +0.000 A 
ATOM      8  C   UNL     1       0.195  15.862  18.876  0.00  0.00    +0.000 A 
ATOM      9  N   UNL     1      -0.115  15.450  20.189  0.00  0.00    +0.000 N 
ATOM     10  C   UNL     1      -0.769  16.109  21.294  0.00  0.00    +0.000 C 
ATOM     11  C   UNL     1      -0.103  17.061  18.017  0.00  0.00    +0.000 C 
ATOM     12  C   UNL     1       1.020  18.134  18.228  0.00  0.00    +0.000 C 
ATOM     13  C   UNL     1       0.904  18.629  19.656  0.00  0.00    +0.000 C 
ATOM     14  C   UNL     1       1.920  17.735  20.397  0.00  0.00    +0.000 C 
ATOM     15  C   UNL     1       2.446  16.659  19.368  0.00  0.00    +0.000 C 
ATOM     16  N   UNL     1       2.415  17.578  18.205  0.00  0.00    +0.000 NA
ATOM     17  H   UNL     1       2.590  17.044  17.360  0.00  0.00    +0.000 HD
ENDROOT
BRANCH   1  18
ATOM     18  S   UNL     1      -0.379  10.327  18.783  0.00  0.00    +0.000 S 
ATOM     19  O   UNL     1      -0.849   9.619  19.967  0.00  0.00    +0.000 OA
ATOM     20  O   UNL     1       0.560   9.668  17.897  0.00  0.00    +0.000 OA
BRANCH  18  27
ATOM     21  C   UNL     1      -4.610  12.492  19.405  0.00  0.00    +0.000 A 
ATOM     22  C   UNL     1      -5.557  12.234  18.420  0.00  0.00    +0.000 A 
ATOM     23  C   UNL     1      -5.201  11.453  17.322  0.00  0.00    +0.000 A 
ATOM     24  C   UNL     1      -3.890  10.929  17.226  0.00  0.00    +0.000 A 
ATOM     25  C   UNL     1      -3.278  10.065  16.277  0.00  0.00    +0.000 A 
ATOM     26  C   UNL     1      -1.989   9.840  16.690  0.00  0.00    +0.000 A 
ATOM     27  N   UNL     1      -1.778  10.561  17.841  0.00  0.00    +0.000 N 
ATOM     28  C   UNL     1      -2.938  11.225  18.221  0.00  0.00    +0.000 A 
ATOM     29  C   UNL     1      -3.289  12.017  19.339  0.00  0.00    +0.000 A 
BRANCH  21  31
ATOM     30  C   UNL     1      -5.330  13.885  21.438  0.00  0.00    +0.000 C 
ATOM     31  N   UNL     1      -5.001  13.244  20.513  0.00  0.00    +0.000 NA
ENDBRANCH  21  31
ENDBRANCH  18  27
ENDBRANCH   1  18
BRANCH   3  32
ATOM     32  O   UNL     1       0.037  13.458  22.610  0.00  0.00    +0.000 OA
ATOM     33  C   UNL     1      -1.139  12.746  23.004  0.00  0.00    +0.000 C 
ENDBRANCH   3  32
TORSDOF 4
ENDMDL
