MODEL 1
REMARK VINA RESULT:      -9.0      0.000      0.000
REMARK  Name = 
REMARK  4 active torsions:
REMARK  status: ('A' for Active; 'I' for Inactive)
REMARK    1  A    between atoms: C_1  and  S_2
REMARK    2  A    between atoms: S_2  and  C_3
REMARK    3  A    between atoms: C_3  and  N_5
REMARK    4  A    between atoms: N_16  and  C_17
REMARK                            x       y       z     vdW  Elec       q    Type
REMARK                         _______ _______ _______ _____ _____    ______ ____
ROOT
ATOM      1  N   UNL     1       3.708   4.718  19.335  0.00  0.00    +0.000 N 
ATOM      2  C   UNL     1       5.119   4.421  19.040  0.00  0.00    +0.000 C 
ATOM      3  C   UNL     1       5.525   4.899  17.639  0.00  0.00    +0.000 C 
ATOM      4  C   UNL     1       7.033   4.663  17.376  0.00  0.00    +0.000 C 
ATOM      5  C   UNL     1       7.444   5.059  15.955  0.00  0.00    +0.000 C 
ATOM      6  C   UNL     1       6.640   4.292  14.911  0.00  0.00    +0.000 C 
ATOM      7  C   UNL     1       5.137   4.423  15.126  0.00  0.00    +0.000 C 
ATOM      8  C   UNL     1       4.719   4.119  16.567  0.00  0.00    +0.000 C 
ATOM      9  C   UNL     1       5.266   6.401  17.626  0.00  0.00    +0.000 C 
ATOM     10  O   UNL     1       4.108   6.818  18.351  0.00  0.00    +0.000 OA
ATOM     11  C   UNL     1       3.301   6.041  19.112  0.00  0.00    +0.000 C 
ATOM     12  N   UNL     1       2.223   6.559  19.624  0.00  0.00    +0.000 NA
ENDROOT
BRANCH  12  13
ATOM     13  C   UNL     1       1.872   7.902  19.317  0.00  0.00    +0.000 A 
ATOM     14  C   UNL     1       2.048   8.401  18.011  0.00  0.00    +0.000 A 
ATOM     15  C   UNL     1       1.790   9.730  17.692  0.00  0.00    +0.000 A 
ATOM     16  C   UNL     1       1.262  10.576  18.657  0.00  0.00    +0.000 A 
ATOM     17  C   UNL     1       0.971  10.092  19.938  0.00  0.00    +0.000 A 
ATOM     18  C   UNL     1       1.299   8.755  20.286  0.00  0.00    +0.000 A 
ATOM     19  C   UNL     1       0.957   8.224  21.665  0.00  0.00    +0.000 C 
ATOM     20  C   UNL     1       0.606   9.313  22.686  0.00  0.00    +0.000 C 
ATOM     21  C   UNL     1      -0.338  10.342  22.086  0.00  0.00    +0.000 C 
ATOM     22  C   UNL     1       0.343  11.050  20.922  0.00  0.00    +0.000 C 
ENDBRANCH  12  13
BRANCH   1  23
ATOM     23  C   UNL     1       2.839   3.712  19.824  0.00  0.00    +0.000 C 
ATOM     24  S   UNL     1       2.314   3.571  21.424  0.00  0.00    +0.000 S 
BRANCH  23  26
ATOM     25  C   UNL     1       3.400   1.359  18.462  0.00  0.00    +0.000 C 
ATOM     26  S   UNL     1       2.133   2.638  18.589  0.00  0.00    +0.000 S 
ENDBRANCH  23  26
ENDBRANCH   1  23
TORSDOF 3
ENDMDL
MODEL 2
REMARK VINA RESULT:      -9.0      0.603      1.138
REMARK  Name = 
REMARK  4 active torsions:
REMARK  status: ('A' for Active; 'I' for Inactive)
REMARK    1  A    between atoms: C_1  and  S_2
REMARK    2  A    between atoms: S_2  and  C_3
REMARK    3  A    between atoms: C_3  and  N_5
REMARK    4  A    between atoms: N_16  and  C_17
REMARK                            x       y       z     vdW  Elec       q    Type
REMARK                         _______ _______ _______ _____ _____    ______ ____
ROOT
ATOM      1  N   UNL     1       3.615   4.629  19.080  0.00  0.00    +0.000 N 
ATOM      2  C   UNL     1       5.026   4.301  18.817  0.00  0.00    +0.000 C 
ATOM      3  C   UNL     1       5.497   4.844  17.461  0.00  0.00    +0.000 C 
ATOM      4  C   UNL     1       7.006   4.573  17.237  0.00  0.00    +0.000 C 
ATOM      5  C   UNL     1       7.481   5.034  15.856  0.00  0.00    +0.000 C 
ATOM      6  C   UNL     1       6.691   4.355  14.742  0.00  0.00    +0.000 C 
ATOM      7  C   UNL     1       5.186   4.525  14.912  0.00  0.00    +0.000 C 
ATOM      8  C   UNL     1       4.707   4.154  16.318  0.00  0.00    +0.000 C 
ATOM      9  C   UNL     1       5.287   6.352  17.525  0.00  0.00    +0.000 C 
ATOM     10  O   UNL     1       4.117   6.766  18.233  0.00  0.00    +0.000 OA
ATOM     11  C   UNL     1       3.259   5.976  18.920  0.00  0.00    +0.000 C 
ATOM     12  N   UNL     1       2.180   6.499  19.423  0.00  0.00    +0.000 NA
ENDROOT
BRANCH  12  13
ATOM     13  C   UNL     1       1.884   7.869  19.182  0.00  0.00    +0.000 A 
ATOM     14  C   UNL     1       2.070   8.421  17.899  0.00  0.00    +0.000 A 
ATOM     15  C   UNL     1       1.866   9.773  17.645  0.00  0.00    +0.000 A 
ATOM     16  C   UNL     1       1.381  10.595  18.653  0.00  0.00    +0.000 A 
ATOM     17  C   UNL     1       1.079  10.063  19.914  0.00  0.00    +0.000 A 
ATOM     18  C   UNL     1       1.353   8.699  20.196  0.00  0.00    +0.000 A 
ATOM     19  C   UNL     1       0.999   8.119  21.552  0.00  0.00    +0.000 C 
ATOM     20  C   UNL     1       0.702   9.171  22.625  0.00  0.00    +0.000 C 
ATOM     21  C   UNL     1      -0.203  10.266  22.082  0.00  0.00    +0.000 C 
ATOM     22  C   UNL     1       0.499  10.999  20.946  0.00  0.00    +0.000 C 
ENDBRANCH  12  13
BRANCH   1  23
ATOM     23  C   UNL     1       2.697   3.627  19.479  0.00  0.00    +0.000 C 
ATOM     24  S   UNL     1       1.452   3.010  18.519  0.00  0.00    +0.000 S 
BRANCH  23  26
ATOM     25  C   UNL     1       1.355   2.657  21.707  0.00  0.00    +0.000 C 
ATOM     26  S   UNL     1       3.025   2.866  21.057  0.00  0.00    +0.000 S 
ENDBRANCH  23  26
ENDBRANCH   1  23
TORSDOF 3
ENDMDL
MODEL 3
REMARK VINA RESULT:      -7.0      5.570      8.268
REMARK  Name = 
REMARK  4 active torsions:
REMARK  status: ('A' for Active; 'I' for Inactive)
REMARK    1  A    between atoms: C_1  and  S_2
REMARK    2  A    between atoms: S_2  and  C_3
REMARK    3  A    between atoms: C_3  and  N_5
REMARK    4  A    between atoms: N_16  and  C_17
REMARK                            x       y       z     vdW  Elec       q    Type
REMARK                         _______ _______ _______ _____ _____    ______ ____
ROOT
ATOM      1  N   UNL     1      -0.063  11.669  20.525  0.00  0.00    +0.000 N 
ATOM      2  C   UNL     1       0.490  12.958  20.972  0.00  0.00    +0.000 C 
ATOM      3  C   UNL     1       1.074  13.767  19.806  0.00  0.00    +0.000 C 
ATOM      4  C   UNL     1       1.568  15.158  20.275  0.00  0.00    +0.000 C 
ATOM      5  C   UNL     1       2.229  15.952  19.144  0.00  0.00    +0.000 C 
ATOM      6  C   UNL     1       3.407  15.191  18.547  0.00  0.00    +0.000 C 
ATOM      7  C   UNL     1       3.024  13.783  18.106  0.00  0.00    +0.000 C 
ATOM      8  C   UNL     1       2.280  13.006  19.195  0.00  0.00    +0.000 C 
ATOM      9  C   UNL     1      -0.078  13.973  18.829  0.00  0.00    +0.000 C 
ATOM     10  O   UNL     1      -0.974  12.866  18.715  0.00  0.00    +0.000 OA
ATOM     11  C   UNL     1      -0.958  11.727  19.447  0.00  0.00    +0.000 C 
ATOM     12  N   UNL     1      -1.785  10.769  19.146  0.00  0.00    +0.000 NA
ENDROOT
BRANCH  12  13
ATOM     13  C   UNL     1      -2.635  10.903  18.014  0.00  0.00    +0.000 A 
ATOM     14  C   UNL     1      -2.264  10.342  16.776  0.00  0.00    +0.000 A 
ATOM     15  C   UNL     1      -3.031  10.520  15.630  0.00  0.00    +0.000 A 
ATOM     16  C   UNL     1      -4.243  11.192  15.713  0.00  0.00    +0.000 A 
ATOM     17  C   UNL     1      -4.701  11.671  16.947  0.00  0.00    +0.000 A 
ATOM     18  C   UNL     1      -3.887  11.553  18.104  0.00  0.00    +0.000 A 
ATOM     19  C   UNL     1      -4.396  12.048  19.444  0.00  0.00    +0.000 C 
ATOM     20  C   UNL     1      -5.619  12.967  19.349  0.00  0.00    +0.000 C 
ATOM     21  C   UNL     1      -6.648  12.409  18.379  0.00  0.00    +0.000 C 
ATOM     22  C   UNL     1      -6.054  12.341  16.978  0.00  0.00    +0.000 C 
ENDBRANCH  12  13
BRANCH   1  23
ATOM     23  C   UNL     1       0.298  10.460  21.168  0.00  0.00    +0.000 C 
ATOM     24  S   UNL     1      -0.198   9.996  22.716  0.00  0.00    +0.000 S 
BRANCH  23  26
ATOM     25  C   UNL     1       1.210   7.839  21.235  0.00  0.00    +0.000 C 
ATOM     26  S   UNL     1       1.200   9.294  20.167  0.00  0.00    +0.000 S 
ENDBRANCH  23  26
ENDBRANCH   1  23
TORSDOF 3
ENDMDL
MODEL 4
REMARK VINA RESULT:      -6.9      7.706      9.919
REMARK  Name = 
REMARK  4 active torsions:
REMARK  status: ('A' for Active; 'I' for Inactive)
REMARK    1  A    between atoms: C_1  and  S_2
REMARK    2  A    between atoms: S_2  and  C_3
REMARK    3  A    between atoms: C_3  and  N_5
REMARK    4  A    between atoms: N_16  and  C_17
REMARK                            x       y       z     vdW  Elec       q    Type
REMARK                         _______ _______ _______ _____ _____    ______ ____
ROOT
ATOM      1  N   UNL     1      -1.460  13.344  20.679  0.00  0.00    +0.000 N 
ATOM      2  C   UNL     1      -1.299  11.920  20.343  0.00  0.00    +0.000 C 
ATOM      3  C   UNL     1      -1.756  11.614  18.910  0.00  0.00    +0.000 C 
ATOM      4  C   UNL     1      -1.496  10.133  18.539  0.00  0.00    +0.000 C 
ATOM      5  C   UNL     1      -2.018   9.784  17.141  0.00  0.00    +0.000 C 
ATOM      6  C   UNL     1      -3.512  10.063  17.022  0.00  0.00    +0.000 C 
ATOM      7  C   UNL     1      -3.869  11.490  17.423  0.00  0.00    +0.000 C 
ATOM      8  C   UNL     1      -3.278  11.886  18.778  0.00  0.00    +0.000 C 
ATOM      9  C   UNL     1      -0.897  12.492  18.008  0.00  0.00    +0.000 C 
ATOM     10  O   UNL     1      -0.600  13.786  18.534  0.00  0.00    +0.000 OA
ATOM     11  C   UNL     1      -0.912  14.255  19.765  0.00  0.00    +0.000 C 
ATOM     12  N   UNL     1      -0.660  15.499  20.052  0.00  0.00    +0.000 NA
ENDROOT
BRANCH  12  13
ATOM     13  C   UNL     1      -0.132  16.359  19.050  0.00  0.00    +0.000 A 
ATOM     14  C   UNL     1      -0.956  17.323  18.437  0.00  0.00    +0.000 A 
ATOM     15  C   UNL     1      -0.497  18.128  17.399  0.00  0.00    +0.000 A 
ATOM     16  C   UNL     1       0.833  18.050  17.008  0.00  0.00    +0.000 A 
ATOM     17  C   UNL     1       1.713  17.181  17.665  0.00  0.00    +0.000 A 
ATOM     18  C   UNL     1       1.230  16.308  18.676  0.00  0.00    +0.000 A 
ATOM     19  C   UNL     1       2.189  15.388  19.406  0.00  0.00    +0.000 C 
ATOM     20  C   UNL     1       3.551  15.233  18.721  0.00  0.00    +0.000 C 
ATOM     21  C   UNL     1       4.092  16.580  18.267  0.00  0.00    +0.000 C 
ATOM     22  C   UNL     1       3.158  17.188  17.229  0.00  0.00    +0.000 C 
ENDBRANCH  12  13
BRANCH   1  23
ATOM     23  C   UNL     1      -2.124  13.741  21.866  0.00  0.00    +0.000 C 
ATOM     24  S   UNL     1      -1.403  13.867  23.389  0.00  0.00    +0.000 S 
BRANCH  23  26
ATOM     25  C   UNL     1      -4.734  12.915  22.322  0.00  0.00    +0.000 C 
ATOM     26  S   UNL     1      -3.800  14.308  21.657  0.00  0.00    +0.000 S 
ENDBRANCH  23  26
ENDBRANCH   1  23
TORSDOF 3
ENDMDL
MODEL 5
REMARK VINA RESULT:      -6.8      7.467      9.469
REMARK  Name = 
REMARK  4 active torsions:
REMARK  status: ('A' for Active; 'I' for Inactive)
REMARK    1  A    between atoms: C_1  and  S_2
REMARK    2  A    between atoms: S_2  and  C_3
REMARK    3  A    between atoms: C_3  and  N_5
REMARK    4  A    between atoms: N_16  and  C_17
REMARK                            x       y       z     vdW  Elec       q    Type
REMARK                         _______ _______ _______ _____ _____    ______ ____
ROOT
ATOM      1  N   UNL     1      -1.444  12.224  20.145  0.00  0.00    +0.000 N 
ATOM      2  C   UNL     1      -1.469  10.960  19.392  0.00  0.00    +0.000 C 
ATOM      3  C   UNL     1      -2.082  11.135  17.996  0.00  0.00    +0.000 C 
ATOM      4  C   UNL     1      -2.019   9.819  17.181  0.00  0.00    +0.000 C 
ATOM      5  C   UNL     1      -2.697   9.949  15.814  0.00  0.00    +0.000 C 
ATOM      6  C   UNL     1      -4.156  10.366  15.956  0.00  0.00    +0.000 C 
ATOM      7  C   UNL     1      -4.319  11.629  16.795  0.00  0.00    +0.000 C 
ATOM      8  C   UNL     1      -3.571  11.552  18.127  0.00  0.00    +0.000 C 
ATOM      9  C   UNL     1      -1.216  12.175  17.294  0.00  0.00    +0.000 C 
ATOM     10  O   UNL     1      -0.735  13.224  18.136  0.00  0.00    +0.000 OA
ATOM     11  C   UNL     1      -0.883  13.323  19.478  0.00  0.00    +0.000 C 
ATOM     12  N   UNL     1      -0.473  14.399  20.083  0.00  0.00    +0.000 NA
ENDROOT
BRANCH  12  13
ATOM     13  C   UNL     1       0.054  15.478  19.321  0.00  0.00    +0.000 A 
ATOM     14  C   UNL     1      -0.753  16.591  19.013  0.00  0.00    +0.000 A 
ATOM     15  C   UNL     1      -0.297  17.627  18.204  0.00  0.00    +0.000 A 
ATOM     16  C   UNL     1       1.016  17.618  17.754  0.00  0.00    +0.000 A 
ATOM     17  C   UNL     1       1.884  16.584  18.127  0.00  0.00    +0.000 A 
ATOM     18  C   UNL     1       1.401  15.491  18.893  0.00  0.00    +0.000 A 
ATOM     19  C   UNL     1       2.349  14.386  19.320  0.00  0.00    +0.000 C 
ATOM     20  C   UNL     1       3.683  14.379  18.566  0.00  0.00    +0.000 C 
ATOM     21  C   UNL     1       4.257  15.783  18.459  0.00  0.00    +0.000 C 
ATOM     22  C   UNL     1       3.314  16.666  17.652  0.00  0.00    +0.000 C 
ENDBRANCH  12  13
BRANCH   1  23
ATOM     23  C   UNL     1      -1.954  12.297  21.465  0.00  0.00    +0.000 C 
ATOM     24  S   UNL     1      -1.205  11.648  22.834  0.00  0.00    +0.000 S 
BRANCH  23  26
ATOM     25  C   UNL     1      -2.846  14.485  22.920  0.00  0.00    +0.000 C 
ATOM     26  S   UNL     1      -3.408  13.305  21.675  0.00  0.00    +0.000 S 
ENDBRANCH  23  26
ENDBRANCH   1  23
TORSDOF 3
ENDMDL
MODEL 6
REMARK VINA RESULT:      -6.7      6.317      8.240
REMARK  Name = 
REMARK  4 active torsions:
REMARK  status: ('A' for Active; 'I' for Inactive)
REMARK    1  A    between atoms: C_1  and  S_2
REMARK    2  A    between atoms: S_2  and  C_3
REMARK    3  A    between atoms: C_3  and  N_5
REMARK    4  A    between atoms: N_16  and  C_17
REMARK                            x       y       z     vdW  Elec       q    Type
REMARK                         _______ _______ _______ _____ _____    ______ ____
ROOT
ATOM      1  N   UNL     1       0.197  11.346  20.350  0.00  0.00    +0.000 N 
ATOM      2  C   UNL     1       0.735  12.613  20.872  0.00  0.00    +0.000 C 
ATOM      3  C   UNL     1       1.246  13.525  19.748  0.00  0.00    +0.000 C 
ATOM      4  C   UNL     1       1.725  14.890  20.301  0.00  0.00    +0.000 C 
ATOM      5  C   UNL     1       2.314  15.787  19.208  0.00  0.00    +0.000 C 
ATOM      6  C   UNL     1       3.483  15.108  18.504  0.00  0.00    +0.000 C 
ATOM      7  C   UNL     1       3.117  13.727  17.972  0.00  0.00    +0.000 C 
ATOM      8  C   UNL     1       2.443  12.848  19.029  0.00  0.00    +0.000 C 
ATOM      9  C   UNL     1       0.047  13.771  18.839  0.00  0.00    +0.000 C 
ATOM     10  O   UNL     1      -0.825  12.651  18.678  0.00  0.00    +0.000 OA
ATOM     11  C   UNL     1      -0.747  11.460  19.319  0.00  0.00    +0.000 C 
ATOM     12  N   UNL     1      -1.561  10.504  18.980  0.00  0.00    +0.000 NA
ENDROOT
BRANCH  12  13
ATOM     13  C   UNL     1      -2.464  10.699  17.899  0.00  0.00    +0.000 A 
ATOM     14  C   UNL     1      -2.186  10.147  16.632  0.00  0.00    +0.000 A 
ATOM     15  C   UNL     1      -3.005  10.383  15.533  0.00  0.00    +0.000 A 
ATOM     16  C   UNL     1      -4.179  11.106  15.695  0.00  0.00    +0.000 A 
ATOM     17  C   UNL     1      -4.548  11.580  16.960  0.00  0.00    +0.000 A 
ATOM     18  C   UNL     1      -3.678  11.402  18.069  0.00  0.00    +0.000 A 
ATOM     19  C   UNL     1      -4.092  11.891  19.444  0.00  0.00    +0.000 C 
ATOM     20  C   UNL     1      -5.275  12.866  19.432  0.00  0.00    +0.000 C 
ATOM     21  C   UNL     1      -6.379  12.374  18.510  0.00  0.00    +0.000 C 
ATOM     22  C   UNL     1      -5.865  12.308  17.078  0.00  0.00    +0.000 C 
ENDBRANCH  12  13
BRANCH   1  23
ATOM     23  C   UNL     1       0.616  10.103  20.882  0.00  0.00    +0.000 C 
ATOM     24  S   UNL     1       1.398   8.885  20.010  0.00  0.00    +0.000 S 
BRANCH  23  26
ATOM     25  C   UNL     1      -1.176  10.671  22.924  0.00  0.00    +0.000 C 
ATOM     26  S   UNL     1       0.442   9.922  22.647  0.00  0.00    +0.000 S 
ENDBRANCH  23  26
ENDBRANCH   1  23
TORSDOF 3
ENDMDL
MODEL 7
REMARK VINA RESULT:      -6.7      7.625      9.719
REMARK  Name = 
REMARK  4 active torsions:
REMARK  status: ('A' for Active; 'I' for Inactive)
REMARK    1  A    between atoms: C_1  and  S_2
REMARK    2  A    between atoms: S_2  and  C_3
REMARK    3  A    between atoms: C_3  and  N_5
REMARK    4  A    between atoms: N_16  and  C_17
REMARK                            x       y       z     vdW  Elec       q    Type
REMARK                         _______ _______ _______ _____ _____    ______ ____
ROOT
ATOM      1  N   UNL     1      -1.664  13.078  20.523  0.00  0.00    +0.000 N 
ATOM      2  C   UNL     1      -1.558  11.664  20.127  0.00  0.00    +0.000 C 
ATOM      3  C   UNL     1      -1.915  11.454  18.650  0.00  0.00    +0.000 C 
ATOM      4  C   UNL     1      -1.711   9.979  18.223  0.00  0.00    +0.000 C 
ATOM      5  C   UNL     1      -2.138   9.728  16.774  0.00  0.00    +0.000 C 
ATOM      6  C   UNL     1      -3.599  10.103  16.554  0.00  0.00    +0.000 C 
ATOM      7  C   UNL     1      -3.906  11.528  16.999  0.00  0.00    +0.000 C 
ATOM      8  C   UNL     1      -3.403  11.824  18.414  0.00  0.00    +0.000 C 
ATOM      9  C   UNL     1      -0.938  12.319  17.862  0.00  0.00    +0.000 C 
ATOM     10  O   UNL     1      -0.611  13.567  18.476  0.00  0.00    +0.000 OA
ATOM     11  C   UNL     1      -0.994  13.997  19.702  0.00  0.00    +0.000 C 
ATOM     12  N   UNL     1      -0.695  15.208  20.071  0.00  0.00    +0.000 NA
ENDROOT
BRANCH  12  13
ATOM     13  C   UNL     1      -0.041  16.080  19.158  0.00  0.00    +0.000 A 
ATOM     14  C   UNL     1      -0.771  17.077  18.481  0.00  0.00    +0.000 A 
ATOM     15  C   UNL     1      -0.182  17.896  17.524  0.00  0.00    +0.000 A 
ATOM     16  C   UNL     1       1.182  17.798  17.284  0.00  0.00    +0.000 A 
ATOM     17  C   UNL     1       1.965  16.894  18.013  0.00  0.00    +0.000 A 
ATOM     18  C   UNL     1       1.353  16.009  18.939  0.00  0.00    +0.000 A 
ATOM     19  C   UNL     1       2.206  15.050  19.748  0.00  0.00    +0.000 C 
ATOM     20  C   UNL     1       3.634  14.881  19.218  0.00  0.00    +0.000 C 
ATOM     21  C   UNL     1       4.248  16.226  18.864  0.00  0.00    +0.000 C 
ATOM     22  C   UNL     1       3.450  16.880  17.743  0.00  0.00    +0.000 C 
ENDBRANCH  12  13
BRANCH   1  23
ATOM     23  C   UNL     1      -2.398  13.459  21.673  0.00  0.00    +0.000 C 
ATOM     24  S   UNL     1      -3.787  14.421  21.667  0.00  0.00    +0.000 S 
BRANCH  23  26
ATOM     25  C   UNL     1      -3.470  12.342  23.977  0.00  0.00    +0.000 C 
ATOM     26  S   UNL     1      -1.880  12.703  23.202  0.00  0.00    +0.000 S 
ENDBRANCH  23  26
ENDBRANCH   1  23
TORSDOF 3
ENDMDL
MODEL 8
REMARK VINA RESULT:      -6.7      7.408     11.831
REMARK  Name = 
REMARK  4 active torsions:
REMARK  status: ('A' for Active; 'I' for Inactive)
REMARK    1  A    between atoms: C_1  and  S_2
REMARK    2  A    between atoms: S_2  and  C_3
REMARK    3  A    between atoms: C_3  and  N_5
REMARK    4  A    between atoms: N_16  and  C_17
REMARK                            x       y       z     vdW  Elec       q    Type
REMARK                         _______ _______ _______ _____ _____    ______ ____
ROOT
ATOM      1  N   UNL     1      -2.543  14.351  23.951  0.00  0.00    +0.000 N 
ATOM      2  C   UNL     1      -3.954  14.514  24.338  0.00  0.00    +0.000 C 
ATOM      3  C   UNL     1      -4.905  14.251  23.161  0.00  0.00    +0.000 C 
ATOM      4  C   UNL     1      -6.387  14.335  23.603  0.00  0.00    +0.000 C 
ATOM      5  C   UNL     1      -7.354  14.155  22.429  0.00  0.00    +0.000 C 
ATOM      6  C   UNL     1      -7.108  15.196  21.343  0.00  0.00    +0.000 C 
ATOM      7  C   UNL     1      -5.655  15.222  20.884  0.00  0.00    +0.000 C 
ATOM      8  C   UNL     1      -4.670  15.310  22.052  0.00  0.00    +0.000 C 
ATOM      9  C   UNL     1      -4.619  12.822  22.713  0.00  0.00    +0.000 C 
ATOM     10  O   UNL     1      -3.247  12.432  22.784  0.00  0.00    +0.000 OA
ATOM     11  C   UNL     1      -2.221  13.154  23.295  0.00  0.00    +0.000 C 
ATOM     12  N   UNL     1      -1.009  12.695  23.189  0.00  0.00    +0.000 NA
ENDROOT
BRANCH  12  13
ATOM     13  C   UNL     1      -0.774  11.486  22.478  0.00  0.00    +0.000 A 
ATOM     14  C   UNL     1      -0.717  10.257  23.164  0.00  0.00    +0.000 A 
ATOM     15  C   UNL     1      -0.412   9.066  22.514  0.00  0.00    +0.000 A 
ATOM     16  C   UNL     1      -0.243   9.062  21.136  0.00  0.00    +0.000 A 
ATOM     17  C   UNL     1      -0.398  10.244  20.401  0.00  0.00    +0.000 A 
ATOM     18  C   UNL     1      -0.639  11.472  21.071  0.00  0.00    +0.000 A 
ATOM     19  C   UNL     1      -0.835  12.747  20.272  0.00  0.00    +0.000 C 
ATOM     20  C   UNL     1      -0.389  12.643  18.809  0.00  0.00    +0.000 C 
ATOM     21  C   UNL     1      -0.878  11.348  18.179  0.00  0.00    +0.000 C 
ATOM     22  C   UNL     1      -0.258  10.158  18.900  0.00  0.00    +0.000 C 
ENDBRANCH  12  13
BRANCH   1  23
ATOM     23  C   UNL     1      -1.587  15.354  24.245  0.00  0.00    +0.000 C 
ATOM     24  S   UNL     1      -0.824  16.336  23.101  0.00  0.00    +0.000 S 
BRANCH  23  26
ATOM     25  C   UNL     1      -0.349  17.203  25.905  0.00  0.00    +0.000 C 
ATOM     26  S   UNL     1      -1.330  15.689  25.976  0.00  0.00    +0.000 S 
ENDBRANCH  23  26
ENDBRANCH   1  23
TORSDOF 3
ENDMDL
MODEL 9
REMARK VINA RESULT:      -6.6      6.818      8.882
REMARK  Name = 
REMARK  4 active torsions:
REMARK  status: ('A' for Active; 'I' for Inactive)
REMARK    1  A    between atoms: C_1  and  S_2
REMARK    2  A    between atoms: S_2  and  C_3
REMARK    3  A    between atoms: C_3  and  N_5
REMARK    4  A    between atoms: N_16  and  C_17
REMARK                            x       y       z     vdW  Elec       q    Type
REMARK                         _______ _______ _______ _____ _____    ______ ____
ROOT
ATOM      1  N   UNL     1      -0.507  11.522  19.966  0.00  0.00    +0.000 N 
ATOM      2  C   UNL     1      -0.878  10.491  18.983  0.00  0.00    +0.000 C 
ATOM      3  C   UNL     1      -1.933  10.998  17.990  0.00  0.00    +0.000 C 
ATOM      4  C   UNL     1      -2.246   9.936  16.907  0.00  0.00    +0.000 C 
ATOM      5  C   UNL     1      -3.355  10.390  15.952  0.00  0.00    +0.000 C 
ATOM      6  C   UNL     1      -4.640  10.712  16.707  0.00  0.00    +0.000 C 
ATOM      7  C   UNL     1      -4.414  11.714  17.834  0.00  0.00    +0.000 C 
ATOM      8  C   UNL     1      -3.249  11.322  18.746  0.00  0.00    +0.000 C 
ATOM      9  C   UNL     1      -1.307  12.208  17.307  0.00  0.00    +0.000 C 
ATOM     10  O   UNL     1      -0.492  13.022  18.153  0.00  0.00    +0.000 OA
ATOM     11  C   UNL     1      -0.149  12.771  19.438  0.00  0.00    +0.000 C 
ATOM     12  N   UNL     1       0.517  13.669  20.103  0.00  0.00    +0.000 NA
ENDROOT
BRANCH  12  13
ATOM     13  C   UNL     1       0.808  14.921  19.497  0.00  0.00    +0.000 A 
ATOM     14  C   UNL     1      -0.158  15.947  19.485  0.00  0.00    +0.000 A 
ATOM     15  C   UNL     1       0.062  17.156  18.834  0.00  0.00    +0.000 A 
ATOM     16  C   UNL     1       1.296  17.405  18.250  0.00  0.00    +0.000 A 
ATOM     17  C   UNL     1       2.321  16.455  18.332  0.00  0.00    +0.000 A 
ATOM     18  C   UNL     1       2.076  15.193  18.935  0.00  0.00    +0.000 A 
ATOM     19  C   UNL     1       3.196  14.176  19.048  0.00  0.00    +0.000 C 
ATOM     20  C   UNL     1       4.410  14.480  18.164  0.00  0.00    +0.000 C 
ATOM     21  C   UNL     1       4.796  15.948  18.252  0.00  0.00    +0.000 C 
ATOM     22  C   UNL     1       3.657  16.813  17.727  0.00  0.00    +0.000 C 
ENDBRANCH  12  13
BRANCH   1  23
ATOM     23  C   UNL     1      -0.510  11.239  21.354  0.00  0.00    +0.000 C 
ATOM     24  S   UNL     1      -1.580  11.903  22.480  0.00  0.00    +0.000 S 
BRANCH  23  26
ATOM     25  C   UNL     1      -0.142   9.452  23.446  0.00  0.00    +0.000 C 
ATOM     26  S   UNL     1       0.603   9.950  21.879  0.00  0.00    +0.000 S 
ENDBRANCH  23  26
ENDBRANCH   1  23
TORSDOF 3
ENDMDL
