MODEL 1
REMARK VINA RESULT:      -7.3      0.000      0.000
REMARK  Name = 
REMARK  7 active torsions:
REMARK  status: ('A' for Active; 'I' for Inactive)
REMARK    1  A    between atoms: C_1  and  C_2
REMARK    2  A    between atoms: C_7  and  C_8
REMARK    3  A    between atoms: C_8  and  C_9
REMARK    4  A    between atoms: N_11  and  C_12
REMARK    5  A    between atoms: N_16  and  C_17
REMARK    6  A    between atoms: C_17  and  C_18
REMARK    7  A    between atoms: C_18  and  N_19
REMARK                            x       y       z     vdW  Elec       q    Type
REMARK                         _______ _______ _______ _____ _____    ______ ____
ROOT
ATOM      1  C   UNL     1       2.277   6.235  18.738  0.00  0.00    +0.000 C 
ATOM      2  C   UNL     1       1.977   5.079  17.774  0.00  0.00    +0.000 C 
ATOM      3  C   UNL     1       3.030   4.043  18.102  0.00  0.00    +0.000 C 
ATOM      4  O   UNL     1       3.052   2.901  17.674  0.00  0.00    +0.000 OA
ATOM      5  N   UNL     1       4.007   4.662  18.886  0.00  0.00    +0.000 N 
ATOM      6  C   UNL     1       3.776   6.080  18.974  0.00  0.00    +0.000 C 
ENDROOT
BRANCH   1   9
ATOM      7  C   UNL     1       1.516   8.581  19.060  0.00  0.00    +0.000 C 
ATOM      8  O   UNL     1       1.499   8.456  20.279  0.00  0.00    +0.000 OA
ATOM      9  N   UNL     1       1.895   7.551  18.218  0.00  0.00    +0.000 N 
ATOM     10  H   UNL     1       1.590   7.593  17.254  0.00  0.00    +0.000 HD
BRANCH   7  11
ATOM     11  C   UNL     1       1.246   9.930  18.334  0.00  0.00    +0.000 C 
BRANCH  11  18
ATOM     12  C   UNL     1       0.404  12.283  20.148  0.00  0.00    +0.000 C 
ATOM     13  C   UNL     1      -0.542  11.577  19.206  0.00  0.00    +0.000 A 
ATOM     14  C   UNL     1      -1.879  12.032  19.223  0.00  0.00    +0.000 A 
ATOM     15  C   UNL     1      -2.848  11.438  18.421  0.00  0.00    +0.000 A 
ATOM     16  C   UNL     1      -2.497  10.377  17.604  0.00  0.00    +0.000 A 
ATOM     17  C   UNL     1      -1.179   9.913  17.573  0.00  0.00    +0.000 A 
ATOM     18  C   UNL     1      -0.163  10.510  18.345  0.00  0.00    +0.000 A 
ENDBRANCH  11  18
ENDBRANCH   7  11
ENDBRANCH   1   9
BRANCH   5  19
ATOM     19  C   UNL     1       5.352   4.129  19.028  0.00  0.00    +0.000 C 
BRANCH  19  20
ATOM     20  C   UNL     1       6.371   5.150  19.585  0.00  0.00    +0.000 C 
BRANCH  20  21
ATOM     21  N   UNL     1       7.639   5.187  18.849  0.00  0.00    +0.000 NA
ATOM     22  C   UNL     1       8.137   6.566  18.664  0.00  0.00    +0.000 C 
ATOM     23  C   UNL     1       7.438   7.347  17.538  0.00  0.00    +0.000 C 
ATOM     24  O   UNL     1       7.518   6.652  16.290  0.00  0.00    +0.000 OA
ATOM     25  C   UNL     1       6.988   5.326  16.382  0.00  0.00    +0.000 C 
ATOM     26  C   UNL     1       7.615   4.519  17.532  0.00  0.00    +0.000 C 
ENDBRANCH  20  21
ENDBRANCH  19  20
ENDBRANCH   5  19
TORSDOF 6
ENDMDL
MODEL 2
REMARK VINA RESULT:      -7.2      4.830      7.762
REMARK  Name = 
REMARK  7 active torsions:
REMARK  status: ('A' for Active; 'I' for Inactive)
REMARK    1  A    between atoms: C_1  and  C_2
REMARK    2  A    between atoms: C_7  and  C_8
REMARK    3  A    between atoms: C_8  and  C_9
REMARK    4  A    between atoms: N_11  and  C_12
REMARK    5  A    between atoms: N_16  and  C_17
REMARK    6  A    between atoms: C_17  and  C_18
REMARK    7  A    between atoms: C_18  and  N_19
REMARK                            x       y       z     vdW  Elec       q    Type
REMARK                         _______ _______ _______ _____ _____    ______ ____
ROOT
ATOM      1  C   UNL     1       6.961   6.921  17.489  0.00  0.00    +0.000 C 
ATOM      2  C   UNL     1       7.456   5.892  16.464  0.00  0.00    +0.000 C 
ATOM      3  C   UNL     1       6.342   4.871  16.399  0.00  0.00    +0.000 C 
ATOM      4  O   UNL     1       6.261   3.967  15.584  0.00  0.00    +0.000 OA
ATOM      5  N   UNL     1       5.497   5.092  17.490  0.00  0.00    +0.000 N 
ATOM      6  C   UNL     1       6.049   6.080  18.378  0.00  0.00    +0.000 C 
ENDROOT
BRANCH   1   9
ATOM      7  C   UNL     1       8.197   8.966  18.177  0.00  0.00    +0.000 C 
ATOM      8  O   UNL     1       7.436   9.693  17.548  0.00  0.00    +0.000 OA
ATOM      9  N   UNL     1       8.039   7.593  18.219  0.00  0.00    +0.000 N 
ATOM     10  H   UNL     1       8.846   7.033  18.466  0.00  0.00    +0.000 HD
BRANCH   7  11
ATOM     11  C   UNL     1       9.331   9.506  19.095  0.00  0.00    +0.000 C 
BRANCH  11  18
ATOM     12  C   UNL     1       8.941  11.605  21.325  0.00  0.00    +0.000 C 
ATOM     13  C   UNL     1       9.559  11.920  19.984  0.00  0.00    +0.000 A 
ATOM     14  C   UNL     1       9.925  13.268  19.778  0.00  0.00    +0.000 A 
ATOM     15  C   UNL     1      10.475  13.684  18.569  0.00  0.00    +0.000 A 
ATOM     16  C   UNL     1      10.654  12.763  17.551  0.00  0.00    +0.000 A 
ATOM     17  C   UNL     1      10.298  11.424  17.737  0.00  0.00    +0.000 A 
ATOM     18  C   UNL     1       9.770  10.958  18.957  0.00  0.00    +0.000 A 
ENDBRANCH  11  18
ENDBRANCH   7  11
ENDBRANCH   1   9
BRANCH   5  19
ATOM     19  C   UNL     1       4.591   4.075  17.999  0.00  0.00    +0.000 C 
BRANCH  19  20
ATOM     20  C   UNL     1       4.106   4.340  19.443  0.00  0.00    +0.000 C 
BRANCH  20  21
ATOM     21  N   UNL     1       2.676   4.654  19.541  0.00  0.00    +0.000 NA
ATOM     22  C   UNL     1       2.221   4.750  20.943  0.00  0.00    +0.000 C 
ATOM     23  C   UNL     1       1.989   3.393  21.629  0.00  0.00    +0.000 C 
ATOM     24  O   UNL     1       1.065   2.586  20.894  0.00  0.00    +0.000 OA
ATOM     25  C   UNL     1       1.481   2.395  19.539  0.00  0.00    +0.000 C 
ATOM     26  C   UNL     1       1.782   3.723  18.823  0.00  0.00    +0.000 C 
ENDBRANCH  20  21
ENDBRANCH  19  20
ENDBRANCH   5  19
TORSDOF 6
ENDMDL
MODEL 3
REMARK VINA RESULT:      -7.0      4.647      7.746
REMARK  Name = 
REMARK  7 active torsions:
REMARK  status: ('A' for Active; 'I' for Inactive)
REMARK    1  A    between atoms: C_1  and  C_2
REMARK    2  A    between atoms: C_7  and  C_8
REMARK    3  A    between atoms: C_8  and  C_9
REMARK    4  A    between atoms: N_11  and  C_12
REMARK    5  A    between atoms: N_16  and  C_17
REMARK    6  A    between atoms: C_17  and  C_18
REMARK    7  A    between atoms: C_18  and  N_19
REMARK                            x       y       z     vdW  Elec       q    Type
REMARK                         _______ _______ _______ _____ _____    ______ ____
ROOT
ATOM      1  C   UNL     1       6.915   6.967  17.083  0.00  0.00    +0.000 C 
ATOM      2  C   UNL     1       7.312   5.581  16.557  0.00  0.00    +0.000 C 
ATOM      3  C   UNL     1       5.990   4.877  16.340  0.00  0.00    +0.000 C 
ATOM      4  O   UNL     1       5.847   3.805  15.776  0.00  0.00    +0.000 OA
ATOM      5  N   UNL     1       4.999   5.621  16.986  0.00  0.00    +0.000 N 
ATOM      6  C   UNL     1       5.578   6.686  17.762  0.00  0.00    +0.000 C 
ENDROOT
BRANCH   1   9
ATOM      7  C   UNL     1       8.096   8.938  18.034  0.00  0.00    +0.000 C 
ATOM      8  O   UNL     1       7.424   9.719  17.370  0.00  0.00    +0.000 OA
ATOM      9  N   UNL     1       7.913   7.569  17.971  0.00  0.00    +0.000 N 
ATOM     10  H   UNL     1       8.677   6.977  18.272  0.00  0.00    +0.000 HD
BRANCH   7  11
ATOM     11  C   UNL     1       9.126   9.395  19.107  0.00  0.00    +0.000 C 
BRANCH  11  18
ATOM     12  C   UNL     1       8.984  11.467  21.392  0.00  0.00    +0.000 C 
ATOM     13  C   UNL     1       9.637  11.741  20.058  0.00  0.00    +0.000 A 
ATOM     14  C   UNL     1      10.161  13.041  19.886  0.00  0.00    +0.000 A 
ATOM     15  C   UNL     1      10.758  13.420  18.688  0.00  0.00    +0.000 A 
ATOM     16  C   UNL     1      10.828  12.512  17.646  0.00  0.00    +0.000 A 
ATOM     17  C   UNL     1      10.316  11.220  17.798  0.00  0.00    +0.000 A 
ATOM     18  C   UNL     1       9.734  10.788  19.006  0.00  0.00    +0.000 A 
ENDBRANCH  11  18
ENDBRANCH   7  11
ENDBRANCH   1   9
BRANCH   5  19
ATOM     19  C   UNL     1       3.714   5.056  17.362  0.00  0.00    +0.000 C 
BRANCH  19  20
ATOM     20  C   UNL     1       3.818   3.897  18.380  0.00  0.00    +0.000 C 
BRANCH  20  21
ATOM     21  N   UNL     1       2.520   3.378  18.825  0.00  0.00    +0.000 NA
ATOM     22  C   UNL     1       1.663   4.436  19.399  0.00  0.00    +0.000 C 
ATOM     23  C   UNL     1       2.022   4.830  20.842  0.00  0.00    +0.000 C 
ATOM     24  O   UNL     1       2.008   3.695  21.714  0.00  0.00    +0.000 OA
ATOM     25  C   UNL     1       2.872   2.654  21.250  0.00  0.00    +0.000 C 
ATOM     26  C   UNL     1       2.592   2.262  19.789  0.00  0.00    +0.000 C 
ENDBRANCH  20  21
ENDBRANCH  19  20
ENDBRANCH   5  19
TORSDOF 6
ENDMDL
MODEL 4
REMARK VINA RESULT:      -6.9      1.641      2.337
REMARK  Name = 
REMARK  7 active torsions:
REMARK  status: ('A' for Active; 'I' for Inactive)
REMARK    1  A    between atoms: C_1  and  C_2
REMARK    2  A    between atoms: C_7  and  C_8
REMARK    3  A    between atoms: C_8  and  C_9
REMARK    4  A    between atoms: N_11  and  C_12
REMARK    5  A    between atoms: N_16  and  C_17
REMARK    6  A    between atoms: C_17  and  C_18
REMARK    7  A    between atoms: C_18  and  N_19
REMARK                            x       y       z     vdW  Elec       q    Type
REMARK                         _______ _______ _______ _____ _____    ______ ____
ROOT
ATOM      1  C   UNL     1       2.097   7.495  20.129  0.00  0.00    +0.000 C 
ATOM      2  C   UNL     1       1.108   6.430  20.622  0.00  0.00    +0.000 C 
ATOM      3  C   UNL     1       1.924   5.157  20.655  0.00  0.00    +0.000 C 
ATOM      4  O   UNL     1       1.561   4.100  21.144  0.00  0.00    +0.000 OA
ATOM      5  N   UNL     1       3.105   5.388  19.944  0.00  0.00    +0.000 N 
ATOM      6  C   UNL     1       3.071   6.671  19.293  0.00  0.00    +0.000 C 
ENDROOT
BRANCH   1   9
ATOM      7  C   UNL     1       0.896   9.671  20.037  0.00  0.00    +0.000 C 
ATOM      8  O   UNL     1       0.907   9.780  21.258  0.00  0.00    +0.000 OA
ATOM      9  N   UNL     1       1.465   8.590  19.388  0.00  0.00    +0.000 N 
ATOM     10  H   UNL     1       1.155   8.389  18.446  0.00  0.00    +0.000 HD
BRANCH   7  11
ATOM     11  C   UNL     1       0.367  10.780  19.083  0.00  0.00    +0.000 C 
BRANCH  11  18
ATOM     12  C   UNL     1      -1.803   9.889  17.076  0.00  0.00    +0.000 C 
ATOM     13  C   UNL     1      -2.072  10.816  18.237  0.00  0.00    +0.000 A 
ATOM     14  C   UNL     1      -3.395  11.301  18.342  0.00  0.00    +0.000 A 
ATOM     15  C   UNL     1      -3.755  12.187  19.353  0.00  0.00    +0.000 A 
ATOM     16  C   UNL     1      -2.798  12.607  20.261  0.00  0.00    +0.000 A 
ATOM     17  C   UNL     1      -1.485  12.136  20.174  0.00  0.00    +0.000 A 
ATOM     18  C   UNL     1      -1.090  11.214  19.186  0.00  0.00    +0.000 A 
ENDBRANCH  11  18
ENDBRANCH   7  11
ENDBRANCH   1   9
BRANCH   5  19
ATOM     19  C   UNL     1       3.916   4.311  19.400  0.00  0.00    +0.000 C 
BRANCH  19  20
ATOM     20  C   UNL     1       5.383   4.714  19.127  0.00  0.00    +0.000 C 
BRANCH  20  21
ATOM     21  N   UNL     1       5.864   4.338  17.793  0.00  0.00    +0.000 NA
ATOM     22  C   UNL     1       7.226   4.844  17.527  0.00  0.00    +0.000 C 
ATOM     23  C   UNL     1       7.287   6.334  17.149  0.00  0.00    +0.000 C 
ATOM     24  O   UNL     1       6.455   6.623  16.022  0.00  0.00    +0.000 OA
ATOM     25  C   UNL     1       5.100   6.218  16.239  0.00  0.00    +0.000 C 
ATOM     26  C   UNL     1       4.988   4.747  16.676  0.00  0.00    +0.000 C 
ENDBRANCH  20  21
ENDBRANCH  19  20
ENDBRANCH   5  19
TORSDOF 6
ENDMDL
MODEL 5
REMARK VINA RESULT:      -6.9      1.720      2.372
REMARK  Name = 
REMARK  7 active torsions:
REMARK  status: ('A' for Active; 'I' for Inactive)
REMARK    1  A    between atoms: C_1  and  C_2
REMARK    2  A    between atoms: C_7  and  C_8
REMARK    3  A    between atoms: C_8  and  C_9
REMARK    4  A    between atoms: N_11  and  C_12
REMARK    5  A    between atoms: N_16  and  C_17
REMARK    6  A    between atoms: C_17  and  C_18
REMARK    7  A    between atoms: C_18  and  N_19
REMARK                            x       y       z     vdW  Elec       q    Type
REMARK                         _______ _______ _______ _____ _____    ______ ____
ROOT
ATOM      1  C   UNL     1       2.262   7.250  19.728  0.00  0.00    +0.000 C 
ATOM      2  C   UNL     1       2.214   6.069  20.708  0.00  0.00    +0.000 C 
ATOM      3  C   UNL     1       2.738   4.901  19.902  0.00  0.00    +0.000 C 
ATOM      4  O   UNL     1       3.015   3.802  20.353  0.00  0.00    +0.000 OA
ATOM      5  N   UNL     1       2.744   5.279  18.557  0.00  0.00    +0.000 N 
ATOM      6  C   UNL     1       2.108   6.557  18.378  0.00  0.00    +0.000 C 
ENDROOT
BRANCH   1   9
ATOM      7  C   UNL     1       1.171   9.429  19.231  0.00  0.00    +0.000 C 
ATOM      8  O   UNL     1       1.934   9.650  18.298  0.00  0.00    +0.000 OA
ATOM      9  N   UNL     1       1.245   8.272  19.986  0.00  0.00    +0.000 N 
ATOM     10  H   UNL     1       0.829   8.284  20.909  0.00  0.00    +0.000 HD
BRANCH   7  11
ATOM     11  C   UNL     1      -0.035  10.345  19.585  0.00  0.00    +0.000 C 
BRANCH  11  18
ATOM     12  C   UNL     1      -2.306  12.411  19.914  0.00  0.00    +0.000 C 
ATOM     13  C   UNL     1      -2.217  11.448  18.754  0.00  0.00    +0.000 A 
ATOM     14  C   UNL     1      -3.274  11.513  17.819  0.00  0.00    +0.000 A 
ATOM     15  C   UNL     1      -3.317  10.654  16.726  0.00  0.00    +0.000 A 
ATOM     16  C   UNL     1      -2.314   9.714  16.560  0.00  0.00    +0.000 A 
ATOM     17  C   UNL     1      -1.260   9.636  17.474  0.00  0.00    +0.000 A 
ATOM     18  C   UNL     1      -1.164  10.509  18.574  0.00  0.00    +0.000 A 
ENDBRANCH  11  18
ENDBRANCH   7  11
ENDBRANCH   1   9
BRANCH   5  19
ATOM     19  C   UNL     1       2.765   4.312  17.471  0.00  0.00    +0.000 C 
BRANCH  19  20
ATOM     20  C   UNL     1       4.185   3.992  16.950  0.00  0.00    +0.000 C 
BRANCH  20  21
ATOM     21  N   UNL     1       5.029   5.176  16.759  0.00  0.00    +0.000 NA
ATOM     22  C   UNL     1       5.651   5.208  15.419  0.00  0.00    +0.000 C 
ATOM     23  C   UNL     1       6.874   4.288  15.266  0.00  0.00    +0.000 C 
ATOM     24  O   UNL     1       7.873   4.575  16.249  0.00  0.00    +0.000 OA
ATOM     25  C   UNL     1       7.352   4.495  17.579  0.00  0.00    +0.000 C 
ATOM     26  C   UNL     1       6.091   5.355  17.771  0.00  0.00    +0.000 C 
ENDBRANCH  20  21
ENDBRANCH  19  20
ENDBRANCH   5  19
TORSDOF 6
ENDMDL
MODEL 6
REMARK VINA RESULT:      -6.8      4.560      7.551
REMARK  Name = 
REMARK  7 active torsions:
REMARK  status: ('A' for Active; 'I' for Inactive)
REMARK    1  A    between atoms: C_1  and  C_2
REMARK    2  A    between atoms: C_7  and  C_8
REMARK    3  A    between atoms: C_8  and  C_9
REMARK    4  A    between atoms: N_11  and  C_12
REMARK    5  A    between atoms: N_16  and  C_17
REMARK    6  A    between atoms: C_17  and  C_18
REMARK    7  A    between atoms: C_18  and  N_19
REMARK                            x       y       z     vdW  Elec       q    Type
REMARK                         _______ _______ _______ _____ _____    ______ ____
ROOT
ATOM      1  C   UNL     1       6.950   6.905  17.614  0.00  0.00    +0.000 C 
ATOM      2  C   UNL     1       7.333   5.915  16.505  0.00  0.00    +0.000 C 
ATOM      3  C   UNL     1       6.262   4.849  16.578  0.00  0.00    +0.000 C 
ATOM      4  O   UNL     1       6.101   3.956  15.762  0.00  0.00    +0.000 OA
ATOM      5  N   UNL     1       5.574   5.016  17.782  0.00  0.00    +0.000 N 
ATOM      6  C   UNL     1       6.209   6.013  18.604  0.00  0.00    +0.000 C 
ENDROOT
BRANCH   1   9
ATOM      7  C   UNL     1       8.217   8.985  18.116  0.00  0.00    +0.000 C 
ATOM      8  O   UNL     1       7.371   9.686  17.574  0.00  0.00    +0.000 OA
ATOM      9  N   UNL     1       8.095   7.610  18.197  0.00  0.00    +0.000 N 
ATOM     10  H   UNL     1       8.937   7.070  18.352  0.00  0.00    +0.000 HD
BRANCH   7  11
ATOM     11  C   UNL     1       9.443   9.562  18.882  0.00  0.00    +0.000 C 
BRANCH  11  18
ATOM     12  C   UNL     1       9.839  12.322  17.557  0.00  0.00    +0.000 C 
ATOM     13  C   UNL     1       9.506  12.140  19.018  0.00  0.00    +0.000 A 
ATOM     14  C   UNL     1       9.420  13.325  19.781  0.00  0.00    +0.000 A 
ATOM     15  C   UNL     1       9.150  13.281  21.145  0.00  0.00    +0.000 A 
ATOM     16  C   UNL     1       8.975  12.055  21.764  0.00  0.00    +0.000 A 
ATOM     17  C   UNL     1       9.055  10.872  21.025  0.00  0.00    +0.000 A 
ATOM     18  C   UNL     1       9.294  10.877  19.637  0.00  0.00    +0.000 A 
ENDBRANCH  11  18
ENDBRANCH   7  11
ENDBRANCH   1   9
BRANCH   5  19
ATOM     19  C   UNL     1       4.791   3.954  18.392  0.00  0.00    +0.000 C 
BRANCH  19  20
ATOM     20  C   UNL     1       3.944   4.419  19.599  0.00  0.00    +0.000 C 
BRANCH  20  21
ATOM     21  N   UNL     1       2.586   4.844  19.243  0.00  0.00    +0.000 NA
ATOM     22  C   UNL     1       1.665   4.793  20.397  0.00  0.00    +0.000 C 
ATOM     23  C   UNL     1       1.155   3.383  20.740  0.00  0.00    +0.000 C 
ATOM     24  O   UNL     1       0.524   2.766  19.615  0.00  0.00    +0.000 OA
ATOM     25  C   UNL     1       1.389   2.721  18.476  0.00  0.00    +0.000 C 
ATOM     26  C   UNL     1       1.973   4.100  18.124  0.00  0.00    +0.000 C 
ENDBRANCH  20  21
ENDBRANCH  19  20
ENDBRANCH   5  19
TORSDOF 6
ENDMDL
MODEL 7
REMARK VINA RESULT:      -6.8      3.028      8.977
REMARK  Name = 
REMARK  7 active torsions:
REMARK  status: ('A' for Active; 'I' for Inactive)
REMARK    1  A    between atoms: C_1  and  C_2
REMARK    2  A    between atoms: C_7  and  C_8
REMARK    3  A    between atoms: C_8  and  C_9
REMARK    4  A    between atoms: N_11  and  C_12
REMARK    5  A    between atoms: N_16  and  C_17
REMARK    6  A    between atoms: C_17  and  C_18
REMARK    7  A    between atoms: C_18  and  N_19
REMARK                            x       y       z     vdW  Elec       q    Type
REMARK                         _______ _______ _______ _____ _____    ______ ____
ROOT
ATOM      1  C   UNL     1       1.822   9.550  18.929  0.00  0.00    +0.000 C 
ATOM      2  C   UNL     1       2.126  10.858  18.185  0.00  0.00    +0.000 C 
ATOM      3  C   UNL     1       1.119  11.840  18.741  0.00  0.00    +0.000 C 
ATOM      4  O   UNL     1       1.120  13.042  18.534  0.00  0.00    +0.000 OA
ATOM      5  N   UNL     1       0.150  11.112  19.435  0.00  0.00    +0.000 N 
ATOM      6  C   UNL     1       0.337   9.697  19.249  0.00  0.00    +0.000 C 
ENDROOT
BRANCH   1   9
ATOM      7  C   UNL     1       2.475   7.155  18.781  0.00  0.00    +0.000 C 
ATOM      8  O   UNL     1       2.498   7.039  20.001  0.00  0.00    +0.000 OA
ATOM      9  N   UNL     1       2.143   8.345  18.160  0.00  0.00    +0.000 N 
ATOM     10  H   UNL     1       2.445   8.478  17.203  0.00  0.00    +0.000 HD
BRANCH   7  11
ATOM     11  C   UNL     1       2.682   5.962  17.805  0.00  0.00    +0.000 C 
BRANCH  11  18
ATOM     12  C   UNL     1       4.424   3.553  16.973  0.00  0.00    +0.000 C 
ATOM     13  C   UNL     1       3.229   3.440  17.889  0.00  0.00    +0.000 A 
ATOM     14  C   UNL     1       2.913   2.135  18.328  0.00  0.00    +0.000 A 
ATOM     15  C   UNL     1       1.814   1.903  19.150  0.00  0.00    +0.000 A 
ATOM     16  C   UNL     1       1.013   2.966  19.531  0.00  0.00    +0.000 A 
ATOM     17  C   UNL     1       1.311   4.264  19.107  0.00  0.00    +0.000 A 
ATOM     18  C   UNL     1       2.432   4.544  18.302  0.00  0.00    +0.000 A 
ENDBRANCH  11  18
ENDBRANCH   7  11
ENDBRANCH   1   9
BRANCH   5  19
ATOM     19  C   UNL     1      -1.172  11.643  19.727  0.00  0.00    +0.000 C 
BRANCH  19  20
ATOM     20  C   UNL     1      -2.054  11.839  18.472  0.00  0.00    +0.000 C 
BRANCH  20  21
ATOM     21  N   UNL     1      -2.850  10.659  18.116  0.00  0.00    +0.000 NA
ATOM     22  C   UNL     1      -2.366  10.012  16.878  0.00  0.00    +0.000 C 
ATOM     23  C   UNL     1      -2.798  10.719  15.582  0.00  0.00    +0.000 C 
ATOM     24  O   UNL     1      -4.220  10.857  15.510  0.00  0.00    +0.000 OA
ATOM     25  C   UNL     1      -4.750  11.539  16.651  0.00  0.00    +0.000 C 
ATOM     26  C   UNL     1      -4.300  10.904  17.978  0.00  0.00    +0.000 C 
ENDBRANCH  20  21
ENDBRANCH  19  20
ENDBRANCH   5  19
TORSDOF 6
ENDMDL
MODEL 8
REMARK VINA RESULT:      -6.8      2.702      8.724
REMARK  Name = 
REMARK  7 active torsions:
REMARK  status: ('A' for Active; 'I' for Inactive)
REMARK    1  A    between atoms: C_1  and  C_2
REMARK    2  A    between atoms: C_7  and  C_8
REMARK    3  A    between atoms: C_8  and  C_9
REMARK    4  A    between atoms: N_11  and  C_12
REMARK    5  A    between atoms: N_16  and  C_17
REMARK    6  A    between atoms: C_17  and  C_18
REMARK    7  A    between atoms: C_18  and  N_19
REMARK                            x       y       z     vdW  Elec       q    Type
REMARK                         _______ _______ _______ _____ _____    ______ ____
ROOT
ATOM      1  C   UNL     1       1.226   7.992  20.527  0.00  0.00    +0.000 C 
ATOM      2  C   UNL     1       1.386   8.996  21.677  0.00  0.00    +0.000 C 
ATOM      3  C   UNL     1       0.776  10.272  21.140  0.00  0.00    +0.000 C 
ATOM      4  O   UNL     1       0.553  11.276  21.795  0.00  0.00    +0.000 OA
ATOM      5  N   UNL     1       0.616  10.121  19.760  0.00  0.00    +0.000 N 
ATOM      6  C   UNL     1       1.226   8.901  19.301  0.00  0.00    +0.000 C 
ENDROOT
BRANCH   1   9
ATOM      7  C   UNL     1       1.948   5.613  20.480  0.00  0.00    +0.000 C 
ATOM      8  O   UNL     1       0.789   5.214  20.470  0.00  0.00    +0.000 OA
ATOM      9  N   UNL     1       2.264   6.959  20.496  0.00  0.00    +0.000 N 
ATOM     10  H   UNL     1       3.185   7.224  20.823  0.00  0.00    +0.000 HD
BRANCH   7  11
ATOM     11  C   UNL     1       3.179   4.671  20.342  0.00  0.00    +0.000 C 
BRANCH  11  18
ATOM     12  C   UNL     1       2.299   3.581  17.590  0.00  0.00    +0.000 C 
ATOM     13  C   UNL     1       3.639   4.232  17.839  0.00  0.00    +0.000 A 
ATOM     14  C   UNL     1       4.512   4.285  16.730  0.00  0.00    +0.000 A 
ATOM     15  C   UNL     1       5.785   4.834  16.847  0.00  0.00    +0.000 A 
ATOM     16  C   UNL     1       6.205   5.323  18.071  0.00  0.00    +0.000 A 
ATOM     17  C   UNL     1       5.355   5.280  19.180  0.00  0.00    +0.000 A 
ATOM     18  C   UNL     1       4.048   4.763  19.094  0.00  0.00    +0.000 A 
ENDBRANCH  11  18
ENDBRANCH   7  11
ENDBRANCH   1   9
BRANCH   5  19
ATOM     19  C   UNL     1       0.473  11.252  18.858  0.00  0.00    +0.000 C 
BRANCH  19  20
ATOM     20  C   UNL     1      -0.992  11.701  18.651  0.00  0.00    +0.000 C 
BRANCH  20  21
ATOM     21  N   UNL     1      -1.933  10.591  18.467  0.00  0.00    +0.000 NA
ATOM     22  C   UNL     1      -1.798   9.959  17.138  0.00  0.00    +0.000 C 
ATOM     23  C   UNL     1      -2.465  10.740  15.993  0.00  0.00    +0.000 C 
ATOM     24  O   UNL     1      -3.851  10.975  16.258  0.00  0.00    +0.000 OA
ATOM     25  C   UNL     1      -4.051  11.648  17.504  0.00  0.00    +0.000 C 
ATOM     26  C   UNL     1      -3.354  10.938  18.677  0.00  0.00    +0.000 C 
ENDBRANCH  20  21
ENDBRANCH  19  20
ENDBRANCH   5  19
TORSDOF 6
ENDMDL
MODEL 9
REMARK VINA RESULT:      -6.8      1.543      1.779
REMARK  Name = 
REMARK  7 active torsions:
REMARK  status: ('A' for Active; 'I' for Inactive)
REMARK    1  A    between atoms: C_1  and  C_2
REMARK    2  A    between atoms: C_7  and  C_8
REMARK    3  A    between atoms: C_8  and  C_9
REMARK    4  A    between atoms: N_11  and  C_12
REMARK    5  A    between atoms: N_16  and  C_17
REMARK    6  A    between atoms: C_17  and  C_18
REMARK    7  A    between atoms: C_18  and  N_19
REMARK                            x       y       z     vdW  Elec       q    Type
REMARK                         _______ _______ _______ _____ _____    ______ ____
ROOT
ATOM      1  C   UNL     1       2.344   6.570  20.158  0.00  0.00    +0.000 C 
ATOM      2  C   UNL     1       1.256   5.501  19.984  0.00  0.00    +0.000 C 
ATOM      3  C   UNL     1       2.029   4.208  19.849  0.00  0.00    +0.000 C 
ATOM      4  O   UNL     1       1.539   3.091  19.853  0.00  0.00    +0.000 OA
ATOM      5  N   UNL     1       3.368   4.533  19.618  0.00  0.00    +0.000 N 
ATOM      6  C   UNL     1       3.528   5.950  19.423  0.00  0.00    +0.000 C 
ENDROOT
BRANCH   1   9
ATOM      7  C   UNL     1       1.191   8.759  20.402  0.00  0.00    +0.000 C 
ATOM      8  O   UNL     1       0.807   8.483  21.532  0.00  0.00    +0.000 OA
ATOM      9  N   UNL     1       1.961   7.890  19.652  0.00  0.00    +0.000 N 
ATOM     10  H   UNL     1       1.974   8.018  18.647  0.00  0.00    +0.000 HD
BRANCH   7  11
ATOM     11  C   UNL     1       0.974  10.151  19.741  0.00  0.00    +0.000 C 
BRANCH  11  18
ATOM     12  C   UNL     1      -1.225  12.019  20.841  0.00  0.00    +0.000 C 
ATOM     13  C   UNL     1      -1.345  11.269  19.535  0.00  0.00    +0.000 A 
ATOM     14  C   UNL     1      -2.563  11.438  18.840  0.00  0.00    +0.000 A 
ATOM     15  C   UNL     1      -2.800  10.772  17.641  0.00  0.00    +0.000 A 
ATOM     16  C   UNL     1      -1.833   9.924  17.131  0.00  0.00    +0.000 A 
ATOM     17  C   UNL     1      -0.622   9.746  17.805  0.00  0.00    +0.000 A 
ATOM     18  C   UNL     1      -0.330  10.426  19.003  0.00  0.00    +0.000 A 
ENDBRANCH  11  18
ENDBRANCH   7  11
ENDBRANCH   1   9
BRANCH   5  19
ATOM     19  C   UNL     1       4.310   3.600  19.021  0.00  0.00    +0.000 C 
BRANCH  19  20
ATOM     20  C   UNL     1       4.396   3.704  17.480  0.00  0.00    +0.000 C 
BRANCH  20  21
ATOM     21  N   UNL     1       5.767   3.711  16.961  0.00  0.00    +0.000 NA
ATOM     22  C   UNL     1       6.611   4.727  17.624  0.00  0.00    +0.000 C 
ATOM     23  C   UNL     1       6.391   6.162  17.116  0.00  0.00    +0.000 C 
ATOM     24  O   UNL     1       6.580   6.253  15.701  0.00  0.00    +0.000 OA
ATOM     25  C   UNL     1       5.740   5.338  14.991  0.00  0.00    +0.000 C 
ATOM     26  C   UNL     1       5.879   3.893  15.499  0.00  0.00    +0.000 C 
ENDBRANCH  20  21
ENDBRANCH  19  20
ENDBRANCH   5  19
TORSDOF 6
ENDMDL
