MODEL 1
REMARK VINA RESULT:      -7.2      0.000      0.000
REMARK  Name = 
REMARK  10 active torsions:
REMARK  status: ('A' for Active; 'I' for Inactive)
REMARK    1  A    between atoms: C_1  and  O_2
REMARK    2  A    between atoms: O_2  and  C_3
REMARK    3  A    between atoms: C_6  and  C_7
REMARK    4  A    between atoms: C_7  and  O_9
REMARK    5  A    between atoms: O_9  and  N_10
REMARK    6  A    between atoms: C_11  and  C_12
REMARK    7  A    between atoms: C_11  and  C_17
REMARK    8  A    between atoms: C_17  and  C_18
REMARK    9  A    between atoms: C_17  and  C_19
REMARK   10  A    between atoms: C_17  and  C_20
REMARK                            x       y       z     vdW  Elec       q    Type
REMARK                         _______ _______ _______ _____ _____    ______ ____
ROOT
ATOM      1  O   UNL     1       4.489   7.350  17.630  0.00  0.00    +0.000 OA
ENDROOT
BRANCH   1   2
ATOM      2  C   UNL     1       3.142   7.525  17.715  0.00  0.00    +0.000 C 
ATOM      3  O   UNL     1       2.477   8.460  17.303  0.00  0.00    +0.000 OA
BRANCH   2   7
ATOM      4  C   UNL     1       1.489   4.219  19.897  0.00  0.00    +0.000 A 
ATOM      5  C   UNL     1       1.660   4.142  18.514  0.00  0.00    +0.000 A 
ATOM      6  C   UNL     1       2.216   5.206  17.808  0.00  0.00    +0.000 A 
ATOM      7  C   UNL     1       2.602   6.372  18.482  0.00  0.00    +0.000 A 
ATOM      8  C   UNL     1       2.414   6.467  19.868  0.00  0.00    +0.000 A 
ATOM      9  C   UNL     1       1.864   5.381  20.573  0.00  0.00    +0.000 A 
BRANCH   4  11
ATOM     10  C   UNL     1       1.469   2.646  21.666  0.00  0.00    +0.000 C 
ATOM     11  O   UNL     1       0.904   3.117  20.451  0.00  0.00    +0.000 OA
ENDBRANCH   4  11
ENDBRANCH   2   7
ENDBRANCH   1   2
BRANCH   1  12
ATOM     12  N   UNL     1       4.856   6.761  16.424  0.00  0.00    +0.000 NA
ATOM     13  C   UNL     1       5.875   5.942  16.503  0.00  0.00    +0.000 C 
BRANCH  13  14
ATOM     14  C   UNL     1       6.056   5.152  15.262  0.00  0.00    +0.000 A 
ATOM     15  C   UNL     1       5.168   4.206  14.759  0.00  0.00    +0.000 A 
ATOM     16  C   UNL     1       5.590   3.622  13.528  0.00  0.00    +0.000 A 
ATOM     17  C   UNL     1       6.791   4.141  13.110  0.00  0.00    +0.000 A 
ATOM     18  S   UNL     1       7.387   5.308  14.197  0.00  0.00    +0.000 S 
ENDBRANCH  13  14
BRANCH  13  19
ATOM     19  C   UNL     1       6.792   5.696  17.781  0.00  0.00    +0.000 C 
ATOM     20  C   UNL     1       6.047   5.416  19.108  0.00  0.00    +0.000 C 
ATOM     21  C   UNL     1       7.683   4.461  17.535  0.00  0.00    +0.000 C 
ATOM     22  C   UNL     1       7.664   6.930  18.099  0.00  0.00    +0.000 C 
ENDBRANCH  13  19
ENDBRANCH   1  12
TORSDOF 6
ENDMDL
MODEL 2
REMARK VINA RESULT:      -7.1      3.217      4.728
REMARK  Name = 
REMARK  10 active torsions:
REMARK  status: ('A' for Active; 'I' for Inactive)
REMARK    1  A    between atoms: C_1  and  O_2
REMARK    2  A    between atoms: O_2  and  C_3
REMARK    3  A    between atoms: C_6  and  C_7
REMARK    4  A    between atoms: C_7  and  O_9
REMARK    5  A    between atoms: O_9  and  N_10
REMARK    6  A    between atoms: C_11  and  C_12
REMARK    7  A    between atoms: C_11  and  C_17
REMARK    8  A    between atoms: C_17  and  C_18
REMARK    9  A    between atoms: C_17  and  C_19
REMARK   10  A    between atoms: C_17  and  C_20
REMARK                            x       y       z     vdW  Elec       q    Type
REMARK                         _______ _______ _______ _____ _____    ______ ____
ROOT
ATOM      1  O   UNL     1       2.103   7.145  18.524  0.00  0.00    +0.000 OA
ENDROOT
BRANCH   1   2
ATOM      2  C   UNL     1       1.933   8.487  18.368  0.00  0.00    +0.000 C 
ATOM      3  O   UNL     1       2.240   9.179  17.413  0.00  0.00    +0.000 OA
BRANCH   2   7
ATOM      4  C   UNL     1       0.313  10.028  22.031  0.00  0.00    +0.000 A 
ATOM      5  C   UNL     1       0.218  10.763  20.849  0.00  0.00    +0.000 A 
ATOM      6  C   UNL     1       0.725  10.255  19.655  0.00  0.00    +0.000 A 
ATOM      7  C   UNL     1       1.344   8.998  19.633  0.00  0.00    +0.000 A 
ATOM      8  C   UNL     1       1.463   8.263  20.820  0.00  0.00    +0.000 A 
ATOM      9  C   UNL     1       0.936   8.779  22.017  0.00  0.00    +0.000 A 
BRANCH   4  11
ATOM     10  C   UNL     1      -1.283  11.548  22.897  0.00  0.00    +0.000 C 
ATOM     11  O   UNL     1      -0.197  10.663  23.128  0.00  0.00    +0.000 OA
ENDBRANCH   4  11
ENDBRANCH   2   7
ENDBRANCH   1   2
BRANCH   1  12
ATOM     12  N   UNL     1       3.386   6.744  18.165  0.00  0.00    +0.000 NA
ATOM     13  C   UNL     1       3.585   5.450  18.201  0.00  0.00    +0.000 C 
BRANCH  13  14
ATOM     14  C   UNL     1       4.868   5.063  17.567  0.00  0.00    +0.000 A 
ATOM     15  C   UNL     1       5.026   4.584  16.269  0.00  0.00    +0.000 A 
ATOM     16  C   UNL     1       6.383   4.319  15.919  0.00  0.00    +0.000 A 
ATOM     17  C   UNL     1       7.236   4.609  16.954  0.00  0.00    +0.000 A 
ATOM     18  S   UNL     1       6.399   5.187  18.320  0.00  0.00    +0.000 S 
ENDBRANCH  13  14
BRANCH  13  19
ATOM     19  C   UNL     1       2.570   4.353  18.752  0.00  0.00    +0.000 C 
ATOM     20  C   UNL     1       1.856   4.696  20.081  0.00  0.00    +0.000 C 
ATOM     21  C   UNL     1       1.446   4.139  17.718  0.00  0.00    +0.000 C 
ATOM     22  C   UNL     1       3.286   3.018  19.049  0.00  0.00    +0.000 C 
ENDBRANCH  13  19
ENDBRANCH   1  12
TORSDOF 6
ENDMDL
MODEL 3
REMARK VINA RESULT:      -7.1      3.137      4.574
REMARK  Name = 
REMARK  10 active torsions:
REMARK  status: ('A' for Active; 'I' for Inactive)
REMARK    1  A    between atoms: C_1  and  O_2
REMARK    2  A    between atoms: O_2  and  C_3
REMARK    3  A    between atoms: C_6  and  C_7
REMARK    4  A    between atoms: C_7  and  O_9
REMARK    5  A    between atoms: O_9  and  N_10
REMARK    6  A    between atoms: C_11  and  C_12
REMARK    7  A    between atoms: C_11  and  C_17
REMARK    8  A    between atoms: C_17  and  C_18
REMARK    9  A    between atoms: C_17  and  C_19
REMARK   10  A    between atoms: C_17  and  C_20
REMARK                            x       y       z     vdW  Elec       q    Type
REMARK                         _______ _______ _______ _____ _____    ______ ____
ROOT
ATOM      1  O   UNL     1       2.230   7.083  18.464  0.00  0.00    +0.000 OA
ENDROOT
BRANCH   1   2
ATOM      2  C   UNL     1       2.006   8.409  18.248  0.00  0.00    +0.000 C 
ATOM      3  O   UNL     1       2.224   9.054  17.237  0.00  0.00    +0.000 OA
BRANCH   2   7
ATOM      4  C   UNL     1       0.433   9.982  21.918  0.00  0.00    +0.000 A 
ATOM      5  C   UNL     1       1.019   8.716  21.882  0.00  0.00    +0.000 A 
ATOM      6  C   UNL     1       1.548   8.213  20.696  0.00  0.00    +0.000 A 
ATOM      7  C   UNL     1       1.490   8.974  19.521  0.00  0.00    +0.000 A 
ATOM      8  C   UNL     1       0.885  10.238  19.544  0.00  0.00    +0.000 A 
ATOM      9  C   UNL     1       0.365  10.742  20.749  0.00  0.00    +0.000 A 
BRANCH   4  11
ATOM     10  C   UNL     1      -1.271  11.091  23.130  0.00  0.00    +0.000 C 
ATOM     11  O   UNL     1      -0.072  10.331  23.138  0.00  0.00    +0.000 OA
ENDBRANCH   4  11
ENDBRANCH   2   7
ENDBRANCH   1   2
BRANCH   1  12
ATOM     12  N   UNL     1       3.527   6.718  18.120  0.00  0.00    +0.000 NA
ATOM     13  C   UNL     1       3.764   5.430  18.169  0.00  0.00    +0.000 C 
BRANCH  13  14
ATOM     14  C   UNL     1       5.063   5.076  17.549  0.00  0.00    +0.000 A 
ATOM     15  C   UNL     1       5.273   4.775  16.206  0.00  0.00    +0.000 A 
ATOM     16  C   UNL     1       6.635   4.499  15.888  0.00  0.00    +0.000 A 
ATOM     17  C   UNL     1       7.442   4.603  16.994  0.00  0.00    +0.000 A 
ATOM     18  S   UNL     1       6.555   5.023  18.385  0.00  0.00    +0.000 S 
ENDBRANCH  13  14
BRANCH  13  19
ATOM     19  C   UNL     1       2.777   4.309  18.720  0.00  0.00    +0.000 C 
ATOM     20  C   UNL     1       1.467   4.105  17.923  0.00  0.00    +0.000 C 
ATOM     21  C   UNL     1       3.497   2.945  18.695  0.00  0.00    +0.000 C 
ATOM     22  C   UNL     1       2.294   4.633  20.151  0.00  0.00    +0.000 C 
ENDBRANCH  13  19
ENDBRANCH   1  12
TORSDOF 6
ENDMDL
MODEL 4
REMARK VINA RESULT:      -7.0      3.162      4.778
REMARK  Name = 
REMARK  10 active torsions:
REMARK  status: ('A' for Active; 'I' for Inactive)
REMARK    1  A    between atoms: C_1  and  O_2
REMARK    2  A    between atoms: O_2  and  C_3
REMARK    3  A    between atoms: C_6  and  C_7
REMARK    4  A    between atoms: C_7  and  O_9
REMARK    5  A    between atoms: O_9  and  N_10
REMARK    6  A    between atoms: C_11  and  C_12
REMARK    7  A    between atoms: C_11  and  C_17
REMARK    8  A    between atoms: C_17  and  C_18
REMARK    9  A    between atoms: C_17  and  C_19
REMARK   10  A    between atoms: C_17  and  C_20
REMARK                            x       y       z     vdW  Elec       q    Type
REMARK                         _______ _______ _______ _____ _____    ______ ____
ROOT
ATOM      1  O   UNL     1       2.294   7.043  18.826  0.00  0.00    +0.000 OA
ENDROOT
BRANCH   1   2
ATOM      2  C   UNL     1       1.987   8.320  18.466  0.00  0.00    +0.000 C 
ATOM      3  O   UNL     1       2.165   8.862  17.388  0.00  0.00    +0.000 OA
BRANCH   2   7
ATOM      4  C   UNL     1       0.309  10.196  21.942  0.00  0.00    +0.000 A 
ATOM      5  C   UNL     1       0.846   8.911  22.020  0.00  0.00    +0.000 A 
ATOM      6  C   UNL     1       1.410   8.309  20.897  0.00  0.00    +0.000 A 
ATOM      7  C   UNL     1       1.436   8.990  19.673  0.00  0.00    +0.000 A 
ATOM      8  C   UNL     1       0.879  10.273  19.581  0.00  0.00    +0.000 A 
ATOM      9  C   UNL     1       0.325  10.877  20.724  0.00  0.00    +0.000 A 
BRANCH   4  11
ATOM     10  C   UNL     1      -1.440  11.392  22.998  0.00  0.00    +0.000 C 
ATOM     11  O   UNL     1      -0.237  10.646  23.110  0.00  0.00    +0.000 OA
ENDBRANCH   4  11
ENDBRANCH   2   7
ENDBRANCH   1   2
BRANCH   1  12
ATOM     12  N   UNL     1       3.585   6.697  18.442  0.00  0.00    +0.000 NA
ATOM     13  C   UNL     1       3.787   5.410  18.300  0.00  0.00    +0.000 C 
BRANCH  13  14
ATOM     14  C   UNL     1       5.084   5.116  17.645  0.00  0.00    +0.000 A 
ATOM     15  C   UNL     1       6.321   5.041  18.279  0.00  0.00    +0.000 A 
ATOM     16  C   UNL     1       7.395   4.713  17.399  0.00  0.00    +0.000 A 
ATOM     17  C   UNL     1       6.956   4.537  16.111  0.00  0.00    +0.000 A 
ATOM     18  S   UNL     1       5.274   4.769  15.980  0.00  0.00    +0.000 S 
ENDBRANCH  13  14
BRANCH  13  19
ATOM     19  C   UNL     1       2.764   4.248  18.670  0.00  0.00    +0.000 C 
ATOM     20  C   UNL     1       3.321   2.806  18.600  0.00  0.00    +0.000 C 
ATOM     21  C   UNL     1       2.284   4.439  20.123  0.00  0.00    +0.000 C 
ATOM     22  C   UNL     1       1.558   4.226  17.706  0.00  0.00    +0.000 C 
ENDBRANCH  13  19
ENDBRANCH   1  12
TORSDOF 6
ENDMDL
MODEL 5
REMARK VINA RESULT:      -7.0      0.338      1.066
REMARK  Name = 
REMARK  10 active torsions:
REMARK  status: ('A' for Active; 'I' for Inactive)
REMARK    1  A    between atoms: C_1  and  O_2
REMARK    2  A    between atoms: O_2  and  C_3
REMARK    3  A    between atoms: C_6  and  C_7
REMARK    4  A    between atoms: C_7  and  O_9
REMARK    5  A    between atoms: O_9  and  N_10
REMARK    6  A    between atoms: C_11  and  C_12
REMARK    7  A    between atoms: C_11  and  C_17
REMARK    8  A    between atoms: C_17  and  C_18
REMARK    9  A    between atoms: C_17  and  C_19
REMARK   10  A    between atoms: C_17  and  C_20
REMARK                            x       y       z     vdW  Elec       q    Type
REMARK                         _______ _______ _______ _____ _____    ______ ____
ROOT
ATOM      1  O   UNL     1       4.414   7.151  17.769  0.00  0.00    +0.000 OA
ENDROOT
BRANCH   1   2
ATOM      2  C   UNL     1       3.064   7.302  17.869  0.00  0.00    +0.000 C 
ATOM      3  O   UNL     1       2.391   8.272  17.565  0.00  0.00    +0.000 OA
BRANCH   2   7
ATOM      4  C   UNL     1       1.631   3.687  19.685  0.00  0.00    +0.000 A 
ATOM      5  C   UNL     1       2.216   4.687  20.462  0.00  0.00    +0.000 A 
ATOM      6  C   UNL     1       2.663   5.870  19.877  0.00  0.00    +0.000 A 
ATOM      7  C   UNL     1       2.535   6.062  18.495  0.00  0.00    +0.000 A 
ATOM      8  C   UNL     1       1.968   5.054  17.704  0.00  0.00    +0.000 A 
ATOM      9  C   UNL     1       1.508   3.869  18.307  0.00  0.00    +0.000 A 
BRANCH   4  11
ATOM     10  C   UNL     1       1.412   2.641  21.798  0.00  0.00    +0.000 C 
ATOM     11  O   UNL     1       1.270   2.572  20.386  0.00  0.00    +0.000 OA
ENDBRANCH   4  11
ENDBRANCH   2   7
ENDBRANCH   1   2
BRANCH   1  12
ATOM     12  N   UNL     1       4.783   6.619  16.538  0.00  0.00    +0.000 NA
ATOM     13  C   UNL     1       5.861   5.875  16.564  0.00  0.00    +0.000 C 
BRANCH  13  14
ATOM     14  C   UNL     1       6.057   5.130  15.297  0.00  0.00    +0.000 A 
ATOM     15  C   UNL     1       5.188   4.182  14.764  0.00  0.00    +0.000 A 
ATOM     16  C   UNL     1       5.622   3.648  13.514  0.00  0.00    +0.000 A 
ATOM     17  C   UNL     1       6.811   4.205  13.115  0.00  0.00    +0.000 A 
ATOM     18  S   UNL     1       7.384   5.348  14.239  0.00  0.00    +0.000 S 
ENDBRANCH  13  14
BRANCH  13  19
ATOM     19  C   UNL     1       6.835   5.667  17.806  0.00  0.00    +0.000 C 
ATOM     20  C   UNL     1       6.152   5.377  19.164  0.00  0.00    +0.000 C 
ATOM     21  C   UNL     1       7.750   4.456  17.534  0.00  0.00    +0.000 C 
ATOM     22  C   UNL     1       7.682   6.928  18.080  0.00  0.00    +0.000 C 
ENDBRANCH  13  19
ENDBRANCH   1  12
TORSDOF 6
ENDMDL
MODEL 6
REMARK VINA RESULT:      -6.8      0.680      1.259
REMARK  Name = 
REMARK  10 active torsions:
REMARK  status: ('A' for Active; 'I' for Inactive)
REMARK    1  A    between atoms: C_1  and  O_2
REMARK    2  A    between atoms: O_2  and  C_3
REMARK    3  A    between atoms: C_6  and  C_7
REMARK    4  A    between atoms: C_7  and  O_9
REMARK    5  A    between atoms: O_9  and  N_10
REMARK    6  A    between atoms: C_11  and  C_12
REMARK    7  A    between atoms: C_11  and  C_17
REMARK    8  A    between atoms: C_17  and  C_18
REMARK    9  A    between atoms: C_17  and  C_19
REMARK   10  A    between atoms: C_17  and  C_20
REMARK                            x       y       z     vdW  Elec       q    Type
REMARK                         _______ _______ _______ _____ _____    ______ ____
ROOT
ATOM      1  O   UNL     1       4.528   7.311  17.683  0.00  0.00    +0.000 OA
ENDROOT
BRANCH   1   2
ATOM      2  C   UNL     1       3.179   7.492  17.729  0.00  0.00    +0.000 C 
ATOM      3  O   UNL     1       2.529   8.422  17.282  0.00  0.00    +0.000 OA
BRANCH   2   7
ATOM      4  C   UNL     1       1.455   4.231  19.921  0.00  0.00    +0.000 A 
ATOM      5  C   UNL     1       1.647   4.135  18.542  0.00  0.00    +0.000 A 
ATOM      6  C   UNL     1       2.225   5.185  17.833  0.00  0.00    +0.000 A 
ATOM      7  C   UNL     1       2.615   6.355  18.500  0.00  0.00    +0.000 A 
ATOM      8  C   UNL     1       2.405   6.467  19.881  0.00  0.00    +0.000 A 
ATOM      9  C   UNL     1       1.832   5.396  20.590  0.00  0.00    +0.000 A 
BRANCH   4  11
ATOM     10  C   UNL     1       1.463   2.603  21.640  0.00  0.00    +0.000 C 
ATOM     11  O   UNL     1       0.848   3.142  20.479  0.00  0.00    +0.000 OA
ENDBRANCH   4  11
ENDBRANCH   2   7
ENDBRANCH   1   2
BRANCH   1  12
ATOM     12  N   UNL     1       4.934   6.769  16.468  0.00  0.00    +0.000 NA
ATOM     13  C   UNL     1       5.950   5.946  16.549  0.00  0.00    +0.000 C 
BRANCH  13  14
ATOM     14  C   UNL     1       6.171   5.205  15.284  0.00  0.00    +0.000 A 
ATOM     15  C   UNL     1       7.184   5.449  14.361  0.00  0.00    +0.000 A 
ATOM     16  C   UNL     1       7.169   4.558  13.247  0.00  0.00    +0.000 A 
ATOM     17  C   UNL     1       6.148   3.646  13.345  0.00  0.00    +0.000 A 
ATOM     18  S   UNL     1       5.231   3.875  14.761  0.00  0.00    +0.000 S 
ENDBRANCH  13  14
BRANCH  13  19
ATOM     19  C   UNL     1       6.825   5.650  17.845  0.00  0.00    +0.000 C 
ATOM     20  C   UNL     1       7.732   6.806  18.331  0.00  0.00    +0.000 C 
ATOM     21  C   UNL     1       5.887   5.332  19.027  0.00  0.00    +0.000 C 
ATOM     22  C   UNL     1       7.807   4.482  17.611  0.00  0.00    +0.000 C 
ENDBRANCH  13  19
ENDBRANCH   1  12
TORSDOF 6
ENDMDL
MODEL 7
REMARK VINA RESULT:      -6.8      0.687      1.624
REMARK  Name = 
REMARK  10 active torsions:
REMARK  status: ('A' for Active; 'I' for Inactive)
REMARK    1  A    between atoms: C_1  and  O_2
REMARK    2  A    between atoms: O_2  and  C_3
REMARK    3  A    between atoms: C_6  and  C_7
REMARK    4  A    between atoms: C_7  and  O_9
REMARK    5  A    between atoms: O_9  and  N_10
REMARK    6  A    between atoms: C_11  and  C_12
REMARK    7  A    between atoms: C_11  and  C_17
REMARK    8  A    between atoms: C_17  and  C_18
REMARK    9  A    between atoms: C_17  and  C_19
REMARK   10  A    between atoms: C_17  and  C_20
REMARK                            x       y       z     vdW  Elec       q    Type
REMARK                         _______ _______ _______ _____ _____    ______ ____
ROOT
ATOM      1  O   UNL     1       4.544   7.239  17.698  0.00  0.00    +0.000 OA
ENDROOT
BRANCH   1   2
ATOM      2  C   UNL     1       3.207   7.500  17.727  0.00  0.00    +0.000 C 
ATOM      3  O   UNL     1       2.625   8.487  17.311  0.00  0.00    +0.000 OA
BRANCH   2   7
ATOM      4  C   UNL     1       1.427   4.196  19.807  0.00  0.00    +0.000 A 
ATOM      5  C   UNL     1       1.844   5.331  20.504  0.00  0.00    +0.000 A 
ATOM      6  C   UNL     1       2.404   6.412  19.827  0.00  0.00    +0.000 A 
ATOM      7  C   UNL     1       2.559   6.367  18.435  0.00  0.00    +0.000 A 
ATOM      8  C   UNL     1       2.162   5.222  17.730  0.00  0.00    +0.000 A 
ATOM      9  C   UNL     1       1.586   4.141  18.421  0.00  0.00    +0.000 A 
BRANCH   4  11
ATOM     10  C   UNL     1       1.725   2.826  21.714  0.00  0.00    +0.000 C 
ATOM     11  O   UNL     1       0.929   3.203  20.601  0.00  0.00    +0.000 OA
ENDBRANCH   4  11
ENDBRANCH   2   7
ENDBRANCH   1   2
BRANCH   1  12
ATOM     12  N   UNL     1       4.936   6.700  16.477  0.00  0.00    +0.000 NA
ATOM     13  C   UNL     1       5.965   5.891  16.542  0.00  0.00    +0.000 C 
BRANCH  13  14
ATOM     14  C   UNL     1       6.174   5.151  15.274  0.00  0.00    +0.000 A 
ATOM     15  C   UNL     1       7.135   5.439  14.309  0.00  0.00    +0.000 A 
ATOM     16  C   UNL     1       7.124   4.538  13.204  0.00  0.00    +0.000 A 
ATOM     17  C   UNL     1       6.158   3.574  13.350  0.00  0.00    +0.000 A 
ATOM     18  S   UNL     1       5.286   3.767  14.800  0.00  0.00    +0.000 S 
ENDBRANCH  13  14
BRANCH  13  19
ATOM     19  C   UNL     1       6.865   5.609  17.824  0.00  0.00    +0.000 C 
ATOM     20  C   UNL     1       7.740   6.788  18.313  0.00  0.00    +0.000 C 
ATOM     21  C   UNL     1       5.953   5.247  19.013  0.00  0.00    +0.000 C 
ATOM     22  C   UNL     1       7.882   4.476  17.564  0.00  0.00    +0.000 C 
ENDBRANCH  13  19
ENDBRANCH   1  12
TORSDOF 6
ENDMDL
MODEL 8
REMARK VINA RESULT:      -6.7      3.095      4.723
REMARK  Name = 
REMARK  10 active torsions:
REMARK  status: ('A' for Active; 'I' for Inactive)
REMARK    1  A    between atoms: C_1  and  O_2
REMARK    2  A    between atoms: O_2  and  C_3
REMARK    3  A    between atoms: C_6  and  C_7
REMARK    4  A    between atoms: C_7  and  O_9
REMARK    5  A    between atoms: O_9  and  N_10
REMARK    6  A    between atoms: C_11  and  C_12
REMARK    7  A    between atoms: C_11  and  C_17
REMARK    8  A    between atoms: C_17  and  C_18
REMARK    9  A    between atoms: C_17  and  C_19
REMARK   10  A    between atoms: C_17  and  C_20
REMARK                            x       y       z     vdW  Elec       q    Type
REMARK                         _______ _______ _______ _____ _____    ______ ____
ROOT
ATOM      1  O   UNL     1       2.218   7.142  18.566  0.00  0.00    +0.000 OA
ENDROOT
BRANCH   1   2
ATOM      2  C   UNL     1       1.949   8.425  18.197  0.00  0.00    +0.000 C 
ATOM      3  O   UNL     1       2.101   8.941  17.103  0.00  0.00    +0.000 OA
BRANCH   2   7
ATOM      4  C   UNL     1       0.500  10.435  21.701  0.00  0.00    +0.000 A 
ATOM      5  C   UNL     1       0.863   9.089  21.755  0.00  0.00    +0.000 A 
ATOM      6  C   UNL     1       1.353   8.441  20.623  0.00  0.00    +0.000 A 
ATOM      7  C   UNL     1       1.479   9.136  19.413  0.00  0.00    +0.000 A 
ATOM      8  C   UNL     1       1.096  10.483  19.345  0.00  0.00    +0.000 A 
ATOM      9  C   UNL     1       0.615  11.131  20.496  0.00  0.00    +0.000 A 
BRANCH   4  11
ATOM     10  C   UNL     1      -1.336  10.590  23.187  0.00  0.00    +0.000 C 
ATOM     11  O   UNL     1       0.007  10.929  22.874  0.00  0.00    +0.000 OA
ENDBRANCH   4  11
ENDBRANCH   2   7
ENDBRANCH   1   2
BRANCH   1  12
ATOM     12  N   UNL     1       3.519   6.774  18.237  0.00  0.00    +0.000 NA
ATOM     13  C   UNL     1       3.756   5.488  18.301  0.00  0.00    +0.000 C 
BRANCH  13  14
ATOM     14  C   UNL     1       5.061   5.129  17.695  0.00  0.00    +0.000 A 
ATOM     15  C   UNL     1       6.281   5.066  18.363  0.00  0.00    +0.000 A 
ATOM     16  C   UNL     1       7.368   4.665  17.531  0.00  0.00    +0.000 A 
ATOM     17  C   UNL     1       6.954   4.420  16.245  0.00  0.00    +0.000 A 
ATOM     18  S   UNL     1       5.282   4.679  16.059  0.00  0.00    +0.000 S 
ENDBRANCH  13  14
BRANCH  13  19
ATOM     19  C   UNL     1       2.765   4.371  18.854  0.00  0.00    +0.000 C 
ATOM     20  C   UNL     1       2.127   4.653  20.235  0.00  0.00    +0.000 C 
ATOM     21  C   UNL     1       1.585   4.211  17.875  0.00  0.00    +0.000 C 
ATOM     22  C   UNL     1       3.487   3.019  19.049  0.00  0.00    +0.000 C 
ENDBRANCH  13  19
ENDBRANCH   1  12
TORSDOF 6
ENDMDL
MODEL 9
REMARK VINA RESULT:      -6.7      3.176      4.493
REMARK  Name = 
REMARK  10 active torsions:
REMARK  status: ('A' for Active; 'I' for Inactive)
REMARK    1  A    between atoms: C_1  and  O_2
REMARK    2  A    between atoms: O_2  and  C_3
REMARK    3  A    between atoms: C_6  and  C_7
REMARK    4  A    between atoms: C_7  and  O_9
REMARK    5  A    between atoms: O_9  and  N_10
REMARK    6  A    between atoms: C_11  and  C_12
REMARK    7  A    between atoms: C_11  and  C_17
REMARK    8  A    between atoms: C_17  and  C_18
REMARK    9  A    between atoms: C_17  and  C_19
REMARK   10  A    between atoms: C_17  and  C_20
REMARK                            x       y       z     vdW  Elec       q    Type
REMARK                         _______ _______ _______ _____ _____    ______ ____
ROOT
ATOM      1  O   UNL     1       2.203   7.302  18.419  0.00  0.00    +0.000 OA
ENDROOT
BRANCH   1   2
ATOM      2  C   UNL     1       1.915   8.629  18.305  0.00  0.00    +0.000 C 
ATOM      3  O   UNL     1       2.217   9.389  17.402  0.00  0.00    +0.000 OA
BRANCH   2   7
ATOM      4  C   UNL     1      -0.091   9.854  21.896  0.00  0.00    +0.000 A 
ATOM      5  C   UNL     1      -0.329  10.514  20.690  0.00  0.00    +0.000 A 
ATOM      6  C   UNL     1       0.306  10.104  19.520  0.00  0.00    +0.000 A 
ATOM      7  C   UNL     1       1.199   9.025  19.545  0.00  0.00    +0.000 A 
ATOM      8  C   UNL     1       1.460   8.369  20.756  0.00  0.00    +0.000 A 
ATOM      9  C   UNL     1       0.804   8.783  21.929  0.00  0.00    +0.000 A 
BRANCH   4  11
ATOM     10  C   UNL     1      -1.184  11.731  22.837  0.00  0.00    +0.000 C 
ATOM     11  O   UNL     1      -0.755  10.383  22.965  0.00  0.00    +0.000 OA
ENDBRANCH   4  11
ENDBRANCH   2   7
ENDBRANCH   1   2
BRANCH   1  12
ATOM     12  N   UNL     1       3.428   6.990  17.839  0.00  0.00    +0.000 NA
ATOM     13  C   UNL     1       3.712   5.711  17.816  0.00  0.00    +0.000 C 
BRANCH  13  14
ATOM     14  C   UNL     1       4.889   5.415  16.965  0.00  0.00    +0.000 A 
ATOM     15  C   UNL     1       4.862   4.779  15.726  0.00  0.00    +0.000 A 
ATOM     16  C   UNL     1       6.147   4.653  15.120  0.00  0.00    +0.000 A 
ATOM     17  C   UNL     1       7.129   5.203  15.904  0.00  0.00    +0.000 A 
ATOM     18  S   UNL     1       6.499   5.853  17.346  0.00  0.00    +0.000 S 
ENDBRANCH  13  14
BRANCH  13  19
ATOM     19  C   UNL     1       2.880   4.546  18.512  0.00  0.00    +0.000 C 
ATOM     20  C   UNL     1       1.524   4.194  17.855  0.00  0.00    +0.000 C 
ATOM     21  C   UNL     1       3.707   3.246  18.483  0.00  0.00    +0.000 C 
ATOM     22  C   UNL     1       2.504   4.909  19.966  0.00  0.00    +0.000 C 
ENDBRANCH  13  19
ENDBRANCH   1  12
TORSDOF 6
ENDMDL
