MODEL 1
REMARK VINA RESULT:      -4.4      0.000      0.000
REMARK  Name = 
REMARK  5 active torsions:
REMARK  status: ('A' for Active; 'I' for Inactive)
REMARK    1  A    between atoms: C_1  and  C_2
REMARK    2  A    between atoms: C_2  and  N_3
REMARK    3  A    between atoms: C_2  and  C_4
REMARK    4  A    between atoms: C_2  and  C_6
REMARK    5  A    between atoms: C_6  and  O_8
REMARK                            x       y       z     vdW  Elec       q    Type
REMARK                         _______ _______ _______ _____ _____    ______ ____
ROOT
ATOM      1  C   UNL     1       7.582   7.227  17.666  0.00  0.00    +0.000 C 
ATOM      2  C   UNL     1       6.900   6.014  17.005  0.00  0.00    +0.000 C 
ENDROOT
BRANCH   2   3
ATOM      3  N   UNL     1       7.469   5.830  15.661  0.00  0.00    +0.000 NA
ATOM      4  H   UNL     1       7.017   5.014  15.185  0.00  0.00    +0.000 HD
ATOM      5  H   UNL     1       7.309   6.678  15.070  0.00  0.00    +0.000 HD
ENDBRANCH   2   3
BRANCH   2   6
ATOM      6  C   UNL     1       5.378   6.245  16.897  0.00  0.00    +0.000 C 
ATOM      7  F   UNL     1       4.991   6.370  15.574  0.00  0.00    +0.000 F 
ENDBRANCH   2   6
BRANCH   2   8
ATOM      8  C   UNL     1       7.165   4.772  17.852  0.00  0.00    +0.000 C 
ATOM      9  O   UNL     1       6.363   4.426  18.706  0.00  0.00    +0.000 OA
BRANCH   8  10
ATOM     10  O   UNL     1       8.281   4.030  17.675  0.00  0.00    +0.000 OA
ATOM     11  H   UNL     1       8.561   3.354  18.306  0.00  0.00    +0.000 HD
ENDBRANCH   8  10
ENDBRANCH   2   8
TORSDOF 4
ENDMDL
MODEL 2
REMARK VINA RESULT:      -4.3      2.630      3.089
REMARK  Name = 
REMARK  5 active torsions:
REMARK  status: ('A' for Active; 'I' for Inactive)
REMARK    1  A    between atoms: C_1  and  C_2
REMARK    2  A    between atoms: C_2  and  N_3
REMARK    3  A    between atoms: C_2  and  C_4
REMARK    4  A    between atoms: C_2  and  C_6
REMARK    5  A    between atoms: C_6  and  O_8
REMARK                            x       y       z     vdW  Elec       q    Type
REMARK                         _______ _______ _______ _____ _____    ______ ____
ROOT
ATOM      1  C   UNL     1       5.608   4.383  17.438  0.00  0.00    +0.000 C 
ATOM      2  C   UNL     1       6.963   4.881  16.902  0.00  0.00    +0.000 C 
ENDROOT
BRANCH   2   3
ATOM      3  N   UNL     1       8.038   4.138  17.578  0.00  0.00    +0.000 NA
ATOM      4  H   UNL     1       8.571   3.561  16.885  0.00  0.00    +0.000 HD
ATOM      5  H   UNL     1       8.711   4.793  18.038  0.00  0.00    +0.000 HD
ENDBRANCH   2   3
BRANCH   2   6
ATOM      6  C   UNL     1       7.127   6.392  17.175  0.00  0.00    +0.000 C 
ATOM      7  F   UNL     1       8.014   6.611  18.214  0.00  0.00    +0.000 F 
ENDBRANCH   2   6
BRANCH   2   8
ATOM      8  C   UNL     1       7.027   4.628  15.398  0.00  0.00    +0.000 C 
ATOM      9  O   UNL     1       7.681   5.366  14.676  0.00  0.00    +0.000 OA
BRANCH   8  10
ATOM     10  O   UNL     1       6.372   3.588  14.835  0.00  0.00    +0.000 OA
ATOM     11  H   UNL     1       6.763   2.708  14.760  0.00  0.00    +0.000 HD
ENDBRANCH   8  10
ENDBRANCH   2   8
TORSDOF 4
ENDMDL
MODEL 3
REMARK VINA RESULT:      -4.2      2.214      2.717
REMARK  Name = 
REMARK  5 active torsions:
REMARK  status: ('A' for Active; 'I' for Inactive)
REMARK    1  A    between atoms: C_1  and  C_2
REMARK    2  A    between atoms: C_2  and  N_3
REMARK    3  A    between atoms: C_2  and  C_4
REMARK    4  A    between atoms: C_2  and  C_6
REMARK    5  A    between atoms: C_6  and  O_8
REMARK                            x       y       z     vdW  Elec       q    Type
REMARK                         _______ _______ _______ _____ _____    ______ ____
ROOT
ATOM      1  C   UNL     1       4.916   3.937  16.541  0.00  0.00    +0.000 C 
ATOM      2  C   UNL     1       5.907   4.609  17.511  0.00  0.00    +0.000 C 
ENDROOT
BRANCH   2   3
ATOM      3  N   UNL     1       5.825   3.929  18.813  0.00  0.00    +0.000 NA
ATOM      4  H   UNL     1       6.480   3.112  18.838  0.00  0.00    +0.000 HD
ATOM      5  H   UNL     1       6.089   4.579  19.589  0.00  0.00    +0.000 HD
ENDBRANCH   2   3
BRANCH   2   6
ATOM      6  C   UNL     1       5.562   6.103  17.682  0.00  0.00    +0.000 C 
ATOM      7  F   UNL     1       6.703   6.846  17.933  0.00  0.00    +0.000 F 
ENDBRANCH   2   6
BRANCH   2   8
ATOM      8  C   UNL     1       7.320   4.477  16.948  0.00  0.00    +0.000 C 
ATOM      9  O   UNL     1       7.547   4.753  15.781  0.00  0.00    +0.000 OA
BRANCH   8  10
ATOM     10  O   UNL     1       8.346   4.060  17.725  0.00  0.00    +0.000 OA
ATOM     11  H   UNL     1       9.000   4.668  18.091  0.00  0.00    +0.000 HD
ENDBRANCH   8  10
ENDBRANCH   2   8
TORSDOF 4
ENDMDL
MODEL 4
REMARK VINA RESULT:      -4.2      2.440      2.881
REMARK  Name = 
REMARK  5 active torsions:
REMARK  status: ('A' for Active; 'I' for Inactive)
REMARK    1  A    between atoms: C_1  and  C_2
REMARK    2  A    between atoms: C_2  and  N_3
REMARK    3  A    between atoms: C_2  and  C_4
REMARK    4  A    between atoms: C_2  and  C_6
REMARK    5  A    between atoms: C_6  and  O_8
REMARK                            x       y       z     vdW  Elec       q    Type
REMARK                         _______ _______ _______ _____ _____    ______ ____
ROOT
ATOM      1  C   UNL     1       5.118   6.064  17.869  0.00  0.00    +0.000 C 
ATOM      2  C   UNL     1       6.587   5.716  18.177  0.00  0.00    +0.000 C 
ENDROOT
BRANCH   2   3
ATOM      3  N   UNL     1       6.699   5.368  19.602  0.00  0.00    +0.000 NA
ATOM      4  H   UNL     1       6.826   4.334  19.714  0.00  0.00    +0.000 HD
ATOM      5  H   UNL     1       7.522   5.844  20.037  0.00  0.00    +0.000 HD
ENDBRANCH   2   3
BRANCH   2   6
ATOM      6  C   UNL     1       7.502   6.919  17.863  0.00  0.00    +0.000 C 
ATOM      7  F   UNL     1       8.485   7.055  18.829  0.00  0.00    +0.000 F 
ENDBRANCH   2   6
BRANCH   2   8
ATOM      8  C   UNL     1       7.005   4.524  17.321  0.00  0.00    +0.000 C 
ATOM      9  O   UNL     1       8.185   4.230  17.208  0.00  0.00    +0.000 OA
BRANCH   8  10
ATOM     10  O   UNL     1       6.087   3.769  16.676  0.00  0.00    +0.000 OA
ATOM     11  H   UNL     1       5.434   4.147  16.073  0.00  0.00    +0.000 HD
ENDBRANCH   8  10
ENDBRANCH   2   8
TORSDOF 4
ENDMDL
MODEL 5
REMARK VINA RESULT:      -4.1      2.009      2.206
REMARK  Name = 
REMARK  5 active torsions:
REMARK  status: ('A' for Active; 'I' for Inactive)
REMARK    1  A    between atoms: C_1  and  C_2
REMARK    2  A    between atoms: C_2  and  N_3
REMARK    3  A    between atoms: C_2  and  C_4
REMARK    4  A    between atoms: C_2  and  C_6
REMARK    5  A    between atoms: C_6  and  O_8
REMARK                            x       y       z     vdW  Elec       q    Type
REMARK                         _______ _______ _______ _____ _____    ______ ____
ROOT
ATOM      1  C   UNL     1       7.384   6.448  17.623  0.00  0.00    +0.000 C 
ATOM      2  C   UNL     1       7.063   4.984  17.266  0.00  0.00    +0.000 C 
ENDROOT
BRANCH   2   3
ATOM      3  N   UNL     1       8.173   4.134  17.724  0.00  0.00    +0.000 NA
ATOM      4  H   UNL     1       8.277   3.304  17.093  0.00  0.00    +0.000 HD
ATOM      5  H   UNL     1       9.075   4.663  17.713  0.00  0.00    +0.000 HD
ENDBRANCH   2   3
BRANCH   2   6
ATOM      6  C   UNL     1       6.886   4.829  15.740  0.00  0.00    +0.000 C 
ATOM      7  F   UNL     1       6.356   3.589  15.429  0.00  0.00    +0.000 F 
ENDBRANCH   2   6
BRANCH   2   8
ATOM      8  C   UNL     1       5.773   4.572  17.969  0.00  0.00    +0.000 C 
ATOM      9  O   UNL     1       4.713   5.102  17.674  0.00  0.00    +0.000 OA
BRANCH   8  10
ATOM     10  O   UNL     1       5.772   3.614  18.924  0.00  0.00    +0.000 OA
ATOM     11  H   UNL     1       5.009   3.045  19.087  0.00  0.00    +0.000 HD
ENDBRANCH   8  10
ENDBRANCH   2   8
TORSDOF 4
ENDMDL
MODEL 6
REMARK VINA RESULT:      -4.1      1.132      1.259
REMARK  Name = 
REMARK  5 active torsions:
REMARK  status: ('A' for Active; 'I' for Inactive)
REMARK    1  A    between atoms: C_1  and  C_2
REMARK    2  A    between atoms: C_2  and  N_3
REMARK    3  A    between atoms: C_2  and  C_4
REMARK    4  A    between atoms: C_2  and  C_6
REMARK    5  A    between atoms: C_6  and  O_8
REMARK                            x       y       z     vdW  Elec       q    Type
REMARK                         _______ _______ _______ _____ _____    ______ ____
ROOT
ATOM      1  C   UNL     1       7.728   7.947  17.559  0.00  0.00    +0.000 C 
ATOM      2  C   UNL     1       7.113   6.555  17.315  0.00  0.00    +0.000 C 
ENDROOT
BRANCH   2   3
ATOM      3  N   UNL     1       7.496   6.100  15.970  0.00  0.00    +0.000 NA
ATOM      4  H   UNL     1       8.244   6.720  15.577  0.00  0.00    +0.000 HD
ATOM      5  H   UNL     1       7.869   5.124  16.000  0.00  0.00    +0.000 HD
ENDBRANCH   2   3
BRANCH   2   6
ATOM      6  C   UNL     1       5.574   6.621  17.422  0.00  0.00    +0.000 C 
ATOM      7  F   UNL     1       4.986   6.431  16.183  0.00  0.00    +0.000 F 
ENDBRANCH   2   6
BRANCH   2   8
ATOM      8  C   UNL     1       7.651   5.584  18.362  0.00  0.00    +0.000 C 
ATOM      9  O   UNL     1       7.665   4.383  18.139  0.00  0.00    +0.000 OA
BRANCH   8  10
ATOM     10  O   UNL     1       8.127   6.026  19.548  0.00  0.00    +0.000 OA
ATOM     11  H   UNL     1       9.070   6.032  19.760  0.00  0.00    +0.000 HD
ENDBRANCH   8  10
ENDBRANCH   2   8
TORSDOF 4
ENDMDL
MODEL 7
REMARK VINA RESULT:      -4.1      1.037      1.446
REMARK  Name = 
REMARK  5 active torsions:
REMARK  status: ('A' for Active; 'I' for Inactive)
REMARK    1  A    between atoms: C_1  and  C_2
REMARK    2  A    between atoms: C_2  and  N_3
REMARK    3  A    between atoms: C_2  and  C_4
REMARK    4  A    between atoms: C_2  and  C_6
REMARK    5  A    between atoms: C_6  and  O_8
REMARK                            x       y       z     vdW  Elec       q    Type
REMARK                         _______ _______ _______ _____ _____    ______ ____
ROOT
ATOM      1  C   UNL     1       5.278   6.205  17.137  0.00  0.00    +0.000 C 
ATOM      2  C   UNL     1       6.686   5.707  16.761  0.00  0.00    +0.000 C 
ENDROOT
BRANCH   2   3
ATOM      3  N   UNL     1       7.587   6.868  16.675  0.00  0.00    +0.000 NA
ATOM      4  H   UNL     1       7.034   7.747  16.540  0.00  0.00    +0.000 HD
ATOM      5  H   UNL     1       8.147   6.969  17.553  0.00  0.00    +0.000 HD
ENDBRANCH   2   3
BRANCH   2   6
ATOM      6  C   UNL     1       6.654   4.974  15.403  0.00  0.00    +0.000 C 
ATOM      7  F   UNL     1       5.505   5.293  14.699  0.00  0.00    +0.000 F 
ENDBRANCH   2   6
BRANCH   2   8
ATOM      8  C   UNL     1       7.180   4.750  17.842  0.00  0.00    +0.000 C 
ATOM      9  O   UNL     1       6.545   4.607  18.876  0.00  0.00    +0.000 OA
BRANCH   8  10
ATOM     10  O   UNL     1       8.319   4.039  17.680  0.00  0.00    +0.000 OA
ATOM     11  H   UNL     1       8.694   3.492  18.382  0.00  0.00    +0.000 HD
ENDBRANCH   8  10
ENDBRANCH   2   8
TORSDOF 4
ENDMDL
MODEL 8
REMARK VINA RESULT:      -4.1      2.780      3.330
REMARK  Name = 
REMARK  5 active torsions:
REMARK  status: ('A' for Active; 'I' for Inactive)
REMARK    1  A    between atoms: C_1  and  C_2
REMARK    2  A    between atoms: C_2  and  N_3
REMARK    3  A    between atoms: C_2  and  C_4
REMARK    4  A    between atoms: C_2  and  C_6
REMARK    5  A    between atoms: C_6  and  O_8
REMARK                            x       y       z     vdW  Elec       q    Type
REMARK                         _______ _______ _______ _____ _____    ______ ____
ROOT
ATOM      1  C   UNL     1       5.882   4.620  18.355  0.00  0.00    +0.000 C 
ATOM      2  C   UNL     1       7.221   5.197  17.856  0.00  0.00    +0.000 C 
ENDROOT
BRANCH   2   3
ATOM      3  N   UNL     1       8.155   4.084  17.626  0.00  0.00    +0.000 NA
ATOM      4  H   UNL     1       8.060   3.368  18.384  0.00  0.00    +0.000 HD
ATOM      5  H   UNL     1       7.958   3.617  16.712  0.00  0.00    +0.000 HD
ENDBRANCH   2   3
BRANCH   2   6
ATOM      6  C   UNL     1       7.813   6.164  18.904  0.00  0.00    +0.000 C 
ATOM      7  F   UNL     1       7.699   5.637  20.179  0.00  0.00    +0.000 F 
ENDBRANCH   2   6
BRANCH   2   8
ATOM      8  C   UNL     1       6.982   5.950  16.550  0.00  0.00    +0.000 C 
ATOM      9  O   UNL     1       7.472   5.545  15.507  0.00  0.00    +0.000 OA
BRANCH   8  10
ATOM     10  O   UNL     1       6.225   7.070  16.516  0.00  0.00    +0.000 OA
ATOM     11  H   UNL     1       5.943   7.530  17.317  0.00  0.00    +0.000 HD
ENDBRANCH   8  10
ENDBRANCH   2   8
TORSDOF 4
ENDMDL
MODEL 9
REMARK VINA RESULT:      -4.0      4.801      5.309
REMARK  Name = 
REMARK  5 active torsions:
REMARK  status: ('A' for Active; 'I' for Inactive)
REMARK    1  A    between atoms: C_1  and  C_2
REMARK    2  A    between atoms: C_2  and  N_3
REMARK    3  A    between atoms: C_2  and  C_4
REMARK    4  A    between atoms: C_2  and  C_6
REMARK    5  A    between atoms: C_6  and  O_8
REMARK                            x       y       z     vdW  Elec       q    Type
REMARK                         _______ _______ _______ _____ _____    ______ ____
ROOT
ATOM      1  C   UNL     1       3.495   1.662  18.378  0.00  0.00    +0.000 C 
ATOM      2  C   UNL     1       4.068   2.520  19.522  0.00  0.00    +0.000 C 
ENDROOT
BRANCH   2   3
ATOM      3  N   UNL     1       5.082   1.730  20.239  0.00  0.00    +0.000 NA
ATOM      4  H   UNL     1       4.985   1.869  21.273  0.00  0.00    +0.000 HD
ATOM      5  H   UNL     1       4.969   0.710  20.038  0.00  0.00    +0.000 HD
ENDBRANCH   2   3
BRANCH   2   6
ATOM      6  C   UNL     1       2.946   2.934  20.499  0.00  0.00    +0.000 C 
ATOM      7  F   UNL     1       3.131   2.345  21.738  0.00  0.00    +0.000 F 
ENDBRANCH   2   6
BRANCH   2   8
ATOM      8  C   UNL     1       4.712   3.771  18.931  0.00  0.00    +0.000 C 
ATOM      9  O   UNL     1       4.032   4.754  18.681  0.00  0.00    +0.000 OA
BRANCH   8  10
ATOM     10  O   UNL     1       6.040   3.822  18.678  0.00  0.00    +0.000 OA
ATOM     11  H   UNL     1       6.575   3.028  18.550  0.00  0.00    +0.000 HD
ENDBRANCH   8  10
ENDBRANCH   2   8
TORSDOF 4
ENDMDL
