MODEL 1
REMARK VINA RESULT:      -7.0      0.000      0.000
REMARK  Name = 
REMARK  6 active torsions:
REMARK  status: ('A' for Active; 'I' for Inactive)
REMARK    1  A    between atoms: C_1  and  N_2
REMARK    2  A    between atoms: N_2  and  C_3
REMARK    3  A    between atoms: C_4  and  O_6
REMARK    4  A    between atoms: O_6  and  C_7
REMARK    5  A    between atoms: C_9  and  C_10
REMARK    6  A    between atoms: N_23  and  C_24
REMARK                            x       y       z     vdW  Elec       q    Type
REMARK                         _______ _______ _______ _____ _____    ______ ____
ROOT
ATOM      1  C   UNL     1       5.212   5.456  16.290  0.00  0.00    +0.000 C 
ATOM      2  N   UNL     1       4.330   6.484  16.831  0.00  0.00    +0.000 NA
ATOM      3  C   UNL     1       3.662   6.269  17.913  0.00  0.00    +0.000 C 
ATOM      4  C   UNL     1       3.725   4.999  18.703  0.00  0.00    +0.000 A 
ATOM      5  C   UNL     1       2.518   4.493  19.228  0.00  0.00    +0.000 A 
ATOM      6  C   UNL     1       2.525   3.395  20.083  0.00  0.00    +0.000 A 
ATOM      7 CL   UNL     1       1.054   2.839  20.779  0.00  0.00    +0.000 Cl
ATOM      8  C   UNL     1       3.718   2.761  20.396  0.00  0.00    +0.000 A 
ATOM      9  C   UNL     1       4.915   3.238  19.856  0.00  0.00    +0.000 A 
ATOM     10  C   UNL     1       4.947   4.363  19.007  0.00  0.00    +0.000 A 
ATOM     11  N   UNL     1       6.212   4.817  18.522  0.00  0.00    +0.000 N 
ATOM     12  C   UNL     1       7.395   4.655  19.356  0.00  0.00    +0.000 C 
ATOM     13  C   UNL     1       6.432   5.360  17.245  0.00  0.00    +0.000 C 
ATOM     14  O   UNL     1       7.574   5.681  16.889  0.00  0.00    +0.000 OA
ENDROOT
BRANCH   3  15
ATOM     15  C   UNL     1       2.762   7.381  18.362  0.00  0.00    +0.000 A 
ATOM     16  C   UNL     1       2.461   8.399  17.447  0.00  0.00    +0.000 A 
ATOM     17  C   UNL     1       1.641   9.465  17.821  0.00  0.00    +0.000 A 
ATOM     18  C   UNL     1       1.119   9.518  19.112  0.00  0.00    +0.000 A 
ATOM     19  C   UNL     1       1.424   8.514  20.032  0.00  0.00    +0.000 A 
ATOM     20  C   UNL     1       2.251   7.451  19.664  0.00  0.00    +0.000 A 
ENDBRANCH   3  15
BRANCH   1  21
ATOM     21  O   UNL     1       5.748   5.764  14.991  0.00  0.00    +0.000 OA
BRANCH  21  25
ATOM     22  C   UNL     1       6.911   3.705  12.259  0.00  0.00    +0.000 C 
ATOM     23  N   UNL     1       6.866   4.660  13.346  0.00  0.00    +0.000 N 
ATOM     24  C   UNL     1       7.933   5.637  13.475  0.00  0.00    +0.000 C 
ATOM     25  C   UNL     1       5.695   4.760  14.086  0.00  0.00    +0.000 C 
ATOM     26  O   UNL     1       4.738   4.008  13.943  0.00  0.00    +0.000 OA
ENDBRANCH  21  25
ENDBRANCH   1  21
TORSDOF 3
ENDMDL
MODEL 2
REMARK VINA RESULT:      -6.8      7.153      9.644
REMARK  Name = 
REMARK  6 active torsions:
REMARK  status: ('A' for Active; 'I' for Inactive)
REMARK    1  A    between atoms: C_1  and  N_2
REMARK    2  A    between atoms: N_2  and  C_3
REMARK    3  A    between atoms: C_4  and  O_6
REMARK    4  A    between atoms: O_6  and  C_7
REMARK    5  A    between atoms: C_9  and  C_10
REMARK    6  A    between atoms: N_23  and  C_24
REMARK                            x       y       z     vdW  Elec       q    Type
REMARK                         _______ _______ _______ _____ _____    ______ ____
ROOT
ATOM      1  C   UNL     1      -0.255  12.745  21.091  0.00  0.00    +0.000 C 
ATOM      2  N   UNL     1      -1.133  12.381  19.984  0.00  0.00    +0.000 NA
ATOM      3  C   UNL     1      -0.980  11.256  19.371  0.00  0.00    +0.000 C 
ATOM      4  C   UNL     1       0.064  10.242  19.720  0.00  0.00    +0.000 A 
ATOM      5  C   UNL     1       0.727   9.592  18.660  0.00  0.00    +0.000 A 
ATOM      6  C   UNL     1       1.608   8.544  18.913  0.00  0.00    +0.000 A 
ATOM      7 CL   UNL     1       2.348   7.708  17.605  0.00  0.00    +0.000 Cl
ATOM      8  C   UNL     1       1.873   8.155  20.217  0.00  0.00    +0.000 A 
ATOM      9  C   UNL     1       1.243   8.814  21.276  0.00  0.00    +0.000 A 
ATOM     10  C   UNL     1       0.326   9.862  21.054  0.00  0.00    +0.000 A 
ATOM     11  N   UNL     1      -0.308  10.465  22.183  0.00  0.00    +0.000 N 
ATOM     12  C   UNL     1      -0.591   9.654  23.359  0.00  0.00    +0.000 C 
ATOM     13  C   UNL     1      -0.632  11.828  22.286  0.00  0.00    +0.000 C 
ATOM     14  O   UNL     1      -1.136  12.276  23.325  0.00  0.00    +0.000 OA
ENDROOT
BRANCH   3  15
ATOM     15  C   UNL     1      -1.915  10.999  18.228  0.00  0.00    +0.000 A 
ATOM     16  C   UNL     1      -3.128  11.701  18.194  0.00  0.00    +0.000 A 
ATOM     17  C   UNL     1      -4.040  11.484  17.160  0.00  0.00    +0.000 A 
ATOM     18  C   UNL     1      -3.745  10.563  16.156  0.00  0.00    +0.000 A 
ATOM     19  C   UNL     1      -2.545   9.852  16.191  0.00  0.00    +0.000 A 
ATOM     20  C   UNL     1      -1.634  10.060  17.229  0.00  0.00    +0.000 A 
ENDBRANCH   3  15
BRANCH   1  21
ATOM     21  O   UNL     1      -0.423  14.094  21.557  0.00  0.00    +0.000 OA
BRANCH  21  25
ATOM     22  C   UNL     1       1.776  16.812  20.643  0.00  0.00    +0.000 C 
ATOM     23  N   UNL     1       0.604  15.975  20.793  0.00  0.00    +0.000 N 
ATOM     24  C   UNL     1      -0.542  16.200  19.931  0.00  0.00    +0.000 C 
ATOM     25  C   UNL     1       0.702  14.844  21.593  0.00  0.00    +0.000 C 
ATOM     26  O   UNL     1       1.690  14.575  22.267  0.00  0.00    +0.000 OA
ENDBRANCH  21  25
ENDBRANCH   1  21
TORSDOF 3
ENDMDL
MODEL 3
REMARK VINA RESULT:      -6.7      8.515     10.817
REMARK  Name = 
REMARK  6 active torsions:
REMARK  status: ('A' for Active; 'I' for Inactive)
REMARK    1  A    between atoms: C_1  and  N_2
REMARK    2  A    between atoms: N_2  and  C_3
REMARK    3  A    between atoms: C_4  and  O_6
REMARK    4  A    between atoms: O_6  and  C_7
REMARK    5  A    between atoms: C_9  and  C_10
REMARK    6  A    between atoms: N_23  and  C_24
REMARK                            x       y       z     vdW  Elec       q    Type
REMARK                         _______ _______ _______ _____ _____    ______ ____
ROOT
ATOM      1  C   UNL     1      -1.297  14.182  20.755  0.00  0.00    +0.000 C 
ATOM      2  N   UNL     1      -1.794  13.371  19.650  0.00  0.00    +0.000 NA
ATOM      3  C   UNL     1      -1.708  12.084  19.692  0.00  0.00    +0.000 C 
ATOM      4  C   UNL     1      -1.124  11.317  20.837  0.00  0.00    +0.000 A 
ATOM      5  C   UNL     1      -0.307  10.208  20.534  0.00  0.00    +0.000 A 
ATOM      6  C   UNL     1       0.155   9.373  21.547  0.00  0.00    +0.000 A 
ATOM      7 CL   UNL     1       1.084   7.980  21.155  0.00  0.00    +0.000 Cl
ATOM      8  C   UNL     1      -0.150   9.647  22.871  0.00  0.00    +0.000 A 
ATOM      9  C   UNL     1      -0.935  10.760  23.183  0.00  0.00    +0.000 A 
ATOM     10  C   UNL     1      -1.440  11.613  22.179  0.00  0.00    +0.000 A 
ATOM     11  N   UNL     1      -2.266  12.711  22.569  0.00  0.00    +0.000 N 
ATOM     12  C   UNL     1      -3.124  12.579  23.739  0.00  0.00    +0.000 C 
ATOM     13  C   UNL     1      -2.272  13.970  21.945  0.00  0.00    +0.000 C 
ATOM     14  O   UNL     1      -2.985  14.883  22.382  0.00  0.00    +0.000 OA
ENDROOT
BRANCH   3  15
ATOM     15  C   UNL     1      -2.220  11.351  18.488  0.00  0.00    +0.000 A 
ATOM     16  C   UNL     1      -3.550  11.562  18.101  0.00  0.00    +0.000 A 
ATOM     17  C   UNL     1      -4.079  10.890  16.998  0.00  0.00    +0.000 A 
ATOM     18  C   UNL     1      -3.280  10.004  16.277  0.00  0.00    +0.000 A 
ATOM     19  C   UNL     1      -1.958   9.781  16.664  0.00  0.00    +0.000 A 
ATOM     20  C   UNL     1      -1.428  10.445  17.773  0.00  0.00    +0.000 A 
ENDBRANCH   3  15
BRANCH   1  21
ATOM     21  O   UNL     1      -1.292  15.595  20.493  0.00  0.00    +0.000 OA
BRANCH  21  25
ATOM     22  C   UNL     1      -0.131  17.649  17.756  0.00  0.00    +0.000 C 
ATOM     23  N   UNL     1      -0.885  17.157  18.890  0.00  0.00    +0.000 N 
ATOM     24  C   UNL     1      -2.192  17.724  19.171  0.00  0.00    +0.000 C 
ATOM     25  C   UNL     1      -0.438  16.007  19.528  0.00  0.00    +0.000 C 
ATOM     26  O   UNL     1       0.619  15.449  19.256  0.00  0.00    +0.000 OA
ENDBRANCH  21  25
ENDBRANCH   1  21
TORSDOF 3
ENDMDL
MODEL 4
REMARK VINA RESULT:      -6.5      3.123      5.527
REMARK  Name = 
REMARK  6 active torsions:
REMARK  status: ('A' for Active; 'I' for Inactive)
REMARK    1  A    between atoms: C_1  and  N_2
REMARK    2  A    between atoms: N_2  and  C_3
REMARK    3  A    between atoms: C_4  and  O_6
REMARK    4  A    between atoms: O_6  and  C_7
REMARK    5  A    between atoms: C_9  and  C_10
REMARK    6  A    between atoms: N_23  and  C_24
REMARK                            x       y       z     vdW  Elec       q    Type
REMARK                         _______ _______ _______ _____ _____    ______ ____
ROOT
ATOM      1  C   UNL     1       4.013   3.610  18.396  0.00  0.00    +0.000 C 
ATOM      2  N   UNL     1       3.257   4.844  18.578  0.00  0.00    +0.000 NA
ATOM      3  C   UNL     1       3.774   5.981  18.256  0.00  0.00    +0.000 C 
ATOM      4  C   UNL     1       5.144   6.149  17.676  0.00  0.00    +0.000 A 
ATOM      5  C   UNL     1       5.923   7.229  18.138  0.00  0.00    +0.000 A 
ATOM      6  C   UNL     1       7.148   7.522  17.544  0.00  0.00    +0.000 A 
ATOM      7 CL   UNL     1       8.049   8.891  18.064  0.00  0.00    +0.000 Cl
ATOM      8  C   UNL     1       7.632   6.728  16.516  0.00  0.00    +0.000 A 
ATOM      9  C   UNL     1       6.880   5.637  16.072  0.00  0.00    +0.000 A 
ATOM     10  C   UNL     1       5.624   5.327  16.635  0.00  0.00    +0.000 A 
ATOM     11  N   UNL     1       4.894   4.220  16.106  0.00  0.00    +0.000 N 
ATOM     12  C   UNL     1       5.021   3.891  14.692  0.00  0.00    +0.000 C 
ATOM     13  C   UNL     1       4.093   3.352  16.867  0.00  0.00    +0.000 C 
ATOM     14  O   UNL     1       3.535   2.384  16.333  0.00  0.00    +0.000 OA
ENDROOT
BRANCH   3  15
ATOM     15  C   UNL     1       2.922   7.187  18.516  0.00  0.00    +0.000 A 
ATOM     16  C   UNL     1       2.304   7.304  19.769  0.00  0.00    +0.000 A 
ATOM     17  C   UNL     1       1.488   8.400  20.054  0.00  0.00    +0.000 A 
ATOM     18  C   UNL     1       1.285   9.384  19.087  0.00  0.00    +0.000 A 
ATOM     19  C   UNL     1       1.888   9.268  17.834  0.00  0.00    +0.000 A 
ATOM     20  C   UNL     1       2.698   8.168  17.542  0.00  0.00    +0.000 A 
ENDBRANCH   3  15
BRANCH   1  21
ATOM     21  O   UNL     1       3.386   2.446  18.963  0.00  0.00    +0.000 OA
BRANCH  21  25
ATOM     22  C   UNL     1       1.268   2.708  21.877  0.00  0.00    +0.000 C 
ATOM     23  N   UNL     1       1.729   2.514  20.519  0.00  0.00    +0.000 N 
ATOM     24  C   UNL     1       0.767   2.561  19.432  0.00  0.00    +0.000 C 
ATOM     25  C   UNL     1       3.098   2.523  20.282  0.00  0.00    +0.000 C 
ATOM     26  O   UNL     1       3.939   2.573  21.172  0.00  0.00    +0.000 OA
ENDBRANCH  21  25
ENDBRANCH   1  21
TORSDOF 3
ENDMDL
MODEL 5
REMARK VINA RESULT:      -6.5      7.473     10.667
REMARK  Name = 
REMARK  6 active torsions:
REMARK  status: ('A' for Active; 'I' for Inactive)
REMARK    1  A    between atoms: C_1  and  N_2
REMARK    2  A    between atoms: N_2  and  C_3
REMARK    3  A    between atoms: C_4  and  O_6
REMARK    4  A    between atoms: O_6  and  C_7
REMARK    5  A    between atoms: C_9  and  C_10
REMARK    6  A    between atoms: N_23  and  C_24
REMARK                            x       y       z     vdW  Elec       q    Type
REMARK                         _______ _______ _______ _____ _____    ______ ____
ROOT
ATOM      1  C   UNL     1      -0.127  13.747  18.808  0.00  0.00    +0.000 C 
ATOM      2  N   UNL     1      -0.892  13.792  20.049  0.00  0.00    +0.000 NA
ATOM      3  C   UNL     1      -1.926  13.037  20.207  0.00  0.00    +0.000 C 
ATOM      4  C   UNL     1      -2.425  12.067  19.183  0.00  0.00    +0.000 A 
ATOM      5  C   UNL     1      -3.819  11.972  18.994  0.00  0.00    +0.000 A 
ATOM      6  C   UNL     1      -4.354  10.997  18.158  0.00  0.00    +0.000 A 
ATOM      7 CL   UNL     1      -6.060  10.841  18.001  0.00  0.00    +0.000 Cl
ATOM      8  C   UNL     1      -3.518  10.132  17.469  0.00  0.00    +0.000 A 
ATOM      9  C   UNL     1      -2.133  10.239  17.627  0.00  0.00    +0.000 A 
ATOM     10  C   UNL     1      -1.559  11.199  18.485  0.00  0.00    +0.000 A 
ATOM     11  N   UNL     1      -0.138  11.226  18.625  0.00  0.00    +0.000 N 
ATOM     12  C   UNL     1       0.613   9.981  18.521  0.00  0.00    +0.000 C 
ATOM     13  C   UNL     1       0.629  12.391  18.792  0.00  0.00    +0.000 C 
ATOM     14  O   UNL     1       1.864  12.325  18.855  0.00  0.00    +0.000 OA
ENDROOT
BRANCH   3  15
ATOM     15  C   UNL     1      -2.657  13.188  21.508  0.00  0.00    +0.000 A 
ATOM     16  C   UNL     1      -3.375  14.371  21.730  0.00  0.00    +0.000 A 
ATOM     17  C   UNL     1      -4.058  14.567  22.931  0.00  0.00    +0.000 A 
ATOM     18  C   UNL     1      -4.025  13.581  23.917  0.00  0.00    +0.000 A 
ATOM     19  C   UNL     1      -3.302  12.406  23.707  0.00  0.00    +0.000 A 
ATOM     20  C   UNL     1      -2.610  12.211  22.510  0.00  0.00    +0.000 A 
ENDBRANCH   3  15
BRANCH   1  21
ATOM     21  O   UNL     1       0.882  14.766  18.701  0.00  0.00    +0.000 OA
BRANCH  21  25
ATOM     22  C   UNL     1       0.724  18.086  20.117  0.00  0.00    +0.000 C 
ATOM     23  N   UNL     1       1.158  16.745  19.788  0.00  0.00    +0.000 N 
ATOM     24  C   UNL     1       2.154  16.098  20.624  0.00  0.00    +0.000 C 
ATOM     25  C   UNL     1       0.443  16.038  18.829  0.00  0.00    +0.000 C 
ATOM     26  O   UNL     1      -0.465  16.527  18.166  0.00  0.00    +0.000 OA
ENDBRANCH  21  25
ENDBRANCH   1  21
TORSDOF 3
ENDMDL
MODEL 6
REMARK VINA RESULT:      -6.5      7.206      9.911
REMARK  Name = 
REMARK  6 active torsions:
REMARK  status: ('A' for Active; 'I' for Inactive)
REMARK    1  A    between atoms: C_1  and  N_2
REMARK    2  A    between atoms: N_2  and  C_3
REMARK    3  A    between atoms: C_4  and  O_6
REMARK    4  A    between atoms: O_6  and  C_7
REMARK    5  A    between atoms: C_9  and  C_10
REMARK    6  A    between atoms: N_23  and  C_24
REMARK                            x       y       z     vdW  Elec       q    Type
REMARK                         _______ _______ _______ _____ _____    ______ ____
ROOT
ATOM      1  C   UNL     1      -0.444  12.945  20.861  0.00  0.00    +0.000 C 
ATOM      2  N   UNL     1      -1.306  12.507  19.769  0.00  0.00    +0.000 NA
ATOM      3  C   UNL     1      -1.125  11.357  19.213  0.00  0.00    +0.000 C 
ATOM      4  C   UNL     1      -0.062  10.384  19.618  0.00  0.00    +0.000 A 
ATOM      5  C   UNL     1       0.622   9.698  18.595  0.00  0.00    +0.000 A 
ATOM      6  C   UNL     1       1.524   8.683  18.905  0.00  0.00    +0.000 A 
ATOM      7 CL   UNL     1       2.291   7.800  17.644  0.00  0.00    +0.000 Cl
ATOM      8  C   UNL     1       1.789   8.366  20.228  0.00  0.00    +0.000 A 
ATOM      9  C   UNL     1       1.137   9.062  21.250  0.00  0.00    +0.000 A 
ATOM     10  C   UNL     1       0.200  10.077  20.970  0.00  0.00    +0.000 A 
ATOM     11  N   UNL     1      -0.455  10.721  22.064  0.00  0.00    +0.000 N 
ATOM     12  C   UNL     1      -0.728   9.964  23.279  0.00  0.00    +0.000 C 
ATOM     13  C   UNL     1      -0.809  12.081  22.098  0.00  0.00    +0.000 C 
ATOM     14  O   UNL     1      -1.329  12.568  23.111  0.00  0.00    +0.000 OA
ENDROOT
BRANCH   3  15
ATOM     15  C   UNL     1      -2.047  11.023  18.080  0.00  0.00    +0.000 A 
ATOM     16  C   UNL     1      -3.303  11.643  18.042  0.00  0.00    +0.000 A 
ATOM     17  C   UNL     1      -4.204  11.352  17.017  0.00  0.00    +0.000 A 
ATOM     18  C   UNL     1      -3.854  10.439  16.024  0.00  0.00    +0.000 A 
ATOM     19  C   UNL     1      -2.610   9.808  16.062  0.00  0.00    +0.000 A 
ATOM     20  C   UNL     1      -1.709  10.090  17.091  0.00  0.00    +0.000 A 
ENDBRANCH   3  15
BRANCH   1  21
ATOM     21  O   UNL     1      -0.644  14.312  21.258  0.00  0.00    +0.000 OA
BRANCH  21  25
ATOM     22  C   UNL     1      -1.084  17.203  19.137  0.00  0.00    +0.000 C 
ATOM     23  N   UNL     1      -1.275  16.207  20.169  0.00  0.00    +0.000 N 
ATOM     24  C   UNL     1      -2.572  16.095  20.813  0.00  0.00    +0.000 C 
ATOM     25  C   UNL     1      -0.290  15.243  20.344  0.00  0.00    +0.000 C 
ATOM     26  O   UNL     1       0.783  15.257  19.751  0.00  0.00    +0.000 OA
ENDBRANCH  21  25
ENDBRANCH   1  21
TORSDOF 3
ENDMDL
MODEL 7
REMARK VINA RESULT:      -6.5      6.836     10.494
REMARK  Name = 
REMARK  6 active torsions:
REMARK  status: ('A' for Active; 'I' for Inactive)
REMARK    1  A    between atoms: C_1  and  N_2
REMARK    2  A    between atoms: N_2  and  C_3
REMARK    3  A    between atoms: C_4  and  O_6
REMARK    4  A    between atoms: O_6  and  C_7
REMARK    5  A    between atoms: C_9  and  C_10
REMARK    6  A    between atoms: N_23  and  C_24
REMARK                            x       y       z     vdW  Elec       q    Type
REMARK                         _______ _______ _______ _____ _____    ______ ____
ROOT
ATOM      1  C   UNL     1      -2.226  11.925  19.577  0.00  0.00    +0.000 C 
ATOM      2  N   UNL     1      -1.308  10.802  19.426  0.00  0.00    +0.000 NA
ATOM      3  C   UNL     1      -0.033  10.997  19.412  0.00  0.00    +0.000 C 
ATOM      4  C   UNL     1       0.615  12.339  19.552  0.00  0.00    +0.000 A 
ATOM      5  C   UNL     1       1.726  12.620  18.731  0.00  0.00    +0.000 A 
ATOM      6  C   UNL     1       2.456  13.792  18.906  0.00  0.00    +0.000 A 
ATOM      7 CL   UNL     1       3.856  14.083  17.950  0.00  0.00    +0.000 Cl
ATOM      8  C   UNL     1       2.073  14.716  19.866  0.00  0.00    +0.000 A 
ATOM      9  C   UNL     1       0.956  14.459  20.665  0.00  0.00    +0.000 A 
ATOM     10  C   UNL     1       0.209  13.270  20.531  0.00  0.00    +0.000 A 
ATOM     11  N   UNL     1      -0.900  13.059  21.406  0.00  0.00    +0.000 N 
ATOM     12  C   UNL     1      -0.851  13.593  22.761  0.00  0.00    +0.000 C 
ATOM     13  C   UNL     1      -2.097  12.420  21.043  0.00  0.00    +0.000 C 
ATOM     14  O   UNL     1      -3.028  12.324  21.854  0.00  0.00    +0.000 OA
ENDROOT
BRANCH   3  15
ATOM     15  C   UNL     1       0.817   9.777  19.218  0.00  0.00    +0.000 A 
ATOM     16  C   UNL     1       1.087   8.974  20.335  0.00  0.00    +0.000 A 
ATOM     17  C   UNL     1       1.887   7.838  20.211  0.00  0.00    +0.000 A 
ATOM     18  C   UNL     1       2.421   7.498  18.969  0.00  0.00    +0.000 A 
ATOM     19  C   UNL     1       2.165   8.298  17.855  0.00  0.00    +0.000 A 
ATOM     20  C   UNL     1       1.373   9.442  17.978  0.00  0.00    +0.000 A 
ENDBRANCH   3  15
BRANCH   1  21
ATOM     21  O   UNL     1      -3.610  11.583  19.394  0.00  0.00    +0.000 OA
BRANCH  21  25
ATOM     22  C   UNL     1      -6.102  12.733  17.044  0.00  0.00    +0.000 C 
ATOM     23  N   UNL     1      -5.376  12.473  18.269  0.00  0.00    +0.000 N 
ATOM     24  C   UNL     1      -6.059  12.619  19.541  0.00  0.00    +0.000 C 
ATOM     25  C   UNL     1      -4.127  11.871  18.178  0.00  0.00    +0.000 C 
ATOM     26  O   UNL     1      -3.558  11.651  17.115  0.00  0.00    +0.000 OA
ENDBRANCH  21  25
ENDBRANCH   1  21
TORSDOF 3
ENDMDL
MODEL 8
REMARK VINA RESULT:      -6.4      9.630     11.745
REMARK  Name = 
REMARK  6 active torsions:
REMARK  status: ('A' for Active; 'I' for Inactive)
REMARK    1  A    between atoms: C_1  and  N_2
REMARK    2  A    between atoms: N_2  and  C_3
REMARK    3  A    between atoms: C_4  and  O_6
REMARK    4  A    between atoms: O_6  and  C_7
REMARK    5  A    between atoms: C_9  and  C_10
REMARK    6  A    between atoms: N_23  and  C_24
REMARK                            x       y       z     vdW  Elec       q    Type
REMARK                         _______ _______ _______ _____ _____    ______ ____
ROOT
ATOM      1  C   UNL     1      -3.441  13.212  21.230  0.00  0.00    +0.000 C 
ATOM      2  N   UNL     1      -3.558  12.448  19.994  0.00  0.00    +0.000 NA
ATOM      3  C   UNL     1      -2.504  12.111  19.332  0.00  0.00    +0.000 C 
ATOM      4  C   UNL     1      -1.105  12.443  19.749  0.00  0.00    +0.000 A 
ATOM      5  C   UNL     1      -0.200  12.846  18.746  0.00  0.00    +0.000 A 
ATOM      6  C   UNL     1       1.146  13.038  19.044  0.00  0.00    +0.000 A 
ATOM      7 CL   UNL     1       2.253  13.450  17.794  0.00  0.00    +0.000 Cl
ATOM      8  C   UNL     1       1.603  12.873  20.342  0.00  0.00    +0.000 A 
ATOM      9  C   UNL     1       0.707  12.504  21.349  0.00  0.00    +0.000 A 
ATOM     10  C   UNL     1      -0.658  12.277  21.076  0.00  0.00    +0.000 A 
ATOM     11  N   UNL     1      -1.508  11.866  22.148  0.00  0.00    +0.000 N 
ATOM     12  C   UNL     1      -0.960  11.043  23.218  0.00  0.00    +0.000 C 
ATOM     13  C   UNL     1      -2.850  12.254  22.299  0.00  0.00    +0.000 C 
ATOM     14  O   UNL     1      -3.500  11.889  23.288  0.00  0.00    +0.000 OA
ENDROOT
BRANCH   3  15
ATOM     15  C   UNL     1      -2.741  11.356  18.058  0.00  0.00    +0.000 A 
ATOM     16  C   UNL     1      -3.873  11.679  17.298  0.00  0.00    +0.000 A 
ATOM     17  C   UNL     1      -4.148  10.994  16.114  0.00  0.00    +0.000 A 
ATOM     18  C   UNL     1      -3.291   9.982  15.684  0.00  0.00    +0.000 A 
ATOM     19  C   UNL     1      -2.169   9.647  16.442  0.00  0.00    +0.000 A 
ATOM     20  C   UNL     1      -1.896  10.324  17.632  0.00  0.00    +0.000 A 
ENDBRANCH   3  15
BRANCH   1  21
ATOM     21  O   UNL     1      -4.697  13.671  21.760  0.00  0.00    +0.000 OA
BRANCH  21  25
ATOM     22  C   UNL     1      -7.695  13.634  19.744  0.00  0.00    +0.000 C 
ATOM     23  N   UNL     1      -6.434  14.029  20.336  0.00  0.00    +0.000 N 
ATOM     24  C   UNL     1      -5.997  15.408  20.217  0.00  0.00    +0.000 C 
ATOM     25  C   UNL     1      -5.801  13.136  21.191  0.00  0.00    +0.000 C 
ATOM     26  O   UNL     1      -6.192  11.991  21.385  0.00  0.00    +0.000 OA
ENDBRANCH  21  25
ENDBRANCH   1  21
TORSDOF 3
ENDMDL
MODEL 9
REMARK VINA RESULT:      -6.4      9.050     11.955
REMARK  Name = 
REMARK  6 active torsions:
REMARK  status: ('A' for Active; 'I' for Inactive)
REMARK    1  A    between atoms: C_1  and  N_2
REMARK    2  A    between atoms: N_2  and  C_3
REMARK    3  A    between atoms: C_4  and  O_6
REMARK    4  A    between atoms: O_6  and  C_7
REMARK    5  A    between atoms: C_9  and  C_10
REMARK    6  A    between atoms: N_23  and  C_24
REMARK                            x       y       z     vdW  Elec       q    Type
REMARK                         _______ _______ _______ _____ _____    ______ ____
ROOT
ATOM      1  C   UNL     1      -3.740  12.465  21.017  0.00  0.00    +0.000 C 
ATOM      2  N   UNL     1      -2.616  13.376  20.828  0.00  0.00    +0.000 NA
ATOM      3  C   UNL     1      -1.678  13.091  19.991  0.00  0.00    +0.000 C 
ATOM      4  C   UNL     1      -1.646  11.854  19.149  0.00  0.00    +0.000 A 
ATOM      5  C   UNL     1      -0.407  11.201  18.990  0.00  0.00    +0.000 A 
ATOM      6  C   UNL     1      -0.282  10.126  18.113  0.00  0.00    +0.000 A 
ATOM      7 CL   UNL     1       1.253   9.391  17.868  0.00  0.00    +0.000 Cl
ATOM      8  C   UNL     1      -1.387   9.662  17.417  0.00  0.00    +0.000 A 
ATOM      9  C   UNL     1      -2.626  10.284  17.592  0.00  0.00    +0.000 A 
ATOM     10  C   UNL     1      -2.782  11.390  18.453  0.00  0.00    +0.000 A 
ATOM     11  N   UNL     1      -4.070  11.999  18.554  0.00  0.00    +0.000 N 
ATOM     12  C   UNL     1      -4.948  12.009  17.391  0.00  0.00    +0.000 C 
ATOM     13  C   UNL     1      -4.607  12.546  19.731  0.00  0.00    +0.000 C 
ATOM     14  O   UNL     1      -5.755  13.010  19.740  0.00  0.00    +0.000 OA
ENDROOT
BRANCH   3  15
ATOM     15  C   UNL     1      -0.555  14.081  19.901  0.00  0.00    +0.000 A 
ATOM     16  C   UNL     1       0.314  14.198  20.995  0.00  0.00    +0.000 A 
ATOM     17  C   UNL     1       1.364  15.116  20.967  0.00  0.00    +0.000 A 
ATOM     18  C   UNL     1       1.550  15.923  19.846  0.00  0.00    +0.000 A 
ATOM     19  C   UNL     1       0.682  15.820  18.758  0.00  0.00    +0.000 A 
ATOM     20  C   UNL     1      -0.375  14.909  18.786  0.00  0.00    +0.000 A 
ENDBRANCH   3  15
BRANCH   1  21
ATOM     21  O   UNL     1      -4.610  12.820  22.105  0.00  0.00    +0.000 OA
BRANCH  21  25
ATOM     22  C   UNL     1      -3.391  14.424  25.104  0.00  0.00    +0.000 C 
ATOM     23  N   UNL     1      -4.080  14.171  23.857  0.00  0.00    +0.000 N 
ATOM     24  C   UNL     1      -4.594  15.293  23.092  0.00  0.00    +0.000 C 
ATOM     25  C   UNL     1      -4.023  12.890  23.322  0.00  0.00    +0.000 C 
ATOM     26  O   UNL     1      -3.517  11.936  23.902  0.00  0.00    +0.000 OA
ENDBRANCH  21  25
ENDBRANCH   1  21
TORSDOF 3
ENDMDL
