MODEL 1
REMARK VINA RESULT:      -8.8      0.000      0.000
REMARK  Name = 
REMARK  9 active torsions:
REMARK  status: ('A' for Active; 'I' for Inactive)
REMARK    1  A    between atoms: C_1  and  C_2
REMARK    2  A    between atoms: C_5  and  C_6
REMARK    3  A    between atoms: C_6  and  N_7
REMARK    4  A    between atoms: C_8  and  C_10
REMARK    5  A    between atoms: N_12  and  C_13
REMARK    6  A    between atoms: C_13  and  C_14
REMARK    7  A    between atoms: C_14  and  C_15
REMARK    8  A    between atoms: C_14  and  N_21
REMARK    9  A    between atoms: N_24  and  C_25
REMARK                            x       y       z     vdW  Elec       q    Type
REMARK                         _______ _______ _______ _____ _____    ______ ____
ROOT
ATOM      1  C   UNL     1       3.485   5.809  19.334  0.00  0.00    +0.000 C 
ENDROOT
BRANCH   1   2
ATOM      2  C   UNL     1       2.703   4.484  19.261  0.00  0.00    +0.000 A 
ATOM      3  C   UNL     1       2.393   3.750  20.417  0.00  0.00    +0.000 A 
ATOM      4  C   UNL     1       1.383   2.779  20.391  0.00  0.00    +0.000 A 
ATOM      5  C   UNL     1       0.710   2.554  19.203  0.00  0.00    +0.000 A 
ATOM      6  N   UNL     1       1.040   3.156  18.048  0.00  0.00    +0.000 NA
ATOM      7  C   UNL     1       2.027   4.084  18.106  0.00  0.00    +0.000 A 
ENDBRANCH   1   2
BRANCH   1   8
ATOM      8  N   UNL     1       4.840   5.827  18.671  0.00  0.00    +0.000 NA
ATOM      9  C   UNL     1       4.734   6.567  17.385  0.00  0.00    +0.000 C 
ATOM     10  C   UNL     1       6.055   6.762  16.634  0.00  0.00    +0.000 C 
ATOM     11  N   UNL     1       6.608   5.436  16.301  0.00  0.00    +0.000 N 
ATOM     12  C   UNL     1       6.757   4.576  17.495  0.00  0.00    +0.000 C 
ATOM     13  C   UNL     1       5.453   4.508  18.378  0.00  0.00    +0.000 C 
BRANCH  11  14
ATOM     14  C   UNL     1       6.656   5.013  14.973  0.00  0.00    +0.000 A 
ATOM     15  C   UNL     1       7.677   5.407  14.093  0.00  0.00    +0.000 A 
ATOM     16  C   UNL     1       7.750   4.939  12.762  0.00  0.00    +0.000 A 
ATOM     17  C   UNL     1       6.798   4.060  12.264  0.00  0.00    +0.000 A 
ATOM     18  C   UNL     1       5.756   3.668  13.090  0.00  0.00    +0.000 A 
ATOM     19  C   UNL     1       5.687   4.156  14.399  0.00  0.00    +0.000 A 
ATOM     20  F   UNL     1       4.586   3.784  15.080  0.00  0.00    +0.000 F 
ENDBRANCH  11  14
ENDBRANCH   1   8
BRANCH   1  21
ATOM     21  C   UNL     1       2.634   7.108  19.063  0.00  0.00    +0.000 C 
BRANCH  21  24
ATOM     22  C   UNL     1       1.235   8.880  20.115  0.00  0.00    +0.000 C 
ATOM     23  O   UNL     1       1.363   9.734  19.253  0.00  0.00    +0.000 OA
ATOM     24  N   UNL     1       1.885   7.666  20.172  0.00  0.00    +0.000 N 
ATOM     25  H   UNL     1       1.520   7.036  20.883  0.00  0.00    +0.000 HD
BRANCH  22  27
ATOM     26  N   UNL     1      -0.000  10.369  21.633  0.00  0.00    +0.000 N 
ATOM     27  C   UNL     1       0.244   9.064  21.289  0.00  0.00    +0.000 C 
ATOM     28  O   UNL     1      -0.238   8.071  21.819  0.00  0.00    +0.000 OA
ATOM     29  H   UNL     1       0.454  11.093  21.086  0.00  0.00    +0.000 HD
BRANCH  26  30
ATOM     30  C   UNL     1      -0.783  10.719  22.791  0.00  0.00    +0.000 C 
BRANCH  30  35
ATOM     31  C   UNL     1      -5.020  14.504  21.503  0.00  0.00    +0.000 C 
ATOM     32  C   UNL     1      -3.906  13.556  21.836  0.00  0.00    +0.000 A 
ATOM     33  C   UNL     1      -2.930  13.228  20.889  0.00  0.00    +0.000 A 
ATOM     34  C   UNL     1      -1.909  12.328  21.206  0.00  0.00    +0.000 A 
ATOM     35  C   UNL     1      -1.853  11.729  22.472  0.00  0.00    +0.000 A 
ATOM     36  C   UNL     1      -2.818  12.076  23.426  0.00  0.00    +0.000 A 
ATOM     37  C   UNL     1      -3.837  12.978  23.109  0.00  0.00    +0.000 A 
ENDBRANCH  30  35
ENDBRANCH  26  30
ENDBRANCH  22  27
ENDBRANCH  21  24
ENDBRANCH   1  21
TORSDOF 8
ENDMDL
MODEL 2
REMARK VINA RESULT:      -8.7      1.891      2.305
REMARK  Name = 
REMARK  9 active torsions:
REMARK  status: ('A' for Active; 'I' for Inactive)
REMARK    1  A    between atoms: C_1  and  C_2
REMARK    2  A    between atoms: C_5  and  C_6
REMARK    3  A    between atoms: C_6  and  N_7
REMARK    4  A    between atoms: C_8  and  C_10
REMARK    5  A    between atoms: N_12  and  C_13
REMARK    6  A    between atoms: C_13  and  C_14
REMARK    7  A    between atoms: C_14  and  C_15
REMARK    8  A    between atoms: C_14  and  N_21
REMARK    9  A    between atoms: N_24  and  C_25
REMARK                            x       y       z     vdW  Elec       q    Type
REMARK                         _______ _______ _______ _____ _____    ______ ____
ROOT
ATOM      1  C   UNL     1       3.444   6.099  18.675  0.00  0.00    +0.000 C 
ENDROOT
BRANCH   1   2
ATOM      2  C   UNL     1       2.664   4.814  19.012  0.00  0.00    +0.000 A 
ATOM      3  C   UNL     1       2.311   4.494  20.333  0.00  0.00    +0.000 A 
ATOM      4  C   UNL     1       1.302   3.557  20.590  0.00  0.00    +0.000 A 
ATOM      5  C   UNL     1       0.673   2.948  19.517  0.00  0.00    +0.000 A 
ATOM      6  N   UNL     1       1.047   3.143  18.242  0.00  0.00    +0.000 NA
ATOM      7  C   UNL     1       2.032   4.050  18.028  0.00  0.00    +0.000 A 
ENDBRANCH   1   2
BRANCH   1   8
ATOM      8  N   UNL     1       4.806   5.916  18.054  0.00  0.00    +0.000 NA
ATOM      9  C   UNL     1       4.821   6.588  16.726  0.00  0.00    +0.000 C 
ATOM     10  C   UNL     1       6.173   6.578  16.006  0.00  0.00    +0.000 C 
ATOM     11  N   UNL     1       6.567   5.178  15.763  0.00  0.00    +0.000 N 
ATOM     12  C   UNL     1       6.583   4.377  17.006  0.00  0.00    +0.000 C 
ATOM     13  C   UNL     1       5.260   4.518  17.852  0.00  0.00    +0.000 C 
BRANCH  11  14
ATOM     14  C   UNL     1       6.595   4.677  14.462  0.00  0.00    +0.000 A 
ATOM     15  C   UNL     1       5.649   3.753  13.990  0.00  0.00    +0.000 A 
ATOM     16  C   UNL     1       5.650   3.285  12.657  0.00  0.00    +0.000 A 
ATOM     17  C   UNL     1       6.604   3.723  11.750  0.00  0.00    +0.000 A 
ATOM     18  C   UNL     1       7.576   4.613  12.182  0.00  0.00    +0.000 A 
ATOM     19  C   UNL     1       7.572   5.053  13.510  0.00  0.00    +0.000 A 
ATOM     20  F   UNL     1       8.613   5.841  13.843  0.00  0.00    +0.000 F 
ENDBRANCH  11  14
ENDBRANCH   1   8
BRANCH   1  21
ATOM     21  C   UNL     1       2.594   7.246  18.005  0.00  0.00    +0.000 C 
BRANCH  21  24
ATOM     22  C   UNL     1       1.531   9.440  18.512  0.00  0.00    +0.000 C 
ATOM     23  O   UNL     1       1.925  10.052  17.533  0.00  0.00    +0.000 OA
ATOM     24  N   UNL     1       1.887   8.160  18.880  0.00  0.00    +0.000 N 
ATOM     25  H   UNL     1       1.326   7.778  19.638  0.00  0.00    +0.000 HD
BRANCH  22  27
ATOM     26  N   UNL     1      -0.115  11.194  19.023  0.00  0.00    +0.000 N 
ATOM     27  C   UNL     1       0.500  10.058  19.486  0.00  0.00    +0.000 C 
ATOM     28  O   UNL     1       0.308   9.518  20.567  0.00  0.00    +0.000 OA
ATOM     29  H   UNL     1       0.128  11.514  18.091  0.00  0.00    +0.000 HD
BRANCH  26  30
ATOM     30  C   UNL     1      -0.993  11.978  19.853  0.00  0.00    +0.000 C 
BRANCH  30  35
ATOM     31  C   UNL     1      -6.495  11.855  17.942  0.00  0.00    +0.000 C 
ATOM     32  C   UNL     1      -5.071  11.912  18.410  0.00  0.00    +0.000 A 
ATOM     33  C   UNL     1      -4.039  11.354  17.648  0.00  0.00    +0.000 A 
ATOM     34  C   UNL     1      -2.718  11.396  18.106  0.00  0.00    +0.000 A 
ATOM     35  C   UNL     1      -2.409  11.984  19.340  0.00  0.00    +0.000 A 
ATOM     36  C   UNL     1      -3.440  12.561  20.090  0.00  0.00    +0.000 A 
ATOM     37  C   UNL     1      -4.760  12.522  19.631  0.00  0.00    +0.000 A 
ENDBRANCH  30  35
ENDBRANCH  26  30
ENDBRANCH  22  27
ENDBRANCH  21  24
ENDBRANCH   1  21
TORSDOF 8
ENDMDL
MODEL 3
REMARK VINA RESULT:      -8.5      4.508      8.941
REMARK  Name = 
REMARK  9 active torsions:
REMARK  status: ('A' for Active; 'I' for Inactive)
REMARK    1  A    between atoms: C_1  and  C_2
REMARK    2  A    between atoms: C_5  and  C_6
REMARK    3  A    between atoms: C_6  and  N_7
REMARK    4  A    between atoms: C_8  and  C_10
REMARK    5  A    between atoms: N_12  and  C_13
REMARK    6  A    between atoms: C_13  and  C_14
REMARK    7  A    between atoms: C_14  and  C_15
REMARK    8  A    between atoms: C_14  and  N_21
REMARK    9  A    between atoms: N_24  and  C_25
REMARK                            x       y       z     vdW  Elec       q    Type
REMARK                         _______ _______ _______ _____ _____    ______ ____
ROOT
ATOM      1  C   UNL     1       3.205   5.831  18.954  0.00  0.00    +0.000 C 
ENDROOT
BRANCH   1   2
ATOM      2  C   UNL     1       2.230   4.891  19.689  0.00  0.00    +0.000 A 
ATOM      3  C   UNL     1       1.342   4.059  18.988  0.00  0.00    +0.000 A 
ATOM      4  C   UNL     1       0.748   2.961  19.624  0.00  0.00    +0.000 A 
ATOM      5  C   UNL     1       1.045   2.724  20.955  0.00  0.00    +0.000 A 
ATOM      6  N   UNL     1       1.804   3.551  21.694  0.00  0.00    +0.000 NA
ATOM      7  C   UNL     1       2.357   4.608  21.051  0.00  0.00    +0.000 A 
ENDBRANCH   1   2
BRANCH   1   8
ATOM      8  N   UNL     1       2.936   7.309  19.078  0.00  0.00    +0.000 NA
ATOM      9  C   UNL     1       1.709   7.506  19.897  0.00  0.00    +0.000 C 
ATOM     10  C   UNL     1       1.355   8.964  20.202  0.00  0.00    +0.000 C 
ATOM     11  N   UNL     1       1.116   9.668  18.928  0.00  0.00    +0.000 N 
ATOM     12  C   UNL     1       2.260   9.546  17.998  0.00  0.00    +0.000 C 
ATOM     13  C   UNL     1       2.752   8.059  17.811  0.00  0.00    +0.000 C 
BRANCH  11  14
ATOM     14  C   UNL     1      -0.169  10.096  18.597  0.00  0.00    +0.000 A 
ATOM     15  C   UNL     1      -0.905   9.531  17.544  0.00  0.00    +0.000 A 
ATOM     16  C   UNL     1      -2.225   9.933  17.243  0.00  0.00    +0.000 A 
ATOM     17  C   UNL     1      -2.854  10.922  17.986  0.00  0.00    +0.000 A 
ATOM     18  C   UNL     1      -2.153  11.528  19.018  0.00  0.00    +0.000 A 
ATOM     19  C   UNL     1      -0.840  11.132  19.291  0.00  0.00    +0.000 A 
ATOM     20  F   UNL     1      -0.225  11.850  20.250  0.00  0.00    +0.000 F 
ENDBRANCH  11  14
ENDBRANCH   1   8
BRANCH   1  21
ATOM     21  C   UNL     1       4.730   5.453  19.085  0.00  0.00    +0.000 C 
BRANCH  21  24
ATOM     22  C   UNL     1       7.000   6.046  18.252  0.00  0.00    +0.000 C 
ATOM     23  O   UNL     1       7.569   5.009  18.551  0.00  0.00    +0.000 OA
ATOM     24  N   UNL     1       5.704   6.393  18.567  0.00  0.00    +0.000 N 
ATOM     25  H   UNL     1       5.373   7.228  18.089  0.00  0.00    +0.000 HD
BRANCH  22  27
ATOM     26  N   UNL     1       7.970   8.300  18.079  0.00  0.00    +0.000 N 
ATOM     27  C   UNL     1       7.703   7.135  17.406  0.00  0.00    +0.000 C 
ATOM     28  O   UNL     1       7.963   6.898  16.233  0.00  0.00    +0.000 OA
ATOM     29  H   UNL     1       7.719   8.344  19.061  0.00  0.00    +0.000 HD
BRANCH  26  30
ATOM     30  C   UNL     1       8.488   9.465  17.410  0.00  0.00    +0.000 C 
BRANCH  30  35
ATOM     31  C   UNL     1      10.008  13.614  21.207  0.00  0.00    +0.000 C 
ATOM     32  C   UNL     1       9.647  12.550  20.212  0.00  0.00    +0.000 A 
ATOM     33  C   UNL     1       9.284  12.881  18.902  0.00  0.00    +0.000 A 
ATOM     34  C   UNL     1       8.931  11.880  17.992  0.00  0.00    +0.000 A 
ATOM     35  C   UNL     1       8.922  10.534  18.378  0.00  0.00    +0.000 A 
ATOM     36  C   UNL     1       9.307  10.204  19.684  0.00  0.00    +0.000 A 
ATOM     37  C   UNL     1       9.663  11.203  20.593  0.00  0.00    +0.000 A 
ENDBRANCH  30  35
ENDBRANCH  26  30
ENDBRANCH  22  27
ENDBRANCH  21  24
ENDBRANCH   1  21
TORSDOF 8
ENDMDL
MODEL 4
REMARK VINA RESULT:      -8.4      4.374      8.953
REMARK  Name = 
REMARK  9 active torsions:
REMARK  status: ('A' for Active; 'I' for Inactive)
REMARK    1  A    between atoms: C_1  and  C_2
REMARK    2  A    between atoms: C_5  and  C_6
REMARK    3  A    between atoms: C_6  and  N_7
REMARK    4  A    between atoms: C_8  and  C_10
REMARK    5  A    between atoms: N_12  and  C_13
REMARK    6  A    between atoms: C_13  and  C_14
REMARK    7  A    between atoms: C_14  and  C_15
REMARK    8  A    between atoms: C_14  and  N_21
REMARK    9  A    between atoms: N_24  and  C_25
REMARK                            x       y       z     vdW  Elec       q    Type
REMARK                         _______ _______ _______ _____ _____    ______ ____
ROOT
ATOM      1  C   UNL     1       2.704   5.660  18.560  0.00  0.00    +0.000 C 
ENDROOT
BRANCH   1   2
ATOM      2  C   UNL     1       2.065   4.767  19.640  0.00  0.00    +0.000 A 
ATOM      3  C   UNL     1       1.127   3.774  19.313  0.00  0.00    +0.000 A 
ATOM      4  C   UNL     1       0.845   2.740  20.214  0.00  0.00    +0.000 A 
ATOM      5  C   UNL     1       1.500   2.725  21.433  0.00  0.00    +0.000 A 
ATOM      6  N   UNL     1       2.325   3.707  21.834  0.00  0.00    +0.000 NA
ATOM      7  C   UNL     1       2.570   4.698  20.941  0.00  0.00    +0.000 A 
ENDBRANCH   1   2
BRANCH   1   8
ATOM      8  N   UNL     1       2.690   7.145  18.821  0.00  0.00    +0.000 NA
ATOM      9  C   UNL     1       1.523   7.468  19.686  0.00  0.00    +0.000 C 
ATOM     10  C   UNL     1       1.425   8.932  20.127  0.00  0.00    +0.000 C 
ATOM     11  N   UNL     1       1.294   9.778  18.927  0.00  0.00    +0.000 N 
ATOM     12  C   UNL     1       2.390   9.552  17.960  0.00  0.00    +0.000 C 
ATOM     13  C   UNL     1       2.622   8.028  17.630  0.00  0.00    +0.000 C 
BRANCH  11  14
ATOM     14  C   UNL     1       0.096  10.444  18.669  0.00  0.00    +0.000 A 
ATOM     15  C   UNL     1      -0.948   9.860  17.935  0.00  0.00    +0.000 A 
ATOM     16  C   UNL     1      -2.180  10.518  17.718  0.00  0.00    +0.000 A 
ATOM     17  C   UNL     1      -2.406  11.789  18.226  0.00  0.00    +0.000 A 
ATOM     18  C   UNL     1      -1.390  12.415  18.933  0.00  0.00    +0.000 A 
ATOM     19  C   UNL     1      -0.170  11.758  19.123  0.00  0.00    +0.000 A 
ATOM     20  F   UNL     1       0.774  12.494  19.741  0.00  0.00    +0.000 F 
ENDBRANCH  11  14
ENDBRANCH   1   8
BRANCH   1  21
ATOM     21  C   UNL     1       4.071   5.134  17.975  0.00  0.00    +0.000 C 
BRANCH  21  24
ATOM     22  C   UNL     1       6.310   6.191  18.239  0.00  0.00    +0.000 C 
ATOM     23  O   UNL     1       6.649   5.623  19.263  0.00  0.00    +0.000 OA
ATOM     24  N   UNL     1       5.077   6.117  17.627  0.00  0.00    +0.000 N 
ATOM     25  H   UNL     1       5.051   6.537  16.700  0.00  0.00    +0.000 HD
BRANCH  22  27
ATOM     26  N   UNL     1       7.615   8.269  18.061  0.00  0.00    +0.000 N 
ATOM     27  C   UNL     1       7.298   7.083  17.448  0.00  0.00    +0.000 C 
ATOM     28  O   UNL     1       7.715   6.690  16.366  0.00  0.00    +0.000 OA
ATOM     29  H   UNL     1       7.210   8.449  18.974  0.00  0.00    +0.000 HD
BRANCH  26  30
ATOM     30  C   UNL     1       8.404   9.279  17.405  0.00  0.00    +0.000 C 
BRANCH  30  35
ATOM     31  C   UNL     1      10.224  13.481  21.006  0.00  0.00    +0.000 C 
ATOM     32  C   UNL     1       9.725  12.397  20.097  0.00  0.00    +0.000 A 
ATOM     33  C   UNL     1       9.693  11.062  20.516  0.00  0.00    +0.000 A 
ATOM     34  C   UNL     1       9.245  10.059  19.652  0.00  0.00    +0.000 A 
ATOM     35  C   UNL     1       8.834  10.370  18.349  0.00  0.00    +0.000 A 
ATOM     36  C   UNL     1       8.846  11.709  17.939  0.00  0.00    +0.000 A 
ATOM     37  C   UNL     1       9.291  12.712  18.804  0.00  0.00    +0.000 A 
ENDBRANCH  30  35
ENDBRANCH  26  30
ENDBRANCH  22  27
ENDBRANCH  21  24
ENDBRANCH   1  21
TORSDOF 8
ENDMDL
MODEL 5
REMARK VINA RESULT:      -8.4      3.653      9.990
REMARK  Name = 
REMARK  9 active torsions:
REMARK  status: ('A' for Active; 'I' for Inactive)
REMARK    1  A    between atoms: C_1  and  C_2
REMARK    2  A    between atoms: C_5  and  C_6
REMARK    3  A    between atoms: C_6  and  N_7
REMARK    4  A    between atoms: C_8  and  C_10
REMARK    5  A    between atoms: N_12  and  C_13
REMARK    6  A    between atoms: C_13  and  C_14
REMARK    7  A    between atoms: C_14  and  C_15
REMARK    8  A    between atoms: C_14  and  N_21
REMARK    9  A    between atoms: N_24  and  C_25
REMARK                            x       y       z     vdW  Elec       q    Type
REMARK                         _______ _______ _______ _____ _____    ______ ____
ROOT
ATOM      1  C   UNL     1       2.776   6.203  18.451  0.00  0.00    +0.000 C 
ENDROOT
BRANCH   1   2
ATOM      2  C   UNL     1       2.232   4.763  18.404  0.00  0.00    +0.000 A 
ATOM      3  C   UNL     1       2.679   3.840  17.445  0.00  0.00    +0.000 A 
ATOM      4  C   UNL     1       2.479   2.466  17.636  0.00  0.00    +0.000 A 
ATOM      5  C   UNL     1       1.823   2.044  18.779  0.00  0.00    +0.000 A 
ATOM      6  N   UNL     1       1.286   2.893  19.672  0.00  0.00    +0.000 NA
ATOM      7  C   UNL     1       1.490   4.215  19.454  0.00  0.00    +0.000 A 
ENDBRANCH   1   2
BRANCH   1   8
ATOM      8  N   UNL     1       1.780   7.289  18.774  0.00  0.00    +0.000 NA
ATOM      9  C   UNL     1       1.906   8.371  17.760  0.00  0.00    +0.000 C 
ATOM     10  C   UNL     1       0.888   9.507  17.890  0.00  0.00    +0.000 C 
ATOM     11  N   UNL     1       1.066  10.152  19.204  0.00  0.00    +0.000 N 
ATOM     12  C   UNL     1       0.979   9.185  20.319  0.00  0.00    +0.000 C 
ATOM     13  C   UNL     1       1.893   7.916  20.113  0.00  0.00    +0.000 C 
BRANCH  11  14
ATOM     14  C   UNL     1       1.566  11.452  19.281  0.00  0.00    +0.000 A 
ATOM     15  C   UNL     1       2.386  12.005  18.285  0.00  0.00    +0.000 A 
ATOM     16  C   UNL     1       2.850  13.339  18.342  0.00  0.00    +0.000 A 
ATOM     17  C   UNL     1       2.512  14.164  19.405  0.00  0.00    +0.000 A 
ATOM     18  C   UNL     1       1.727  13.649  20.426  0.00  0.00    +0.000 A 
ATOM     19  C   UNL     1       1.291  12.322  20.364  0.00  0.00    +0.000 A 
ATOM     20  F   UNL     1       0.616  11.900  21.451  0.00  0.00    +0.000 F 
ENDBRANCH  11  14
ENDBRANCH   1   8
BRANCH   1  21
ATOM     21  C   UNL     1       4.159   6.375  19.191  0.00  0.00    +0.000 C 
BRANCH  21  24
ATOM     22  C   UNL     1       6.142   5.029  18.515  0.00  0.00    +0.000 C 
ATOM     23  O   UNL     1       6.066   4.168  19.375  0.00  0.00    +0.000 OA
ATOM     24  N   UNL     1       5.367   6.165  18.418  0.00  0.00    +0.000 N 
ATOM     25  H   UNL     1       5.482   6.670  17.542  0.00  0.00    +0.000 HD
BRANCH  22  27
ATOM     26  N   UNL     1       6.860   5.696  16.259  0.00  0.00    +0.000 N 
ATOM     27  C   UNL     1       7.153   4.915  17.348  0.00  0.00    +0.000 C 
ATOM     28  O   UNL     1       8.110   4.162  17.466  0.00  0.00    +0.000 OA
ATOM     29  H   UNL     1       6.041   6.293  16.314  0.00  0.00    +0.000 HD
BRANCH  26  30
ATOM     30  C   UNL     1       7.611   5.607  15.033  0.00  0.00    +0.000 C 
BRANCH  30  35
ATOM     31  C   UNL     1       4.910   2.348  11.030  0.00  0.00    +0.000 C 
ATOM     32  C   UNL     1       5.599   3.216  12.042  0.00  0.00    +0.000 A 
ATOM     33  C   UNL     1       6.870   3.744  11.792  0.00  0.00    +0.000 A 
ATOM     34  C   UNL     1       7.510   4.535  12.751  0.00  0.00    +0.000 A 
ATOM     35  C   UNL     1       6.895   4.800  13.982  0.00  0.00    +0.000 A 
ATOM     36  C   UNL     1       5.614   4.288  14.221  0.00  0.00    +0.000 A 
ATOM     37  C   UNL     1       4.974   3.500  13.261  0.00  0.00    +0.000 A 
ENDBRANCH  30  35
ENDBRANCH  26  30
ENDBRANCH  22  27
ENDBRANCH  21  24
ENDBRANCH   1  21
TORSDOF 8
ENDMDL
MODEL 6
REMARK VINA RESULT:      -8.3      1.179      1.670
REMARK  Name = 
REMARK  9 active torsions:
REMARK  status: ('A' for Active; 'I' for Inactive)
REMARK    1  A    between atoms: C_1  and  C_2
REMARK    2  A    between atoms: C_5  and  C_6
REMARK    3  A    between atoms: C_6  and  N_7
REMARK    4  A    between atoms: C_8  and  C_10
REMARK    5  A    between atoms: N_12  and  C_13
REMARK    6  A    between atoms: C_13  and  C_14
REMARK    7  A    between atoms: C_14  and  C_15
REMARK    8  A    between atoms: C_14  and  N_21
REMARK    9  A    between atoms: N_24  and  C_25
REMARK                            x       y       z     vdW  Elec       q    Type
REMARK                         _______ _______ _______ _____ _____    ______ ____
ROOT
ATOM      1  C   UNL     1       3.291   5.933  18.943  0.00  0.00    +0.000 C 
ENDROOT
BRANCH   1   2
ATOM      2  C   UNL     1       2.529   4.603  19.091  0.00  0.00    +0.000 A 
ATOM      3  C   UNL     1       2.209   4.076  20.352  0.00  0.00    +0.000 A 
ATOM      4  C   UNL     1       1.213   3.098  20.481  0.00  0.00    +0.000 A 
ATOM      5  C   UNL     1       0.566   2.657  19.340  0.00  0.00    +0.000 A 
ATOM      6  N   UNL     1       0.909   3.053  18.103  0.00  0.00    +0.000 NA
ATOM      7  C   UNL     1       1.882   3.994  18.013  0.00  0.00    +0.000 A 
ENDBRANCH   1   2
BRANCH   1   8
ATOM      8  N   UNL     1       4.650   5.862  18.295  0.00  0.00    +0.000 NA
ATOM      9  C   UNL     1       4.586   6.539  16.971  0.00  0.00    +0.000 C 
ATOM     10  C   UNL     1       5.920   6.640  16.225  0.00  0.00    +0.000 C 
ATOM     11  N   UNL     1       6.420   5.277  15.966  0.00  0.00    +0.000 N 
ATOM     12  C   UNL     1       6.524   4.474  17.204  0.00  0.00    +0.000 C 
ATOM     13  C   UNL     1       5.210   4.505  18.076  0.00  0.00    +0.000 C 
BRANCH  11  14
ATOM     14  C   UNL     1       6.462   4.785  14.662  0.00  0.00    +0.000 A 
ATOM     15  C   UNL     1       5.464   3.948  14.139  0.00  0.00    +0.000 A 
ATOM     16  C   UNL     1       5.484   3.491  12.802  0.00  0.00    +0.000 A 
ATOM     17  C   UNL     1       6.509   3.855  11.942  0.00  0.00    +0.000 A 
ATOM     18  C   UNL     1       7.532   4.658  12.425  0.00  0.00    +0.000 A 
ATOM     19  C   UNL     1       7.507   5.087  13.756  0.00  0.00    +0.000 A 
ATOM     20  F   UNL     1       8.594   5.782  14.143  0.00  0.00    +0.000 F 
ENDBRANCH  11  14
ENDBRANCH   1   8
BRANCH   1  21
ATOM     21  C   UNL     1       2.421   7.154  18.453  0.00  0.00    +0.000 C 
BRANCH  21  24
ATOM     22  C   UNL     1       1.445   9.355  19.088  0.00  0.00    +0.000 C 
ATOM     23  O   UNL     1       1.155   9.744  17.969  0.00  0.00    +0.000 OA
ATOM     24  N   UNL     1       2.146   8.211  19.405  0.00  0.00    +0.000 N 
ATOM     25  H   UNL     1       2.142   7.988  20.398  0.00  0.00    +0.000 HD
BRANCH  22  27
ATOM     26  N   UNL     1       0.678  11.447  20.130  0.00  0.00    +0.000 N 
ATOM     27  C   UNL     1       1.000  10.132  20.351  0.00  0.00    +0.000 C 
ATOM     28  O   UNL     1       0.970   9.547  21.426  0.00  0.00    +0.000 OA
ATOM     29  H   UNL     1       0.726  11.789  19.176  0.00  0.00    +0.000 HD
BRANCH  26  30
ATOM     30  C   UNL     1       0.381  12.352  21.210  0.00  0.00    +0.000 C 
BRANCH  30  35
ATOM     31  C   UNL     1      -5.307  12.850  22.362  0.00  0.00    +0.000 C 
ATOM     32  C   UNL     1      -3.846  12.687  22.062  0.00  0.00    +0.000 A 
ATOM     33  C   UNL     1      -2.975  12.128  23.003  0.00  0.00    +0.000 A 
ATOM     34  C   UNL     1      -1.612  12.001  22.717  0.00  0.00    +0.000 A 
ATOM     35  C   UNL     1      -1.095  12.441  21.491  0.00  0.00    +0.000 A 
ATOM     36  C   UNL     1      -1.973  12.979  20.543  0.00  0.00    +0.000 A 
ATOM     37  C   UNL     1      -3.336  13.104  20.827  0.00  0.00    +0.000 A 
ENDBRANCH  30  35
ENDBRANCH  26  30
ENDBRANCH  22  27
ENDBRANCH  21  24
ENDBRANCH   1  21
TORSDOF 8
ENDMDL
MODEL 7
REMARK VINA RESULT:      -8.3      1.083      1.383
REMARK  Name = 
REMARK  9 active torsions:
REMARK  status: ('A' for Active; 'I' for Inactive)
REMARK    1  A    between atoms: C_1  and  C_2
REMARK    2  A    between atoms: C_5  and  C_6
REMARK    3  A    between atoms: C_6  and  N_7
REMARK    4  A    between atoms: C_8  and  C_10
REMARK    5  A    between atoms: N_12  and  C_13
REMARK    6  A    between atoms: C_13  and  C_14
REMARK    7  A    between atoms: C_14  and  C_15
REMARK    8  A    between atoms: C_14  and  N_21
REMARK    9  A    between atoms: N_24  and  C_25
REMARK                            x       y       z     vdW  Elec       q    Type
REMARK                         _______ _______ _______ _____ _____    ______ ____
ROOT
ATOM      1  C   UNL     1       3.268   6.056  19.008  0.00  0.00    +0.000 C 
ENDROOT
BRANCH   1   2
ATOM      2  C   UNL     1       2.533   4.724  19.249  0.00  0.00    +0.000 A 
ATOM      3  C   UNL     1       1.794   4.099  18.232  0.00  0.00    +0.000 A 
ATOM      4  C   UNL     1       1.457   2.742  18.331  0.00  0.00    +0.000 A 
ATOM      5  C   UNL     1       1.857   2.040  19.455  0.00  0.00    +0.000 A 
ATOM      6  N   UNL     1       2.474   2.618  20.499  0.00  0.00    +0.000 NA
ATOM      7  C   UNL     1       2.778   3.934  20.375  0.00  0.00    +0.000 A 
ENDBRANCH   1   2
BRANCH   1   8
ATOM      8  N   UNL     1       4.660   5.961  18.435  0.00  0.00    +0.000 NA
ATOM      9  C   UNL     1       4.699   6.705  17.147  0.00  0.00    +0.000 C 
ATOM     10  C   UNL     1       6.078   6.789  16.484  0.00  0.00    +0.000 C 
ATOM     11  N   UNL     1       6.540   5.422  16.184  0.00  0.00    +0.000 N 
ATOM     12  C   UNL     1       6.541   4.555  17.382  0.00  0.00    +0.000 C 
ATOM     13  C   UNL     1       5.181   4.596  18.178  0.00  0.00    +0.000 C 
BRANCH  11  14
ATOM     14  C   UNL     1       6.640   4.994  14.860  0.00  0.00    +0.000 A 
ATOM     15  C   UNL     1       7.673   5.415  14.007  0.00  0.00    +0.000 A 
ATOM     16  C   UNL     1       7.799   4.942  12.682  0.00  0.00    +0.000 A 
ATOM     17  C   UNL     1       6.890   4.032  12.162  0.00  0.00    +0.000 A 
ATOM     18  C   UNL     1       5.837   3.611  12.961  0.00  0.00    +0.000 A 
ATOM     19  C   UNL     1       5.715   4.103  14.264  0.00  0.00    +0.000 A 
ATOM     20  F   UNL     1       4.607   3.701  14.916  0.00  0.00    +0.000 F 
ENDBRANCH  11  14
ENDBRANCH   1   8
BRANCH   1  21
ATOM     21  C   UNL     1       2.395   7.198  18.360  0.00  0.00    +0.000 C 
BRANCH  21  24
ATOM     22  C   UNL     1       1.446   8.010  20.515  0.00  0.00    +0.000 C 
ATOM     23  O   UNL     1       1.198   6.924  21.013  0.00  0.00    +0.000 OA
ATOM     24  N   UNL     1       1.897   8.243  19.233  0.00  0.00    +0.000 N 
ATOM     25  H   UNL     1       2.194   9.202  19.068  0.00  0.00    +0.000 HD
BRANCH  22  27
ATOM     26  N   UNL     1       0.722  10.357  20.648  0.00  0.00    +0.000 N 
ATOM     27  C   UNL     1       1.308   9.319  21.328  0.00  0.00    +0.000 C 
ATOM     28  O   UNL     1       1.718   9.347  22.481  0.00  0.00    +0.000 OA
ATOM     29  H   UNL     1       0.406  10.179  19.700  0.00  0.00    +0.000 HD
BRANCH  26  30
ATOM     30  C   UNL     1       0.644  11.684  21.202  0.00  0.00    +0.000 C 
BRANCH  30  35
ATOM     31  C   UNL     1      -4.840  12.967  22.693  0.00  0.00    +0.000 C 
ATOM     32  C   UNL     1      -3.419  12.671  22.312  0.00  0.00    +0.000 A 
ATOM     33  C   UNL     1      -2.931  12.995  21.041  0.00  0.00    +0.000 A 
ATOM     34  C   UNL     1      -1.611  12.696  20.692  0.00  0.00    +0.000 A 
ATOM     35  C   UNL     1      -0.760  12.054  21.602  0.00  0.00    +0.000 A 
ATOM     36  C   UNL     1      -1.244  11.750  22.880  0.00  0.00    +0.000 A 
ATOM     37  C   UNL     1      -2.563  12.053  23.230  0.00  0.00    +0.000 A 
ENDBRANCH  30  35
ENDBRANCH  26  30
ENDBRANCH  22  27
ENDBRANCH  21  24
ENDBRANCH   1  21
TORSDOF 8
ENDMDL
MODEL 8
REMARK VINA RESULT:      -8.2      4.257      9.123
REMARK  Name = 
REMARK  9 active torsions:
REMARK  status: ('A' for Active; 'I' for Inactive)
REMARK    1  A    between atoms: C_1  and  C_2
REMARK    2  A    between atoms: C_5  and  C_6
REMARK    3  A    between atoms: C_6  and  N_7
REMARK    4  A    between atoms: C_8  and  C_10
REMARK    5  A    between atoms: N_12  and  C_13
REMARK    6  A    between atoms: C_13  and  C_14
REMARK    7  A    between atoms: C_14  and  C_15
REMARK    8  A    between atoms: C_14  and  N_21
REMARK    9  A    between atoms: N_24  and  C_25
REMARK                            x       y       z     vdW  Elec       q    Type
REMARK                         _______ _______ _______ _____ _____    ______ ____
ROOT
ATOM      1  C   UNL     1       2.866   6.421  17.794  0.00  0.00    +0.000 C 
ENDROOT
BRANCH   1   2
ATOM      2  C   UNL     1       2.432   5.192  18.615  0.00  0.00    +0.000 A 
ATOM      3  C   UNL     1       1.500   4.267  18.117  0.00  0.00    +0.000 A 
ATOM      4  C   UNL     1       1.399   2.988  18.681  0.00  0.00    +0.000 A 
ATOM      5  C   UNL     1       2.226   2.664  19.742  0.00  0.00    +0.000 A 
ATOM      6  N   UNL     1       3.057   3.548  20.320  0.00  0.00    +0.000 NA
ATOM      7  C   UNL     1       3.125   4.779  19.756  0.00  0.00    +0.000 A 
ENDBRANCH   1   2
BRANCH   1   8
ATOM      8  N   UNL     1       2.677   7.767  18.447  0.00  0.00    +0.000 NA
ATOM      9  C   UNL     1       1.504   7.696  19.359  0.00  0.00    +0.000 C 
ATOM     10  C   UNL     1       1.239   8.962  20.179  0.00  0.00    +0.000 C 
ATOM     11  N   UNL     1       0.972  10.077  19.252  0.00  0.00    +0.000 N 
ATOM     12  C   UNL     1       2.061  10.259  18.267  0.00  0.00    +0.000 C 
ATOM     13  C   UNL     1       2.469   8.922  17.539  0.00  0.00    +0.000 C 
BRANCH  11  14
ATOM     14  C   UNL     1      -0.305  10.632  19.176  0.00  0.00    +0.000 A 
ATOM     15  C   UNL     1      -0.793  11.535  20.133  0.00  0.00    +0.000 A 
ATOM     16  C   UNL     1      -2.069  12.133  20.028  0.00  0.00    +0.000 A 
ATOM     17  C   UNL     1      -2.904  11.842  18.959  0.00  0.00    +0.000 A 
ATOM     18  C   UNL     1      -2.473  10.933  18.004  0.00  0.00    +0.000 A 
ATOM     19  C   UNL     1      -1.216  10.335  18.134  0.00  0.00    +0.000 A 
ATOM     20  F   UNL     1      -0.939   9.400  17.204  0.00  0.00    +0.000 F 
ENDBRANCH  11  14
ENDBRANCH   1   8
BRANCH   1  21
ATOM     21  C   UNL     1       4.243   6.272  17.039  0.00  0.00    +0.000 C 
BRANCH  21  24
ATOM     22  C   UNL     1       6.698   6.640  17.234  0.00  0.00    +0.000 C 
ATOM     23  O   UNL     1       6.994   6.447  16.066  0.00  0.00    +0.000 OA
ATOM     24  N   UNL     1       5.457   6.467  17.807  0.00  0.00    +0.000 N 
ATOM     25  H   UNL     1       5.384   6.835  18.753  0.00  0.00    +0.000 HD
BRANCH  22  27
ATOM     26  N   UNL     1       8.019   8.507  18.140  0.00  0.00    +0.000 N 
ATOM     27  C   UNL     1       7.738   7.169  18.251  0.00  0.00    +0.000 C 
ATOM     28  O   UNL     1       8.229   6.387  19.055  0.00  0.00    +0.000 OA
ATOM     29  H   UNL     1       7.513   9.037  17.438  0.00  0.00    +0.000 HD
BRANCH  26  30
ATOM     30  C   UNL     1       9.064   9.133  18.908  0.00  0.00    +0.000 C 
BRANCH  30  35
ATOM     31  C   UNL     1       9.742  14.741  17.486  0.00  0.00    +0.000 C 
ATOM     32  C   UNL     1       9.560  13.307  17.885  0.00  0.00    +0.000 A 
ATOM     33  C   UNL     1      10.527  12.642  18.647  0.00  0.00    +0.000 A 
ATOM     34  C   UNL     1      10.355  11.299  18.995  0.00  0.00    +0.000 A 
ATOM     35  C   UNL     1       9.219  10.593  18.577  0.00  0.00    +0.000 A 
ATOM     36  C   UNL     1       8.242  11.267  17.833  0.00  0.00    +0.000 A 
ATOM     37  C   UNL     1       8.413  12.610  17.488  0.00  0.00    +0.000 A 
ENDBRANCH  30  35
ENDBRANCH  26  30
ENDBRANCH  22  27
ENDBRANCH  21  24
ENDBRANCH   1  21
TORSDOF 8
ENDMDL
MODEL 9
REMARK VINA RESULT:      -8.2      1.350      1.794
REMARK  Name = 
REMARK  9 active torsions:
REMARK  status: ('A' for Active; 'I' for Inactive)
REMARK    1  A    between atoms: C_1  and  C_2
REMARK    2  A    between atoms: C_5  and  C_6
REMARK    3  A    between atoms: C_6  and  N_7
REMARK    4  A    between atoms: C_8  and  C_10
REMARK    5  A    between atoms: N_12  and  C_13
REMARK    6  A    between atoms: C_13  and  C_14
REMARK    7  A    between atoms: C_14  and  C_15
REMARK    8  A    between atoms: C_14  and  N_21
REMARK    9  A    between atoms: N_24  and  C_25
REMARK                            x       y       z     vdW  Elec       q    Type
REMARK                         _______ _______ _______ _____ _____    ______ ____
ROOT
ATOM      1  C   UNL     1       3.119   6.230  18.839  0.00  0.00    +0.000 C 
ENDROOT
BRANCH   1   2
ATOM      2  C   UNL     1       2.375   4.941  19.235  0.00  0.00    +0.000 A 
ATOM      3  C   UNL     1       1.657   4.188  18.292  0.00  0.00    +0.000 A 
ATOM      4  C   UNL     1       1.316   2.856  18.561  0.00  0.00    +0.000 A 
ATOM      5  C   UNL     1       1.690   2.307  19.775  0.00  0.00    +0.000 A 
ATOM      6  N   UNL     1       2.284   3.017  20.749  0.00  0.00    +0.000 NA
ATOM      7  C   UNL     1       2.594   4.305  20.460  0.00  0.00    +0.000 A 
ENDBRANCH   1   2
BRANCH   1   8
ATOM      8  N   UNL     1       4.525   6.063  18.320  0.00  0.00    +0.000 NA
ATOM      9  C   UNL     1       4.652   6.800  17.033  0.00  0.00    +0.000 C 
ATOM     10  C   UNL     1       6.057   6.812  16.424  0.00  0.00    +0.000 C 
ATOM     11  N   UNL     1       6.461   5.422  16.144  0.00  0.00    +0.000 N 
ATOM     12  C   UNL     1       6.371   4.559  17.342  0.00  0.00    +0.000 C 
ATOM     13  C   UNL     1       4.985   4.672  18.085  0.00  0.00    +0.000 C 
BRANCH  11  14
ATOM     14  C   UNL     1       6.590   4.985  14.826  0.00  0.00    +0.000 A 
ATOM     15  C   UNL     1       7.646   5.394  13.996  0.00  0.00    +0.000 A 
ATOM     16  C   UNL     1       7.801   4.911  12.677  0.00  0.00    +0.000 A 
ATOM     17  C   UNL     1       6.899   4.004  12.141  0.00  0.00    +0.000 A 
ATOM     18  C   UNL     1       5.824   3.595  12.916  0.00  0.00    +0.000 A 
ATOM     19  C   UNL     1       5.674   4.096  14.213  0.00  0.00    +0.000 A 
ATOM     20  F   UNL     1       4.547   3.705  14.840  0.00  0.00    +0.000 F 
ENDBRANCH  11  14
ENDBRANCH   1   8
BRANCH   1  21
ATOM     21  C   UNL     1       2.265   7.275  18.022  0.00  0.00    +0.000 C 
BRANCH  21  24
ATOM     22  C   UNL     1       1.175   9.498  18.284  0.00  0.00    +0.000 C 
ATOM     23  O   UNL     1       0.250   9.329  17.506  0.00  0.00    +0.000 OA
ATOM     24  N   UNL     1       2.232   8.642  18.503  0.00  0.00    +0.000 N 
ATOM     25  H   UNL     1       2.807   8.893  19.304  0.00  0.00    +0.000 HD
BRANCH  22  27
ATOM     26  N   UNL     1       0.652  10.605  20.417  0.00  0.00    +0.000 N 
ATOM     27  C   UNL     1       1.246  10.752  19.189  0.00  0.00    +0.000 C 
ATOM     28  O   UNL     1       1.802  11.757  18.766  0.00  0.00    +0.000 OA
ATOM     29  H   UNL     1       0.250   9.701  20.640  0.00  0.00    +0.000 HD
BRANCH  26  30
ATOM     30  C   UNL     1       0.500  11.711  21.327  0.00  0.00    +0.000 C 
BRANCH  30  35
ATOM     31  C   UNL     1      -5.049  13.002  22.545  0.00  0.00    +0.000 C 
ATOM     32  C   UNL     1      -3.627  12.635  22.234  0.00  0.00    +0.000 A 
ATOM     33  C   UNL     1      -2.770  12.162  23.232  0.00  0.00    +0.000 A 
ATOM     34  C   UNL     1      -1.442  11.843  22.932  0.00  0.00    +0.000 A 
ATOM     35  C   UNL     1      -0.945  12.004  21.632  0.00  0.00    +0.000 A 
ATOM     36  C   UNL     1      -1.812  12.457  20.630  0.00  0.00    +0.000 A 
ATOM     37  C   UNL     1      -3.140  12.773  20.929  0.00  0.00    +0.000 A 
ENDBRANCH  30  35
ENDBRANCH  26  30
ENDBRANCH  22  27
ENDBRANCH  21  24
ENDBRANCH   1  21
TORSDOF 8
ENDMDL
