MODEL 1
REMARK VINA RESULT:      -6.9      0.000      0.000
REMARK  Name = 
REMARK  6 active torsions:
REMARK  status: ('A' for Active; 'I' for Inactive)
REMARK    1  A    between atoms: C_1  and  C_2
REMARK    2  A    between atoms: C_2  and  C_3
REMARK    3  A    between atoms: C_2  and  C_4
REMARK    4  A    between atoms: C_2  and  O_5
REMARK    5  A    between atoms: O_5  and  C_6
REMARK    6  A    between atoms: N_8  and  C_9
REMARK                            x       y       z     vdW  Elec       q    Type
REMARK                         _______ _______ _______ _____ _____    ______ ____
ROOT
ATOM      1  C   UNL     1       5.411   3.752  17.404  0.00  0.00    +0.000 C 
ATOM      2  C   UNL     1       5.263   4.196  15.926  0.00  0.00    +0.000 C 
ATOM      3  C   UNL     1       6.577   4.741  15.334  0.00  0.00    +0.000 C 
ATOM      4  C   UNL     1       7.076   5.985  16.100  0.00  0.00    +0.000 C 
ATOM      5  C   UNL     1       7.037   5.726  17.560  0.00  0.00    +0.000 A 
ATOM      6  C   UNL     1       7.728   6.296  18.640  0.00  0.00    +0.000 A 
ATOM      7  N   UNL     1       7.433   5.698  19.800  0.00  0.00    +0.000 NA
ATOM      8  N   UNL     1       6.562   4.726  19.454  0.00  0.00    +0.000 N 
ATOM      9  C   UNL     1       6.259   4.737  18.126  0.00  0.00    +0.000 A 
ATOM     10  H   UNL     1       6.235   4.077  20.166  0.00  0.00    +0.000 HD
ENDROOT
BRANCH   1  13
ATOM     11  C   UNL     1       3.908   2.825  19.114  0.00  0.00    +0.000 C 
ATOM     12  O   UNL     1       4.809   2.313  19.763  0.00  0.00    +0.000 OA
ATOM     13  N   UNL     1       4.117   3.620  18.029  0.00  0.00    +0.000 N 
ATOM     14  H   UNL     1       3.313   4.107  17.661  0.00  0.00    +0.000 HD
BRANCH  11  15
ATOM     15  O   UNL     1       2.580   2.706  19.352  0.00  0.00    +0.000 OA
BRANCH  15  17
ATOM     16  C   UNL     1       2.601   4.820  20.588  0.00  0.00    +0.000 C 
ATOM     17  C   UNL     1       1.974   3.428  20.460  0.00  0.00    +0.000 C 
ATOM     18  C   UNL     1       2.042   2.640  21.775  0.00  0.00    +0.000 C 
ATOM     19  C   UNL     1       0.489   3.597  20.093  0.00  0.00    +0.000 C 
ENDBRANCH  15  17
ENDBRANCH  11  15
ENDBRANCH   1  13
TORSDOF 3
ENDMDL
MODEL 2
REMARK VINA RESULT:      -6.8      1.058      1.451
REMARK  Name = 
REMARK  6 active torsions:
REMARK  status: ('A' for Active; 'I' for Inactive)
REMARK    1  A    between atoms: C_1  and  C_2
REMARK    2  A    between atoms: C_2  and  C_3
REMARK    3  A    between atoms: C_2  and  C_4
REMARK    4  A    between atoms: C_2  and  O_5
REMARK    5  A    between atoms: O_5  and  C_6
REMARK    6  A    between atoms: N_8  and  C_9
REMARK                            x       y       z     vdW  Elec       q    Type
REMARK                         _______ _______ _______ _____ _____    ______ ____
ROOT
ATOM      1  C   UNL     1       5.381   4.023  18.038  0.00  0.00    +0.000 C 
ATOM      2  C   UNL     1       4.352   4.427  16.951  0.00  0.00    +0.000 C 
ATOM      3  C   UNL     1       4.996   5.184  15.774  0.00  0.00    +0.000 C 
ATOM      4  C   UNL     1       5.661   6.500  16.235  0.00  0.00    +0.000 C 
ATOM      5  C   UNL     1       6.501   6.245  17.430  0.00  0.00    +0.000 A 
ATOM      6  C   UNL     1       7.597   6.931  17.978  0.00  0.00    +0.000 A 
ATOM      7  N   UNL     1       8.108   6.298  19.040  0.00  0.00    +0.000 NA
ATOM      8  N   UNL     1       7.345   5.190  19.159  0.00  0.00    +0.000 N 
ATOM      9  C   UNL     1       6.338   5.142  18.242  0.00  0.00    +0.000 A 
ATOM     10  H   UNL     1       7.582   4.499  19.867  0.00  0.00    +0.000 HD
ENDROOT
BRANCH   1  13
ATOM     11  C   UNL     1       3.964   2.547  19.400  0.00  0.00    +0.000 C 
ATOM     12  O   UNL     1       3.943   1.647  18.573  0.00  0.00    +0.000 OA
ATOM     13  N   UNL     1       4.713   3.677  19.270  0.00  0.00    +0.000 N 
ATOM     14  H   UNL     1       4.768   4.281  20.075  0.00  0.00    +0.000 HD
BRANCH  11  15
ATOM     15  O   UNL     1       3.273   2.583  20.566  0.00  0.00    +0.000 OA
BRANCH  15  17
ATOM     16  C   UNL     1       1.147   2.822  19.375  0.00  0.00    +0.000 C 
ATOM     17  C   UNL     1       1.962   3.210  20.613  0.00  0.00    +0.000 C 
ATOM     18  C   UNL     1       2.051   4.732  20.793  0.00  0.00    +0.000 C 
ATOM     19  C   UNL     1       1.262   2.634  21.856  0.00  0.00    +0.000 C 
ENDBRANCH  15  17
ENDBRANCH  11  15
ENDBRANCH   1  13
TORSDOF 3
ENDMDL
MODEL 3
REMARK VINA RESULT:      -6.8      0.068      1.053
REMARK  Name = 
REMARK  6 active torsions:
REMARK  status: ('A' for Active; 'I' for Inactive)
REMARK    1  A    between atoms: C_1  and  C_2
REMARK    2  A    between atoms: C_2  and  C_3
REMARK    3  A    between atoms: C_2  and  C_4
REMARK    4  A    between atoms: C_2  and  O_5
REMARK    5  A    between atoms: O_5  and  C_6
REMARK    6  A    between atoms: N_8  and  C_9
REMARK                            x       y       z     vdW  Elec       q    Type
REMARK                         _______ _______ _______ _____ _____    ______ ____
ROOT
ATOM      1  C   UNL     1       5.413   3.695  17.408  0.00  0.00    +0.000 C 
ATOM      2  C   UNL     1       5.244   4.132  15.931  0.00  0.00    +0.000 C 
ATOM      3  C   UNL     1       6.542   4.702  15.326  0.00  0.00    +0.000 C 
ATOM      4  C   UNL     1       7.023   5.958  16.085  0.00  0.00    +0.000 C 
ATOM      5  C   UNL     1       7.001   5.700  17.546  0.00  0.00    +0.000 A 
ATOM      6  C   UNL     1       7.690   6.287  18.620  0.00  0.00    +0.000 A 
ATOM      7  N   UNL     1       7.416   5.685  19.783  0.00  0.00    +0.000 NA
ATOM      8  N   UNL     1       6.562   4.695  19.446  0.00  0.00    +0.000 N 
ATOM      9  C   UNL     1       6.247   4.698  18.120  0.00  0.00    +0.000 A 
ATOM     10  H   UNL     1       6.254   4.042  20.162  0.00  0.00    +0.000 HD
ENDROOT
BRANCH   1  13
ATOM     11  C   UNL     1       3.948   2.758  19.145  0.00  0.00    +0.000 C 
ATOM     12  O   UNL     1       4.867   2.283  19.797  0.00  0.00    +0.000 OA
ATOM     13  N   UNL     1       4.127   3.538  18.044  0.00  0.00    +0.000 N 
ATOM     14  H   UNL     1       3.308   3.995  17.673  0.00  0.00    +0.000 HD
BRANCH  11  15
ATOM     15  O   UNL     1       2.625   2.607  19.395  0.00  0.00    +0.000 OA
BRANCH  15  17
ATOM     16  C   UNL     1       0.487   3.608  20.047  0.00  0.00    +0.000 C 
ATOM     17  C   UNL     1       1.973   3.447  20.387  0.00  0.00    +0.000 C 
ATOM     18  C   UNL     1       2.677   4.800  20.557  0.00  0.00    +0.000 C 
ATOM     19  C   UNL     1       2.086   2.690  21.721  0.00  0.00    +0.000 C 
ENDBRANCH  15  17
ENDBRANCH  11  15
ENDBRANCH   1  13
TORSDOF 3
ENDMDL
MODEL 4
REMARK VINA RESULT:      -6.7      1.068      1.517
REMARK  Name = 
REMARK  6 active torsions:
REMARK  status: ('A' for Active; 'I' for Inactive)
REMARK    1  A    between atoms: C_1  and  C_2
REMARK    2  A    between atoms: C_2  and  C_3
REMARK    3  A    between atoms: C_2  and  C_4
REMARK    4  A    between atoms: C_2  and  O_5
REMARK    5  A    between atoms: O_5  and  C_6
REMARK    6  A    between atoms: N_8  and  C_9
REMARK                            x       y       z     vdW  Elec       q    Type
REMARK                         _______ _______ _______ _____ _____    ______ ____
ROOT
ATOM      1  C   UNL     1       5.454   3.998  18.060  0.00  0.00    +0.000 C 
ATOM      2  C   UNL     1       4.399   4.310  16.970  0.00  0.00    +0.000 C 
ATOM      3  C   UNL     1       4.999   5.040  15.752  0.00  0.00    +0.000 C 
ATOM      4  C   UNL     1       5.613   6.401  16.147  0.00  0.00    +0.000 C 
ATOM      5  C   UNL     1       6.476   6.234  17.342  0.00  0.00    +0.000 A 
ATOM      6  C   UNL     1       7.548   6.988  17.846  0.00  0.00    +0.000 A 
ATOM      7  N   UNL     1       8.096   6.424  18.929  0.00  0.00    +0.000 NA
ATOM      8  N   UNL     1       7.380   5.292  19.105  0.00  0.00    +0.000 N 
ATOM      9  C   UNL     1       6.367   5.163  18.204  0.00  0.00    +0.000 A 
ATOM     10  H   UNL     1       7.652   4.643  19.840  0.00  0.00    +0.000 HD
ENDROOT
BRANCH   1  13
ATOM     11  C   UNL     1       4.078   2.548  19.491  0.00  0.00    +0.000 C 
ATOM     12  O   UNL     1       4.050   1.625  18.689  0.00  0.00    +0.000 OA
ATOM     13  N   UNL     1       4.814   3.679  19.314  0.00  0.00    +0.000 N 
ATOM     14  H   UNL     1       4.879   4.306  20.102  0.00  0.00    +0.000 HD
BRANCH  11  15
ATOM     15  O   UNL     1       3.410   2.609  20.668  0.00  0.00    +0.000 OA
BRANCH  15  17
ATOM     16  C   UNL     1       1.292   2.556  21.896  0.00  0.00    +0.000 C 
ATOM     17  C   UNL     1       2.060   3.147  20.709  0.00  0.00    +0.000 C 
ATOM     18  C   UNL     1       1.314   2.949  19.382  0.00  0.00    +0.000 C 
ATOM     19  C   UNL     1       2.214   4.661  20.936  0.00  0.00    +0.000 C 
ENDBRANCH  15  17
ENDBRANCH  11  15
ENDBRANCH   1  13
TORSDOF 3
ENDMDL
MODEL 5
REMARK VINA RESULT:      -6.6      2.209      5.449
REMARK  Name = 
REMARK  6 active torsions:
REMARK  status: ('A' for Active; 'I' for Inactive)
REMARK    1  A    between atoms: C_1  and  C_2
REMARK    2  A    between atoms: C_2  and  C_3
REMARK    3  A    between atoms: C_2  and  C_4
REMARK    4  A    between atoms: C_2  and  O_5
REMARK    5  A    between atoms: O_5  and  C_6
REMARK    6  A    between atoms: N_8  and  C_9
REMARK                            x       y       z     vdW  Elec       q    Type
REMARK                         _______ _______ _______ _____ _____    ______ ____
ROOT
ATOM      1  C   UNL     1       1.958   3.797  17.794  0.00  0.00    +0.000 C 
ATOM      2  C   UNL     1       1.698   2.598  18.740  0.00  0.00    +0.000 C 
ATOM      3  C   UNL     1       0.786   2.963  19.927  0.00  0.00    +0.000 C 
ATOM      4  C   UNL     1       1.408   4.069  20.808  0.00  0.00    +0.000 C 
ATOM      5  C   UNL     1       1.897   5.176  19.951  0.00  0.00    +0.000 A 
ATOM      6  C   UNL     1       2.143   6.534  20.211  0.00  0.00    +0.000 A 
ATOM      7  N   UNL     1       2.512   7.199  19.111  0.00  0.00    +0.000 NA
ATOM      8  N   UNL     1       2.484   6.263  18.138  0.00  0.00    +0.000 N 
ATOM      9  C   UNL     1       2.166   5.024  18.607  0.00  0.00    +0.000 A 
ATOM     10  H   UNL     1       2.665   6.542  17.177  0.00  0.00    +0.000 HD
ENDROOT
BRANCH   1  13
ATOM     11  C   UNL     1       4.376   3.622  17.388  0.00  0.00    +0.000 C 
ATOM     12  O   UNL     1       4.677   3.733  18.568  0.00  0.00    +0.000 OA
ATOM     13  N   UNL     1       3.093   3.538  16.941  0.00  0.00    +0.000 N 
ATOM     14  H   UNL     1       2.966   3.301  15.969  0.00  0.00    +0.000 HD
BRANCH  11  15
ATOM     15  O   UNL     1       5.236   3.558  16.342  0.00  0.00    +0.000 OA
BRANCH  15  17
ATOM     16  C   UNL     1       7.329   4.642  17.004  0.00  0.00    +0.000 C 
ATOM     17  C   UNL     1       6.122   4.676  16.061  0.00  0.00    +0.000 C 
ATOM     18  C   UNL     1       5.390   6.024  16.108  0.00  0.00    +0.000 C 
ATOM     19  C   UNL     1       6.623   4.467  14.622  0.00  0.00    +0.000 C 
ENDBRANCH  15  17
ENDBRANCH  11  15
ENDBRANCH   1  13
TORSDOF 3
ENDMDL
MODEL 6
REMARK VINA RESULT:      -6.6      0.081      1.062
REMARK  Name = 
REMARK  6 active torsions:
REMARK  status: ('A' for Active; 'I' for Inactive)
REMARK    1  A    between atoms: C_1  and  C_2
REMARK    2  A    between atoms: C_2  and  C_3
REMARK    3  A    between atoms: C_2  and  C_4
REMARK    4  A    between atoms: C_2  and  O_5
REMARK    5  A    between atoms: O_5  and  C_6
REMARK    6  A    between atoms: N_8  and  C_9
REMARK                            x       y       z     vdW  Elec       q    Type
REMARK                         _______ _______ _______ _____ _____    ______ ____
ROOT
ATOM      1  C   UNL     1       5.411   3.720  17.418  0.00  0.00    +0.000 C 
ATOM      2  C   UNL     1       5.249   4.165  15.943  0.00  0.00    +0.000 C 
ATOM      3  C   UNL     1       6.554   4.726  15.344  0.00  0.00    +0.000 C 
ATOM      4  C   UNL     1       7.045   5.973  16.110  0.00  0.00    +0.000 C 
ATOM      5  C   UNL     1       7.016   5.710  17.569  0.00  0.00    +0.000 A 
ATOM      6  C   UNL     1       7.708   6.285  18.647  0.00  0.00    +0.000 A 
ATOM      7  N   UNL     1       7.427   5.681  19.807  0.00  0.00    +0.000 NA
ATOM      8  N   UNL     1       6.563   4.700  19.464  0.00  0.00    +0.000 N 
ATOM      9  C   UNL     1       6.252   4.712  18.138  0.00  0.00    +0.000 A 
ATOM     10  H   UNL     1       6.248   4.046  20.177  0.00  0.00    +0.000 HD
ENDROOT
BRANCH   1  13
ATOM     11  C   UNL     1       3.923   2.755  19.121  0.00  0.00    +0.000 C 
ATOM     12  O   UNL     1       4.830   2.230  19.751  0.00  0.00    +0.000 OA
ATOM     13  N   UNL     1       4.121   3.573  18.051  0.00  0.00    +0.000 N 
ATOM     14  H   UNL     1       3.314   4.066  17.700  0.00  0.00    +0.000 HD
BRANCH  11  15
ATOM     15  O   UNL     1       2.596   2.629  19.367  0.00  0.00    +0.000 OA
BRANCH  15  17
ATOM     16  C   UNL     1       2.128   2.681  21.770  0.00  0.00    +0.000 C 
ATOM     17  C   UNL     1       1.979   3.407  20.429  0.00  0.00    +0.000 C 
ATOM     18  C   UNL     1       0.516   3.755  20.121  0.00  0.00    +0.000 C 
ATOM     19  C   UNL     1       2.767   4.726  20.500  0.00  0.00    +0.000 C 
ENDBRANCH  15  17
ENDBRANCH  11  15
ENDBRANCH   1  13
TORSDOF 3
ENDMDL
MODEL 7
REMARK VINA RESULT:      -6.6      2.227      5.580
REMARK  Name = 
REMARK  6 active torsions:
REMARK  status: ('A' for Active; 'I' for Inactive)
REMARK    1  A    between atoms: C_1  and  C_2
REMARK    2  A    between atoms: C_2  and  C_3
REMARK    3  A    between atoms: C_2  and  C_4
REMARK    4  A    between atoms: C_2  and  O_5
REMARK    5  A    between atoms: O_5  and  C_6
REMARK    6  A    between atoms: N_8  and  C_9
REMARK                            x       y       z     vdW  Elec       q    Type
REMARK                         _______ _______ _______ _____ _____    ______ ____
ROOT
ATOM      1  C   UNL     1       2.521   5.218  19.195  0.00  0.00    +0.000 C 
ATOM      2  C   UNL     1       2.133   4.598  17.829  0.00  0.00    +0.000 C 
ATOM      3  C   UNL     1       0.866   3.726  17.910  0.00  0.00    +0.000 C 
ATOM      4  C   UNL     1       1.052   2.535  18.876  0.00  0.00    +0.000 C 
ATOM      5  C   UNL     1       1.640   3.011  20.151  0.00  0.00    +0.000 A 
ATOM      6  C   UNL     1       1.630   2.483  21.452  0.00  0.00    +0.000 A 
ATOM      7  N   UNL     1       2.233   3.293  22.330  0.00  0.00    +0.000 NA
ATOM      8  N   UNL     1       2.615   4.354  21.586  0.00  0.00    +0.000 N 
ATOM      9  C   UNL     1       2.322   4.205  20.264  0.00  0.00    +0.000 A 
ATOM     10  H   UNL     1       3.046   5.152  22.047  0.00  0.00    +0.000 HD
ENDROOT
BRANCH   1  13
ATOM     11  C   UNL     1       4.943   4.858  18.976  0.00  0.00    +0.000 C 
ATOM     12  O   UNL     1       4.833   3.694  18.619  0.00  0.00    +0.000 OA
ATOM     13  N   UNL     1       3.885   5.692  19.171  0.00  0.00    +0.000 N 
ATOM     14  H   UNL     1       4.096   6.667  19.321  0.00  0.00    +0.000 HD
BRANCH  11  15
ATOM     15  O   UNL     1       6.102   5.515  19.227  0.00  0.00    +0.000 OA
BRANCH  15  17
ATOM     16  C   UNL     1       6.270   6.575  17.026  0.00  0.00    +0.000 C 
ATOM     17  C   UNL     1       7.012   5.823  18.136  0.00  0.00    +0.000 C 
ATOM     18  C   UNL     1       7.730   4.573  17.607  0.00  0.00    +0.000 C 
ATOM     19  C   UNL     1       8.080   6.759  18.728  0.00  0.00    +0.000 C 
ENDBRANCH  15  17
ENDBRANCH  11  15
ENDBRANCH   1  13
TORSDOF 3
ENDMDL
MODEL 8
REMARK VINA RESULT:      -6.6      1.093      1.170
REMARK  Name = 
REMARK  6 active torsions:
REMARK  status: ('A' for Active; 'I' for Inactive)
REMARK    1  A    between atoms: C_1  and  C_2
REMARK    2  A    between atoms: C_2  and  C_3
REMARK    3  A    between atoms: C_2  and  C_4
REMARK    4  A    between atoms: C_2  and  O_5
REMARK    5  A    between atoms: O_5  and  C_6
REMARK    6  A    between atoms: N_8  and  C_9
REMARK                            x       y       z     vdW  Elec       q    Type
REMARK                         _______ _______ _______ _____ _____    ______ ____
ROOT
ATOM      1  C   UNL     1       5.469   3.915  18.152  0.00  0.00    +0.000 C 
ATOM      2  C   UNL     1       4.406   4.162  17.052  0.00  0.00    +0.000 C 
ATOM      3  C   UNL     1       4.992   4.846  15.802  0.00  0.00    +0.000 C 
ATOM      4  C   UNL     1       5.586   6.233  16.133  0.00  0.00    +0.000 C 
ATOM      5  C   UNL     1       6.454   6.133  17.332  0.00  0.00    +0.000 A 
ATOM      6  C   UNL     1       7.515   6.926  17.799  0.00  0.00    +0.000 A 
ATOM      7  N   UNL     1       8.073   6.419  18.904  0.00  0.00    +0.000 NA
ATOM      8  N   UNL     1       7.376   5.285  19.133  0.00  0.00    +0.000 N 
ATOM      9  C   UNL     1       6.363   5.100  18.241  0.00  0.00    +0.000 A 
ATOM     10  H   UNL     1       7.660   4.675  19.896  0.00  0.00    +0.000 HD
ENDROOT
BRANCH   1  13
ATOM     11  C   UNL     1       4.116   2.511  19.649  0.00  0.00    +0.000 C 
ATOM     12  O   UNL     1       4.097   1.554  18.888  0.00  0.00    +0.000 OA
ATOM     13  N   UNL     1       4.836   3.643  19.421  0.00  0.00    +0.000 N 
ATOM     14  H   UNL     1       4.895   4.305  20.180  0.00  0.00    +0.000 HD
BRANCH  11  15
ATOM     15  O   UNL     1       3.450   2.615  20.825  0.00  0.00    +0.000 OA
BRANCH  15  17
ATOM     16  C   UNL     1       2.118   4.669  20.896  0.00  0.00    +0.000 C 
ATOM     17  C   UNL     1       2.093   3.137  20.847  0.00  0.00    +0.000 C 
ATOM     18  C   UNL     1       1.256   2.536  21.984  0.00  0.00    +0.000 C 
ATOM     19  C   UNL     1       1.452   2.705  19.517  0.00  0.00    +0.000 C 
ENDBRANCH  15  17
ENDBRANCH  11  15
ENDBRANCH   1  13
TORSDOF 3
ENDMDL
MODEL 9
REMARK VINA RESULT:      -6.6      2.782      5.760
REMARK  Name = 
REMARK  6 active torsions:
REMARK  status: ('A' for Active; 'I' for Inactive)
REMARK    1  A    between atoms: C_1  and  C_2
REMARK    2  A    between atoms: C_2  and  C_3
REMARK    3  A    between atoms: C_2  and  C_4
REMARK    4  A    between atoms: C_2  and  O_5
REMARK    5  A    between atoms: O_5  and  C_6
REMARK    6  A    between atoms: N_8  and  C_9
REMARK                            x       y       z     vdW  Elec       q    Type
REMARK                         _______ _______ _______ _____ _____    ______ ____
ROOT
ATOM      1  C   UNL     1       4.365   5.688  18.294  0.00  0.00    +0.000 C 
ATOM      2  C   UNL     1       3.039   6.488  18.359  0.00  0.00    +0.000 C 
ATOM      3  C   UNL     1       2.372   6.421  19.746  0.00  0.00    +0.000 C 
ATOM      4  C   UNL     1       2.009   4.972  20.138  0.00  0.00    +0.000 C 
ATOM      5  C   UNL     1       3.169   4.081  19.891  0.00  0.00    +0.000 A 
ATOM      6  C   UNL     1       3.534   2.835  20.425  0.00  0.00    +0.000 A 
ATOM      7  N   UNL     1       4.719   2.417  19.965  0.00  0.00    +0.000 NA
ATOM      8  N   UNL     1       5.122   3.413  19.147  0.00  0.00    +0.000 N 
ATOM      9  C   UNL     1       4.200   4.410  19.035  0.00  0.00    +0.000 A 
ATOM     10  H   UNL     1       6.044   3.361  18.719  0.00  0.00    +0.000 HD
ENDROOT
BRANCH   1  13
ATOM     11  C   UNL     1       5.665   6.224  16.278  0.00  0.00    +0.000 C 
ATOM     12  O   UNL     1       6.371   7.051  16.838  0.00  0.00    +0.000 OA
ATOM     13  N   UNL     1       4.750   5.450  16.923  0.00  0.00    +0.000 N 
ATOM     14  H   UNL     1       4.332   4.702  16.391  0.00  0.00    +0.000 HD
BRANCH  11  15
ATOM     15  O   UNL     1       5.669   5.930  14.955  0.00  0.00    +0.000 OA
BRANCH  15  17
ATOM     16  C   UNL     1       7.667   5.396  13.643  0.00  0.00    +0.000 C 
ATOM     17  C   UNL     1       6.493   4.841  14.457  0.00  0.00    +0.000 C 
ATOM     18  C   UNL     1       5.677   3.810  13.664  0.00  0.00    +0.000 C 
ATOM     19  C   UNL     1       7.056   4.133  15.701  0.00  0.00    +0.000 C 
ENDBRANCH  15  17
ENDBRANCH  11  15
ENDBRANCH   1  13
TORSDOF 3
ENDMDL
