MODEL 1
REMARK VINA RESULT:      -8.1      0.000      0.000
REMARK  Name = 
REMARK  5 active torsions:
REMARK  status: ('A' for Active; 'I' for Inactive)
REMARK    1  A    between atoms: C_6  and  C_7
REMARK    2  A    between atoms: C_7  and  C_8
REMARK    3  A    between atoms: C_8  and  C_9
REMARK    4  A    between atoms: N_14  and  C_15
REMARK    5  A    between atoms: C_18  and  C_19
REMARK                            x       y       z     vdW  Elec       q    Type
REMARK                         _______ _______ _______ _____ _____    ______ ____
ROOT
ATOM      1  C   UNL     1       2.350   3.421  18.288  0.00  0.00    +0.000 C 
ATOM      2  O   UNL     1       2.020   2.412  18.912  0.00  0.00    +0.000 OA
ATOM      3  N   UNL     1       2.101   4.693  18.764  0.00  0.00    +0.000 N 
ATOM      4  C   UNL     1       1.433   4.829  20.060  0.00  0.00    +0.000 C 
ATOM      5  C   UNL     1       2.026   5.984  20.880  0.00  0.00    +0.000 C 
ATOM      6  N   UNL     1       2.017   7.226  20.086  0.00  0.00    +0.000 N 
ATOM      7  C   UNL     1       2.678   7.127  18.774  0.00  0.00    +0.000 C 
ATOM      8  C   UNL     1       2.137   5.930  17.968  0.00  0.00    +0.000 C 
ENDROOT
BRANCH   6   9
ATOM      9  C   UNL     1       1.369   8.357  20.536  0.00  0.00    +0.000 A 
ATOM     10  C   UNL     1       1.019   8.503  21.889  0.00  0.00    +0.000 A 
ATOM     11  C   UNL     1       0.318   9.615  22.365  0.00  0.00    +0.000 A 
ATOM     12  C   UNL     1      -0.049  10.643  21.496  0.00  0.00    +0.000 A 
ATOM     13  C   UNL     1       0.311  10.533  20.149  0.00  0.00    +0.000 A 
ATOM     14  C   UNL     1       1.011   9.409  19.685  0.00  0.00    +0.000 A 
BRANCH  12  15
ATOM     15  C   UNL     1      -0.815  11.841  21.991  0.00  0.00    +0.000 C 
ATOM     16  F   UNL     1      -0.203  13.029  21.722  0.00  0.00    +0.000 F 
ATOM     17  F   UNL     1      -2.056  11.931  21.435  0.00  0.00    +0.000 F 
ATOM     18  F   UNL     1      -1.010  11.819  23.337  0.00  0.00    +0.000 F 
ENDBRANCH  12  15
ENDBRANCH   6   9
BRANCH   1  19
ATOM     19  C   UNL     1       3.133   3.313  16.993  0.00  0.00    +0.000 C 
BRANCH  19  20
ATOM     20  C   UNL     1       4.646   3.273  17.217  0.00  0.00    +0.000 C 
BRANCH  20  26
ATOM     21  O   UNL     1       7.233   5.234  14.024  0.00  0.00    +0.000 OA
ATOM     22  C   UNL     1       6.836   4.948  15.141  0.00  0.00    +0.000 C 
ATOM     23  N   UNL     1       7.604   4.765  16.238  0.00  0.00    +0.000 N 
ATOM     24  C   UNL     1       6.833   4.596  17.343  0.00  0.00    +0.000 C 
ATOM     25  O   UNL     1       7.262   4.476  18.482  0.00  0.00    +0.000 OA
ATOM     26  C   UNL     1       5.360   4.589  16.919  0.00  0.00    +0.000 C 
ATOM     27  N   UNL     1       5.520   4.788  15.497  0.00  0.00    +0.000 N 
ATOM     28  H   UNL     1       8.605   4.855  16.248  0.00  0.00    +0.000 HD
ATOM     29  H   UNL     1       4.777   5.016  14.848  0.00  0.00    +0.000 HD
ENDBRANCH  20  26
ENDBRANCH  19  20
ENDBRANCH   1  19
TORSDOF 5
ENDMDL
MODEL 2
REMARK VINA RESULT:      -8.0      1.044      1.297
REMARK  Name = 
REMARK  5 active torsions:
REMARK  status: ('A' for Active; 'I' for Inactive)
REMARK    1  A    between atoms: C_6  and  C_7
REMARK    2  A    between atoms: C_7  and  C_8
REMARK    3  A    between atoms: C_8  and  C_9
REMARK    4  A    between atoms: N_14  and  C_15
REMARK    5  A    between atoms: C_18  and  C_19
REMARK                            x       y       z     vdW  Elec       q    Type
REMARK                         _______ _______ _______ _____ _____    ______ ____
ROOT
ATOM      1  C   UNL     1       1.960   2.856  18.841  0.00  0.00    +0.000 C 
ATOM      2  O   UNL     1       1.689   1.983  19.667  0.00  0.00    +0.000 OA
ATOM      3  N   UNL     1       1.823   4.201  19.123  0.00  0.00    +0.000 N 
ATOM      4  C   UNL     1       1.351   4.586  20.454  0.00  0.00    +0.000 C 
ATOM      5  C   UNL     1       2.092   5.825  20.978  0.00  0.00    +0.000 C 
ATOM      6  N   UNL     1       2.011   6.918  19.991  0.00  0.00    +0.000 N 
ATOM      7  C   UNL     1       2.477   6.567  18.639  0.00  0.00    +0.000 C 
ATOM      8  C   UNL     1       1.787   5.286  18.129  0.00  0.00    +0.000 C 
ENDROOT
BRANCH   6   9
ATOM      9  C   UNL     1       1.472   8.142  20.325  0.00  0.00    +0.000 A 
ATOM     10  C   UNL     1       1.050   8.417  21.636  0.00  0.00    +0.000 A 
ATOM     11  C   UNL     1       0.454   9.630  21.992  0.00  0.00    +0.000 A 
ATOM     12  C   UNL     1       0.271  10.633  21.040  0.00  0.00    +0.000 A 
ATOM     13  C   UNL     1       0.707  10.393  19.732  0.00  0.00    +0.000 A 
ATOM     14  C   UNL     1       1.299   9.168  19.389  0.00  0.00    +0.000 A 
BRANCH  12  15
ATOM     15  C   UNL     1      -0.382  11.940  21.404  0.00  0.00    +0.000 C 
ATOM     16  F   UNL     1      -0.443  12.162  22.747  0.00  0.00    +0.000 F 
ATOM     17  F   UNL     1       0.275  13.014  20.881  0.00  0.00    +0.000 F 
ATOM     18  F   UNL     1      -1.662  12.030  20.953  0.00  0.00    +0.000 F 
ENDBRANCH  12  15
ENDBRANCH   6   9
BRANCH   1  19
ATOM     19  C   UNL     1       2.547   2.492  17.491  0.00  0.00    +0.000 C 
BRANCH  19  20
ATOM     20  C   UNL     1       4.078   2.487  17.492  0.00  0.00    +0.000 C 
BRANCH  20  26
ATOM     21  O   UNL     1       7.891   4.491  16.019  0.00  0.00    +0.000 OA
ATOM     22  C   UNL     1       6.924   4.284  16.733  0.00  0.00    +0.000 C 
ATOM     23  N   UNL     1       6.882   4.418  18.077  0.00  0.00    +0.000 N 
ATOM     24  C   UNL     1       5.616   4.244  18.538  0.00  0.00    +0.000 C 
ATOM     25  O   UNL     1       5.275   4.373  19.705  0.00  0.00    +0.000 OA
ATOM     26  C   UNL     1       4.710   3.870  17.360  0.00  0.00    +0.000 C 
ATOM     27  N   UNL     1       5.682   3.902  16.292  0.00  0.00    +0.000 N 
ATOM     28  H   UNL     1       7.659   4.716  18.640  0.00  0.00    +0.000 HD
ATOM     29  H   UNL     1       5.469   3.877  15.302  0.00  0.00    +0.000 HD
ENDBRANCH  20  26
ENDBRANCH  19  20
ENDBRANCH   1  19
TORSDOF 5
ENDMDL
MODEL 3
REMARK VINA RESULT:      -7.9      2.143      3.327
REMARK  Name = 
REMARK  5 active torsions:
REMARK  status: ('A' for Active; 'I' for Inactive)
REMARK    1  A    between atoms: C_6  and  C_7
REMARK    2  A    between atoms: C_7  and  C_8
REMARK    3  A    between atoms: C_8  and  C_9
REMARK    4  A    between atoms: N_14  and  C_15
REMARK    5  A    between atoms: C_18  and  C_19
REMARK                            x       y       z     vdW  Elec       q    Type
REMARK                         _______ _______ _______ _____ _____    ______ ____
ROOT
ATOM      1  C   UNL     1       2.595   7.091  19.254  0.00  0.00    +0.000 C 
ATOM      2  O   UNL     1       2.823   6.066  19.898  0.00  0.00    +0.000 OA
ATOM      3  N   UNL     1       1.776   8.093  19.735  0.00  0.00    +0.000 N 
ATOM      4  C   UNL     1       1.177   7.923  21.059  0.00  0.00    +0.000 C 
ATOM      5  C   UNL     1       1.164   9.242  21.845  0.00  0.00    +0.000 C 
ATOM      6  N   UNL     1       0.520  10.301  21.045  0.00  0.00    +0.000 N 
ATOM      7  C   UNL     1       1.096  10.500  19.705  0.00  0.00    +0.000 C 
ATOM      8  C   UNL     1       1.175   9.169  18.931  0.00  0.00    +0.000 C 
ENDROOT
BRANCH   6   9
ATOM      9  C   UNL     1      -0.578  10.986  21.520  0.00  0.00    +0.000 A 
ATOM     10  C   UNL     1      -1.343  11.808  20.676  0.00  0.00    +0.000 A 
ATOM     11  C   UNL     1      -2.431  12.553  21.140  0.00  0.00    +0.000 A 
ATOM     12  C   UNL     1      -2.808  12.490  22.482  0.00  0.00    +0.000 A 
ATOM     13  C   UNL     1      -2.079  11.658  23.338  0.00  0.00    +0.000 A 
ATOM     14  C   UNL     1      -0.986  10.920  22.858  0.00  0.00    +0.000 A 
BRANCH  12  15
ATOM     15  C   UNL     1      -3.969  13.297  23.001  0.00  0.00    +0.000 C 
ATOM     16  F   UNL     1      -3.938  13.488  24.350  0.00  0.00    +0.000 F 
ATOM     17  F   UNL     1      -4.025  14.542  22.451  0.00  0.00    +0.000 F 
ATOM     18  F   UNL     1      -5.171  12.717  22.734  0.00  0.00    +0.000 F 
ENDBRANCH  12  15
ENDBRANCH   6   9
BRANCH   1  19
ATOM     19  C   UNL     1       3.281   7.341  17.924  0.00  0.00    +0.000 C 
BRANCH  19  20
ATOM     20  C   UNL     1       3.964   6.091  17.366  0.00  0.00    +0.000 C 
BRANCH  20  26
ATOM     21  O   UNL     1       7.685   5.190  14.902  0.00  0.00    +0.000 OA
ATOM     22  C   UNL     1       6.962   5.240  15.882  0.00  0.00    +0.000 C 
ATOM     23  N   UNL     1       6.886   4.316  16.866  0.00  0.00    +0.000 N 
ATOM     24  C   UNL     1       6.085   4.751  17.873  0.00  0.00    +0.000 C 
ATOM     25  O   UNL     1       5.889   4.148  18.918  0.00  0.00    +0.000 OA
ATOM     26  C   UNL     1       5.487   6.106  17.476  0.00  0.00    +0.000 C 
ATOM     27  N   UNL     1       6.105   6.270  16.181  0.00  0.00    +0.000 N 
ATOM     28  H   UNL     1       7.437   3.477  16.896  0.00  0.00    +0.000 HD
ATOM     29  H   UNL     1       6.112   7.124  15.637  0.00  0.00    +0.000 HD
ENDBRANCH  20  26
ENDBRANCH  19  20
ENDBRANCH   1  19
TORSDOF 5
ENDMDL
MODEL 4
REMARK VINA RESULT:      -7.8      2.042      3.151
REMARK  Name = 
REMARK  5 active torsions:
REMARK  status: ('A' for Active; 'I' for Inactive)
REMARK    1  A    between atoms: C_6  and  C_7
REMARK    2  A    between atoms: C_7  and  C_8
REMARK    3  A    between atoms: C_8  and  C_9
REMARK    4  A    between atoms: N_14  and  C_15
REMARK    5  A    between atoms: C_18  and  C_19
REMARK                            x       y       z     vdW  Elec       q    Type
REMARK                         _______ _______ _______ _____ _____    ______ ____
ROOT
ATOM      1  C   UNL     1       3.398   6.060  18.539  0.00  0.00    +0.000 C 
ATOM      2  O   UNL     1       3.507   5.136  19.346  0.00  0.00    +0.000 OA
ATOM      3  N   UNL     1       2.565   7.137  18.765  0.00  0.00    +0.000 N 
ATOM      4  C   UNL     1       1.803   7.174  20.014  0.00  0.00    +0.000 C 
ATOM      5  C   UNL     1       1.743   8.594  20.597  0.00  0.00    +0.000 C 
ATOM      6  N   UNL     1       1.242   9.537  19.579  0.00  0.00    +0.000 N 
ATOM      7  C   UNL     1       1.983   9.527  18.308  0.00  0.00    +0.000 C 
ATOM      8  C   UNL     1       2.106   8.096  17.747  0.00  0.00    +0.000 C 
ENDROOT
BRANCH   6   9
ATOM      9  C   UNL     1       0.120  10.305  19.810  0.00  0.00    +0.000 A 
ATOM     10  C   UNL     1      -0.775  10.614  18.772  0.00  0.00    +0.000 A 
ATOM     11  C   UNL     1      -1.892  11.431  18.966  0.00  0.00    +0.000 A 
ATOM     12  C   UNL     1      -2.168  11.964  20.225  0.00  0.00    +0.000 A 
ATOM     13  C   UNL     1      -1.305  11.650  21.281  0.00  0.00    +0.000 A 
ATOM     14  C   UNL     1      -0.184  10.832  21.071  0.00  0.00    +0.000 A 
BRANCH  12  15
ATOM     15  C   UNL     1      -3.359  12.857  20.447  0.00  0.00    +0.000 C 
ATOM     16  F   UNL     1      -4.331  12.713  19.502  0.00  0.00    +0.000 F 
ATOM     17  F   UNL     1      -3.969  12.625  21.643  0.00  0.00    +0.000 F 
ATOM     18  F   UNL     1      -3.032  14.178  20.445  0.00  0.00    +0.000 F 
ENDBRANCH  12  15
ENDBRANCH   6   9
BRANCH   1  19
ATOM     19  C   UNL     1       4.249   6.100  17.284  0.00  0.00    +0.000 C 
BRANCH  19  20
ATOM     20  C   UNL     1       4.812   4.728  16.906  0.00  0.00    +0.000 C 
BRANCH  20  26
ATOM     21  O   UNL     1       7.679   5.408  20.377  0.00  0.00    +0.000 OA
ATOM     22  C   UNL     1       7.294   5.353  19.222  0.00  0.00    +0.000 C 
ATOM     23  N   UNL     1       7.656   6.186  18.220  0.00  0.00    +0.000 N 
ATOM     24  C   UNL     1       7.152   5.758  17.034  0.00  0.00    +0.000 C 
ATOM     25  O   UNL     1       7.375   6.282  15.952  0.00  0.00    +0.000 OA
ATOM     26  C   UNL     1       6.277   4.525  17.286  0.00  0.00    +0.000 C 
ATOM     27  N   UNL     1       6.436   4.408  18.717  0.00  0.00    +0.000 N 
ATOM     28  H   UNL     1       8.301   6.948  18.325  0.00  0.00    +0.000 HD
ATOM     29  H   UNL     1       6.155   3.613  19.277  0.00  0.00    +0.000 HD
ENDBRANCH  20  26
ENDBRANCH  19  20
ENDBRANCH   1  19
TORSDOF 5
ENDMDL
MODEL 5
REMARK VINA RESULT:      -7.8      3.347      4.851
REMARK  Name = 
REMARK  5 active torsions:
REMARK  status: ('A' for Active; 'I' for Inactive)
REMARK    1  A    between atoms: C_6  and  C_7
REMARK    2  A    between atoms: C_7  and  C_8
REMARK    3  A    between atoms: C_8  and  C_9
REMARK    4  A    between atoms: N_14  and  C_15
REMARK    5  A    between atoms: C_18  and  C_19
REMARK                            x       y       z     vdW  Elec       q    Type
REMARK                         _______ _______ _______ _____ _____    ______ ____
ROOT
ATOM      1  C   UNL     1       2.531   5.948  19.341  0.00  0.00    +0.000 C 
ATOM      2  O   UNL     1       3.183   5.432  18.432  0.00  0.00    +0.000 OA
ATOM      3  N   UNL     1       2.218   7.293  19.348  0.00  0.00    +0.000 N 
ATOM      4  C   UNL     1       2.673   8.116  18.227  0.00  0.00    +0.000 C 
ATOM      5  C   UNL     1       1.609   9.144  17.815  0.00  0.00    +0.000 C 
ATOM      6  N   UNL     1       1.188   9.935  18.987  0.00  0.00    +0.000 N 
ATOM      7  C   UNL     1       0.725   9.139  20.136  0.00  0.00    +0.000 C 
ATOM      8  C   UNL     1       1.758   8.060  20.517  0.00  0.00    +0.000 C 
ENDROOT
BRANCH   6   9
ATOM      9  C   UNL     1       1.298  11.309  18.997  0.00  0.00    +0.000 A 
ATOM     10  C   UNL     1       2.274  11.966  18.229  0.00  0.00    +0.000 A 
ATOM     11  C   UNL     1       2.441  13.354  18.258  0.00  0.00    +0.000 A 
ATOM     12  C   UNL     1       1.615  14.147  19.055  0.00  0.00    +0.000 A 
ATOM     13  C   UNL     1       0.619  13.519  19.810  0.00  0.00    +0.000 A 
ATOM     14  C   UNL     1       0.466  12.124  19.774  0.00  0.00    +0.000 A 
BRANCH  12  15
ATOM     15  C   UNL     1       1.791  15.641  19.109  0.00  0.00    +0.000 C 
ATOM     16  F   UNL     1       0.758  16.289  19.718  0.00  0.00    +0.000 F 
ATOM     17  F   UNL     1       2.912  16.010  19.789  0.00  0.00    +0.000 F 
ATOM     18  F   UNL     1       1.903  16.200  17.873  0.00  0.00    +0.000 F 
ENDBRANCH  12  15
ENDBRANCH   6   9
BRANCH   1  19
ATOM     19  C   UNL     1       1.959   5.102  20.463  0.00  0.00    +0.000 C 
BRANCH  19  20
ATOM     20  C   UNL     1       1.089   3.951  19.953  0.00  0.00    +0.000 C 
BRANCH  20  26
ATOM     21  O   UNL     1       5.194   2.102  20.626  0.00  0.00    +0.000 OA
ATOM     22  C   UNL     1       4.104   2.280  20.110  0.00  0.00    +0.000 C 
ATOM     23  N   UNL     1       3.820   2.184  18.792  0.00  0.00    +0.000 N 
ATOM     24  C   UNL     1       2.485   2.306  18.577  0.00  0.00    +0.000 C 
ATOM     25  O   UNL     1       1.941   2.194  17.489  0.00  0.00    +0.000 OA
ATOM     26  C   UNL     1       1.796   2.599  19.915  0.00  0.00    +0.000 C 
ATOM     27  N   UNL     1       2.949   2.586  20.785  0.00  0.00    +0.000 N 
ATOM     28  H   UNL     1       4.493   1.942  18.086  0.00  0.00    +0.000 HD
ATOM     29  H   UNL     1       2.922   2.570  21.798  0.00  0.00    +0.000 HD
ENDBRANCH  20  26
ENDBRANCH  19  20
ENDBRANCH   1  19
TORSDOF 5
ENDMDL
MODEL 6
REMARK VINA RESULT:      -7.8      1.161      1.995
REMARK  Name = 
REMARK  5 active torsions:
REMARK  status: ('A' for Active; 'I' for Inactive)
REMARK    1  A    between atoms: C_6  and  C_7
REMARK    2  A    between atoms: C_7  and  C_8
REMARK    3  A    between atoms: C_8  and  C_9
REMARK    4  A    between atoms: N_14  and  C_15
REMARK    5  A    between atoms: C_18  and  C_19
REMARK                            x       y       z     vdW  Elec       q    Type
REMARK                         _______ _______ _______ _____ _____    ______ ____
ROOT
ATOM      1  C   UNL     1       2.762   3.892  18.334  0.00  0.00    +0.000 C 
ATOM      2  O   UNL     1       2.657   2.839  18.965  0.00  0.00    +0.000 OA
ATOM      3  N   UNL     1       2.348   5.103  18.853  0.00  0.00    +0.000 N 
ATOM      4  C   UNL     1       1.779   5.121  20.201  0.00  0.00    +0.000 C 
ATOM      5  C   UNL     1       2.242   6.354  20.991  0.00  0.00    +0.000 C 
ATOM      6  N   UNL     1       1.961   7.582  20.223  0.00  0.00    +0.000 N 
ATOM      7  C   UNL     1       2.517   7.599  18.860  0.00  0.00    +0.000 C 
ATOM      8  C   UNL     1       2.113   6.332  18.079  0.00  0.00    +0.000 C 
ENDROOT
BRANCH   6   9
ATOM      9  C   UNL     1       1.177   8.588  20.746  0.00  0.00    +0.000 A 
ATOM     10  C   UNL     1       0.955   8.691  22.129  0.00  0.00    +0.000 A 
ATOM     11  C   UNL     1       0.125   9.670  22.683  0.00  0.00    +0.000 A 
ATOM     12  C   UNL     1      -0.509  10.604  21.864  0.00  0.00    +0.000 A 
ATOM     13  C   UNL     1      -0.283  10.538  20.485  0.00  0.00    +0.000 A 
ATOM     14  C   UNL     1       0.549   9.547  19.943  0.00  0.00    +0.000 A 
BRANCH  12  15
ATOM     15  C   UNL     1      -1.417  11.656  22.444  0.00  0.00    +0.000 C 
ATOM     16  F   UNL     1      -2.175  11.208  23.484  0.00  0.00    +0.000 F 
ATOM     17  F   UNL     1      -0.729  12.730  22.924  0.00  0.00    +0.000 F 
ATOM     18  F   UNL     1      -2.294  12.153  21.530  0.00  0.00    +0.000 F 
ENDBRANCH  12  15
ENDBRANCH   6   9
BRANCH   1  19
ATOM     19  C   UNL     1       3.440   3.920  16.977  0.00  0.00    +0.000 C 
BRANCH  19  20
ATOM     20  C   UNL     1       4.551   4.969  16.892  0.00  0.00    +0.000 C 
BRANCH  20  26
ATOM     21  O   UNL     1       7.624   5.481  20.212  0.00  0.00    +0.000 OA
ATOM     22  C   UNL     1       7.194   5.325  19.082  0.00  0.00    +0.000 C 
ATOM     23  N   UNL     1       7.721   5.844  17.950  0.00  0.00    +0.000 N 
ATOM     24  C   UNL     1       7.080   5.360  16.855  0.00  0.00    +0.000 C 
ATOM     25  O   UNL     1       7.390   5.608  15.699  0.00  0.00    +0.000 OA
ATOM     26  C   UNL     1       5.927   4.461  17.317  0.00  0.00    +0.000 C 
ATOM     27  N   UNL     1       6.103   4.562  18.747  0.00  0.00    +0.000 N 
ATOM     28  H   UNL     1       8.544   6.419  17.922  0.00  0.00    +0.000 HD
ATOM     29  H   UNL     1       5.648   3.979  19.439  0.00  0.00    +0.000 HD
ENDBRANCH  20  26
ENDBRANCH  19  20
ENDBRANCH   1  19
TORSDOF 5
ENDMDL
MODEL 7
REMARK VINA RESULT:      -7.8      6.556     10.637
REMARK  Name = 
REMARK  5 active torsions:
REMARK  status: ('A' for Active; 'I' for Inactive)
REMARK    1  A    between atoms: C_6  and  C_7
REMARK    2  A    between atoms: C_7  and  C_8
REMARK    3  A    between atoms: C_8  and  C_9
REMARK    4  A    between atoms: N_14  and  C_15
REMARK    5  A    between atoms: C_18  and  C_19
REMARK                            x       y       z     vdW  Elec       q    Type
REMARK                         _______ _______ _______ _____ _____    ______ ____
ROOT
ATOM      1  C   UNL     1      -0.788  11.522  21.145  0.00  0.00    +0.000 C 
ATOM      2  O   UNL     1      -1.227  12.234  20.241  0.00  0.00    +0.000 OA
ATOM      3  N   UNL     1      -0.135  10.332  20.891  0.00  0.00    +0.000 N 
ATOM      4  C   UNL     1       0.044   9.924  19.497  0.00  0.00    +0.000 C 
ATOM      5  C   UNL     1       1.425   9.292  19.267  0.00  0.00    +0.000 C 
ATOM      6  N   UNL     1       1.646   8.196  20.230  0.00  0.00    +0.000 N 
ATOM      7  C   UNL     1       1.473   8.570  21.643  0.00  0.00    +0.000 C 
ATOM      8  C   UNL     1       0.117   9.265  21.872  0.00  0.00    +0.000 C 
ENDROOT
BRANCH   6   9
ATOM      9  C   UNL     1       1.925   6.916  19.801  0.00  0.00    +0.000 A 
ATOM     10  C   UNL     1       2.423   6.674  18.511  0.00  0.00    +0.000 A 
ATOM     11  C   UNL     1       2.667   5.383  18.032  0.00  0.00    +0.000 A 
ATOM     12  C   UNL     1       2.433   4.273  18.844  0.00  0.00    +0.000 A 
ATOM     13  C   UNL     1       1.960   4.489  20.143  0.00  0.00    +0.000 A 
ATOM     14  C   UNL     1       1.716   5.791  20.608  0.00  0.00    +0.000 A 
BRANCH  12  15
ATOM     15  C   UNL     1       2.678   2.876  18.339  0.00  0.00    +0.000 C 
ATOM     16  F   UNL     1       1.927   1.930  18.970  0.00  0.00    +0.000 F 
ATOM     17  F   UNL     1       2.398   2.745  17.012  0.00  0.00    +0.000 F 
ATOM     18  F   UNL     1       3.972   2.484  18.487  0.00  0.00    +0.000 F 
ENDBRANCH  12  15
ENDBRANCH   6   9
BRANCH   1  19
ATOM     19  C   UNL     1      -0.868  11.968  22.593  0.00  0.00    +0.000 C 
BRANCH  19  20
ATOM     20  C   UNL     1      -2.219  11.652  23.236  0.00  0.00    +0.000 C 
BRANCH  20  26
ATOM     21  O   UNL     1      -2.644  15.800  25.063  0.00  0.00    +0.000 OA
ATOM     22  C   UNL     1      -2.982  14.696  24.673  0.00  0.00    +0.000 C 
ATOM     23  N   UNL     1      -3.912  13.898  25.243  0.00  0.00    +0.000 N 
ATOM     24  C   UNL     1      -4.141  12.802  24.475  0.00  0.00    +0.000 C 
ATOM     25  O   UNL     1      -4.979  11.945  24.715  0.00  0.00    +0.000 OA
ATOM     26  C   UNL     1      -3.187  12.832  23.276  0.00  0.00    +0.000 C 
ATOM     27  N   UNL     1      -2.494  14.069  23.553  0.00  0.00    +0.000 N 
ATOM     28  H   UNL     1      -4.439  14.142  26.063  0.00  0.00    +0.000 HD
ATOM     29  H   UNL     1      -1.884  14.559  22.910  0.00  0.00    +0.000 HD
ENDBRANCH  20  26
ENDBRANCH  19  20
ENDBRANCH   1  19
TORSDOF 5
ENDMDL
MODEL 8
REMARK VINA RESULT:      -7.7      1.992      2.987
REMARK  Name = 
REMARK  5 active torsions:
REMARK  status: ('A' for Active; 'I' for Inactive)
REMARK    1  A    between atoms: C_6  and  C_7
REMARK    2  A    between atoms: C_7  and  C_8
REMARK    3  A    between atoms: C_8  and  C_9
REMARK    4  A    between atoms: N_14  and  C_15
REMARK    5  A    between atoms: C_18  and  C_19
REMARK                            x       y       z     vdW  Elec       q    Type
REMARK                         _______ _______ _______ _____ _____    ______ ____
ROOT
ATOM      1  C   UNL     1       3.379   6.224  18.853  0.00  0.00    +0.000 C 
ATOM      2  O   UNL     1       3.526   5.411  19.766  0.00  0.00    +0.000 OA
ATOM      3  N   UNL     1       2.512   7.294  18.955  0.00  0.00    +0.000 N 
ATOM      4  C   UNL     1       1.759   7.460  20.199  0.00  0.00    +0.000 C 
ATOM      5  C   UNL     1       1.656   8.938  20.602  0.00  0.00    +0.000 C 
ATOM      6  N   UNL     1       1.114   9.731  19.483  0.00  0.00    +0.000 N 
ATOM      7  C   UNL     1       1.846   9.588  18.213  0.00  0.00    +0.000 C 
ATOM      8  C   UNL     1       2.013   8.104  17.832  0.00  0.00    +0.000 C 
ENDROOT
BRANCH   6   9
ATOM      9  C   UNL     1      -0.031  10.485  19.630  0.00  0.00    +0.000 A 
ATOM     10  C   UNL     1      -0.307  11.160  20.830  0.00  0.00    +0.000 A 
ATOM     11  C   UNL     1      -1.483  11.890  21.025  0.00  0.00    +0.000 A 
ATOM     12  C   UNL     1      -2.431  11.986  20.007  0.00  0.00    +0.000 A 
ATOM     13  C   UNL     1      -2.168  11.343  18.793  0.00  0.00    +0.000 A 
ATOM     14  C   UNL     1      -0.985  10.610  18.613  0.00  0.00    +0.000 A 
BRANCH  12  15
ATOM     15  C   UNL     1      -3.709  12.756  20.206  0.00  0.00    +0.000 C 
ATOM     16  F   UNL     1      -3.521  14.101  20.326  0.00  0.00    +0.000 F 
ATOM     17  F   UNL     1      -4.581  12.595  19.171  0.00  0.00    +0.000 F 
ATOM     18  F   UNL     1      -4.383  12.374  21.325  0.00  0.00    +0.000 F 
ENDBRANCH  12  15
ENDBRANCH   6   9
BRANCH   1  19
ATOM     19  C   UNL     1       4.219   6.137  17.592  0.00  0.00    +0.000 C 
BRANCH  19  20
ATOM     20  C   UNL     1       4.135   4.766  16.918  0.00  0.00    +0.000 C 
BRANCH  20  26
ATOM     21  O   UNL     1       8.237   4.844  18.894  0.00  0.00    +0.000 OA
ATOM     22  C   UNL     1       7.401   4.646  18.028  0.00  0.00    +0.000 C 
ATOM     23  N   UNL     1       7.583   4.786  16.696  0.00  0.00    +0.000 N 
ATOM     24  C   UNL     1       6.493   4.350  16.014  0.00  0.00    +0.000 C 
ATOM     25  O   UNL     1       6.408   4.299  14.795  0.00  0.00    +0.000 OA
ATOM     26  C   UNL     1       5.413   3.937  17.021  0.00  0.00    +0.000 C 
ATOM     27  N   UNL     1       6.118   4.211  18.252  0.00  0.00    +0.000 N 
ATOM     28  H   UNL     1       8.449   5.067  16.271  0.00  0.00    +0.000 HD
ATOM     29  H   UNL     1       5.825   3.918  19.175  0.00  0.00    +0.000 HD
ENDBRANCH  20  26
ENDBRANCH  19  20
ENDBRANCH   1  19
TORSDOF 5
ENDMDL
MODEL 9
REMARK VINA RESULT:      -7.7      1.016      2.052
REMARK  Name = 
REMARK  5 active torsions:
REMARK  status: ('A' for Active; 'I' for Inactive)
REMARK    1  A    between atoms: C_6  and  C_7
REMARK    2  A    between atoms: C_7  and  C_8
REMARK    3  A    between atoms: C_8  and  C_9
REMARK    4  A    between atoms: N_14  and  C_15
REMARK    5  A    between atoms: C_18  and  C_19
REMARK                            x       y       z     vdW  Elec       q    Type
REMARK                         _______ _______ _______ _____ _____    ______ ____
ROOT
ATOM      1  C   UNL     1       2.724   3.444  18.156  0.00  0.00    +0.000 C 
ATOM      2  O   UNL     1       2.505   2.392  18.757  0.00  0.00    +0.000 OA
ATOM      3  N   UNL     1       2.366   4.673  18.672  0.00  0.00    +0.000 N 
ATOM      4  C   UNL     1       1.716   4.712  19.982  0.00  0.00    +0.000 C 
ATOM      5  C   UNL     1       2.215   5.896  20.824  0.00  0.00    +0.000 C 
ATOM      6  N   UNL     1       2.071   7.152  20.064  0.00  0.00    +0.000 N 
ATOM      7  C   UNL     1       2.712   7.150  18.739  0.00  0.00    +0.000 C 
ATOM      8  C   UNL     1       2.269   5.928  17.909  0.00  0.00    +0.000 C 
ENDROOT
BRANCH   6   9
ATOM      9  C   UNL     1       1.330   8.204  20.558  0.00  0.00    +0.000 A 
ATOM     10  C   UNL     1       1.020   9.315  19.756  0.00  0.00    +0.000 A 
ATOM     11  C   UNL     1       0.314  10.418  20.244  0.00  0.00    +0.000 A 
ATOM     12  C   UNL     1      -0.129  10.443  21.566  0.00  0.00    +0.000 A 
ATOM     13  C   UNL     1       0.144   9.337  22.379  0.00  0.00    +0.000 A 
ATOM     14  C   UNL     1       0.859   8.239  21.876  0.00  0.00    +0.000 A 
BRANCH  12  15
ATOM     15  C   UNL     1      -0.880  11.629  22.112  0.00  0.00    +0.000 C 
ATOM     16  F   UNL     1      -1.973  11.968  21.372  0.00  0.00    +0.000 F 
ATOM     17  F   UNL     1      -1.340  11.418  23.377  0.00  0.00    +0.000 F 
ATOM     18  F   UNL     1      -0.112  12.751  22.177  0.00  0.00    +0.000 F 
ENDBRANCH  12  15
ENDBRANCH   6   9
BRANCH   1  19
ATOM     19  C   UNL     1       3.487   3.444  16.844  0.00  0.00    +0.000 C 
BRANCH  19  20
ATOM     20  C   UNL     1       4.604   4.488  16.808  0.00  0.00    +0.000 C 
BRANCH  20  26
ATOM     21  O   UNL     1       7.573   5.458  20.121  0.00  0.00    +0.000 OA
ATOM     22  C   UNL     1       7.178   5.118  19.019  0.00  0.00    +0.000 C 
ATOM     23  N   UNL     1       7.775   5.395  17.838  0.00  0.00    +0.000 N 
ATOM     24  C   UNL     1       7.150   4.748  16.820  0.00  0.00    +0.000 C 
ATOM     25  O   UNL     1       7.517   4.766  15.654  0.00  0.00    +0.000 OA
ATOM     26  C   UNL     1       5.934   4.004  17.383  0.00  0.00    +0.000 C 
ATOM     27  N   UNL     1       6.061   4.358  18.777  0.00  0.00    +0.000 N 
ATOM     28  H   UNL     1       8.629   5.917  17.745  0.00  0.00    +0.000 HD
ATOM     29  H   UNL     1       5.549   3.934  19.541  0.00  0.00    +0.000 HD
ENDBRANCH  20  26
ENDBRANCH  19  20
ENDBRANCH   1  19
TORSDOF 5
ENDMDL
