MODEL 1
REMARK VINA RESULT:      -8.3      0.000      0.000
REMARK  Name = 
REMARK  12 active torsions:
REMARK  status: ('A' for Active; 'I' for Inactive)
REMARK    1  A    between atoms: C_1  and  C_2
REMARK    2  A    between atoms: C_4  and  O_5
REMARK    3  A    between atoms: O_5  and  C_6
REMARK    4  A    between atoms: C_9  and  C_10
REMARK    5  A    between atoms: C_10  and  C_11
REMARK    6  A    between atoms: C_10  and  C_12
REMARK    7  A    between atoms: C_10  and  C_13
REMARK    8  A    between atoms: C_16  and  C_17
REMARK    9  A    between atoms: C_17  and  N_18
REMARK   10  A    between atoms: C_20  and  C_21
REMARK   11  A    between atoms: C_21  and  C_22
REMARK   12  A    between atoms: C_22  and  O_24
REMARK                            x       y       z     vdW  Elec       q    Type
REMARK                         _______ _______ _______ _____ _____    ______ ____
ROOT
ATOM      1  C   UNL     1       1.440   2.975  21.878  0.00  0.00    +0.000 C 
ATOM      2  C   UNL     1       1.761   3.926  20.750  0.00  0.00    +0.000 A 
ATOM      3  C   UNL     1       1.733   5.302  21.022  0.00  0.00    +0.000 A 
ATOM      4  C   UNL     1       2.074   6.239  20.049  0.00  0.00    +0.000 A 
ATOM      5  C   UNL     1       2.374   5.820  18.726  0.00  0.00    +0.000 A 
ATOM      6  C   UNL     1       2.434   4.415  18.439  0.00  0.00    +0.000 A 
ATOM      7  C   UNL     1       2.826   3.894  17.181  0.00  0.00    +0.000 A 
ATOM      8  C   UNL     1       2.891   2.523  16.917  0.00  0.00    +0.000 A 
ATOM      9  C   UNL     1       2.576   1.617  17.911  0.00  0.00    +0.000 A 
ATOM     10  C   UNL     1       2.200   2.086  19.166  0.00  0.00    +0.000 A 
ATOM     11  C   UNL     1       2.123   3.470  19.461  0.00  0.00    +0.000 A 
ENDROOT
BRANCH   4  12
ATOM     12  O   UNL     1       2.152   7.584  20.309  0.00  0.00    +0.000 OA
BRANCH  12  13
ATOM     13  C   UNL     1       0.989   8.320  20.737  0.00  0.00    +0.000 C 
ATOM     14  C   UNL     1       1.146   8.873  22.159  0.00  0.00    +0.000 C 
ATOM     15  C   UNL     1       0.026   9.844  22.538  0.00  0.00    +0.000 C 
ATOM     16  C   UNL     1      -0.061  11.038  21.565  0.00  0.00    +0.000 C 
ATOM     17  C   UNL     1      -0.235  10.493  20.131  0.00  0.00    +0.000 C 
ATOM     18  C   UNL     1       0.848   9.485  19.748  0.00  0.00    +0.000 C 
BRANCH  16  19
ATOM     19  C   UNL     1      -1.138  12.117  21.972  0.00  0.00    +0.000 C 
ATOM     20  C   UNL     1      -2.157  12.326  20.828  0.00  0.00    +0.000 C 
ATOM     21  C   UNL     1      -1.945  11.640  23.201  0.00  0.00    +0.000 C 
ATOM     22  C   UNL     1      -0.511  13.482  22.308  0.00  0.00    +0.000 C 
ENDBRANCH  16  19
ENDBRANCH  12  13
ENDBRANCH   4  12
BRANCH   5  23
ATOM     23  C   UNL     1       2.761   6.890  17.690  0.00  0.00    +0.000 C 
BRANCH  23  24
ATOM     24  N   UNL     1       4.184   7.304  17.655  0.00  0.00    +0.000 NA
ATOM     25  C   UNL     1       5.021   6.472  18.526  0.00  0.00    +0.000 C 
ATOM     26  C   UNL     1       5.788   5.930  17.305  0.00  0.00    +0.000 C 
ATOM     27  C   UNL     1       4.834   6.775  16.440  0.00  0.00    +0.000 C 
BRANCH  26  28
ATOM     28  C   UNL     1       7.281   6.261  17.276  0.00  0.00    +0.000 C 
BRANCH  28  29
ATOM     29  C   UNL     1       7.961   6.140  18.617  0.00  0.00    +0.000 C 
ATOM     30  O   UNL     1       8.012   5.122  19.289  0.00  0.00    +0.000 OA
BRANCH  29  31
ATOM     31  O   UNL     1       8.529   7.302  19.019  0.00  0.00    +0.000 OA
ATOM     32  H   UNL     1       9.504   7.281  19.037  0.00  0.00    +0.000 HD
ENDBRANCH  29  31
ENDBRANCH  28  29
ENDBRANCH  26  28
ENDBRANCH  23  24
ENDBRANCH   5  23
TORSDOF 8
ENDMDL
MODEL 2
REMARK VINA RESULT:      -7.7      3.933      8.806
REMARK  Name = 
REMARK  12 active torsions:
REMARK  status: ('A' for Active; 'I' for Inactive)
REMARK    1  A    between atoms: C_1  and  C_2
REMARK    2  A    between atoms: C_4  and  O_5
REMARK    3  A    between atoms: O_5  and  C_6
REMARK    4  A    between atoms: C_9  and  C_10
REMARK    5  A    between atoms: C_10  and  C_11
REMARK    6  A    between atoms: C_10  and  C_12
REMARK    7  A    between atoms: C_10  and  C_13
REMARK    8  A    between atoms: C_16  and  C_17
REMARK    9  A    between atoms: C_17  and  N_18
REMARK   10  A    between atoms: C_20  and  C_21
REMARK   11  A    between atoms: C_21  and  C_22
REMARK   12  A    between atoms: C_22  and  O_24
REMARK                            x       y       z     vdW  Elec       q    Type
REMARK                         _______ _______ _______ _____ _____    ______ ____
ROOT
ATOM      1  C   UNL     1      -3.072   9.791  16.502  0.00  0.00    +0.000 C 
ATOM      2  C   UNL     1      -2.332  10.521  17.598  0.00  0.00    +0.000 A 
ATOM      3  C   UNL     1      -0.938  10.386  17.654  0.00  0.00    +0.000 A 
ATOM      4  C   UNL     1      -0.181  11.075  18.599  0.00  0.00    +0.000 A 
ATOM      5  C   UNL     1      -0.821  11.865  19.589  0.00  0.00    +0.000 A 
ATOM      6  C   UNL     1      -2.245  12.036  19.530  0.00  0.00    +0.000 A 
ATOM      7  C   UNL     1      -2.965  12.887  20.405  0.00  0.00    +0.000 A 
ATOM      8  C   UNL     1      -4.350  13.053  20.329  0.00  0.00    +0.000 A 
ATOM      9  C   UNL     1      -5.070  12.379  19.361  0.00  0.00    +0.000 A 
ATOM     10  C   UNL     1      -4.400  11.545  18.471  0.00  0.00    +0.000 A 
ATOM     11  C   UNL     1      -2.997  11.355  18.527  0.00  0.00    +0.000 A 
ENDROOT
BRANCH   4  12
ATOM     12  O   UNL     1       1.191  11.042  18.619  0.00  0.00    +0.000 OA
BRANCH  12  13
ATOM     13  C   UNL     1       1.893   9.869  19.074  0.00  0.00    +0.000 C 
ATOM     14  C   UNL     1       1.056   9.037  20.052  0.00  0.00    +0.000 C 
ATOM     15  C   UNL     1       1.691   7.680  20.363  0.00  0.00    +0.000 C 
ATOM     16  C   UNL     1       1.917   6.840  19.089  0.00  0.00    +0.000 C 
ATOM     17  C   UNL     1       2.774   7.663  18.102  0.00  0.00    +0.000 C 
ATOM     18  C   UNL     1       2.180   9.042  17.814  0.00  0.00    +0.000 C 
BRANCH  16  19
ATOM     19  C   UNL     1       2.481   5.394  19.369  0.00  0.00    +0.000 C 
ATOM     20  C   UNL     1       4.025   5.418  19.453  0.00  0.00    +0.000 C 
ATOM     21  C   UNL     1       1.972   4.869  20.731  0.00  0.00    +0.000 C 
ATOM     22  C   UNL     1       2.078   4.381  18.282  0.00  0.00    +0.000 C 
ENDBRANCH  16  19
ENDBRANCH  12  13
ENDBRANCH   4  12
BRANCH   5  23
ATOM     23  C   UNL     1       0.057  12.621  20.602  0.00  0.00    +0.000 C 
BRANCH  23  24
ATOM     24  N   UNL     1       0.280  14.064  20.349  0.00  0.00    +0.000 NA
ATOM     25  C   UNL     1       1.698  14.427  20.444  0.00  0.00    +0.000 C 
ATOM     26  C   UNL     1       1.727  14.791  18.948  0.00  0.00    +0.000 C 
ATOM     27  C   UNL     1       0.257  14.331  18.897  0.00  0.00    +0.000 C 
BRANCH  26  28
ATOM     28  C   UNL     1       2.042  16.255  18.640  0.00  0.00    +0.000 C 
BRANCH  28  29
ATOM     29  C   UNL     1       2.893  16.453  17.411  0.00  0.00    +0.000 C 
ATOM     30  O   UNL     1       2.925  17.469  16.736  0.00  0.00    +0.000 OA
BRANCH  29  31
ATOM     31  O   UNL     1       3.641  15.363  17.115  0.00  0.00    +0.000 OA
ATOM     32  H   UNL     1       3.985  15.354  16.201  0.00  0.00    +0.000 HD
ENDBRANCH  29  31
ENDBRANCH  28  29
ENDBRANCH  26  28
ENDBRANCH  23  24
ENDBRANCH   5  23
TORSDOF 8
ENDMDL
MODEL 3
REMARK VINA RESULT:      -7.4      3.667      8.747
REMARK  Name = 
REMARK  12 active torsions:
REMARK  status: ('A' for Active; 'I' for Inactive)
REMARK    1  A    between atoms: C_1  and  C_2
REMARK    2  A    between atoms: C_4  and  O_5
REMARK    3  A    between atoms: O_5  and  C_6
REMARK    4  A    between atoms: C_9  and  C_10
REMARK    5  A    between atoms: C_10  and  C_11
REMARK    6  A    between atoms: C_10  and  C_12
REMARK    7  A    between atoms: C_10  and  C_13
REMARK    8  A    between atoms: C_16  and  C_17
REMARK    9  A    between atoms: C_17  and  N_18
REMARK   10  A    between atoms: C_20  and  C_21
REMARK   11  A    between atoms: C_21  and  C_22
REMARK   12  A    between atoms: C_22  and  O_24
REMARK                            x       y       z     vdW  Elec       q    Type
REMARK                         _______ _______ _______ _____ _____    ______ ____
ROOT
ATOM      1  C   UNL     1      -3.342   9.940  16.935  0.00  0.00    +0.000 C 
ATOM      2  C   UNL     1      -2.382  10.457  17.979  0.00  0.00    +0.000 A 
ATOM      3  C   UNL     1      -1.063   9.982  17.953  0.00  0.00    +0.000 A 
ATOM      4  C   UNL     1      -0.104  10.457  18.846  0.00  0.00    +0.000 A 
ATOM      5  C   UNL     1      -0.470  11.372  19.867  0.00  0.00    +0.000 A 
ATOM      6  C   UNL     1      -1.809  11.889  19.892  0.00  0.00    +0.000 A 
ATOM      7  C   UNL     1      -2.243  12.883  20.803  0.00  0.00    +0.000 A 
ATOM      8  C   UNL     1      -3.547  13.386  20.808  0.00  0.00    +0.000 A 
ATOM      9  C   UNL     1      -4.468  12.918  19.890  0.00  0.00    +0.000 A 
ATOM     10  C   UNL     1      -4.078  11.951  18.968  0.00  0.00    +0.000 A 
ATOM     11  C   UNL     1      -2.764  11.422  18.941  0.00  0.00    +0.000 A 
ENDROOT
BRANCH   4  12
ATOM     12  O   UNL     1       1.216  10.087  18.784  0.00  0.00    +0.000 OA
BRANCH  12  13
ATOM     13  C   UNL     1       1.587   8.732  18.465  0.00  0.00    +0.000 C 
ATOM     14  C   UNL     1       2.886   8.664  17.654  0.00  0.00    +0.000 C 
ATOM     15  C   UNL     1       3.414   7.234  17.507  0.00  0.00    +0.000 C 
ATOM     16  C   UNL     1       3.666   6.567  18.876  0.00  0.00    +0.000 C 
ATOM     17  C   UNL     1       2.359   6.616  19.696  0.00  0.00    +0.000 C 
ATOM     18  C   UNL     1       1.790   8.029  19.815  0.00  0.00    +0.000 C 
BRANCH  16  19
ATOM     19  C   UNL     1       4.302   5.127  18.775  0.00  0.00    +0.000 C 
ATOM     20  C   UNL     1       3.545   4.133  19.686  0.00  0.00    +0.000 C 
ATOM     21  C   UNL     1       4.186   4.582  17.334  0.00  0.00    +0.000 C 
ATOM     22  C   UNL     1       5.788   5.107  19.179  0.00  0.00    +0.000 C 
ENDBRANCH  16  19
ENDBRANCH  12  13
ENDBRANCH   4  12
BRANCH   5  23
ATOM     23  C   UNL     1       0.626  11.881  20.820  0.00  0.00    +0.000 C 
BRANCH  23  24
ATOM     24  N   UNL     1       1.032  13.300  20.678  0.00  0.00    +0.000 NA
ATOM     25  C   UNL     1       2.486  13.468  20.771  0.00  0.00    +0.000 C 
ATOM     26  C   UNL     1       2.545  13.946  19.308  0.00  0.00    +0.000 C 
ATOM     27  C   UNL     1       1.028  13.685  19.253  0.00  0.00    +0.000 C 
BRANCH  26  28
ATOM     28  C   UNL     1       3.044  15.377  19.111  0.00  0.00    +0.000 C 
BRANCH  28  29
ATOM     29  C   UNL     1       3.609  15.646  17.739  0.00  0.00    +0.000 C 
ATOM     30  O   UNL     1       3.215  16.512  16.974  0.00  0.00    +0.000 OA
BRANCH  29  31
ATOM     31  O   UNL     1       4.628  14.811  17.423  0.00  0.00    +0.000 OA
ATOM     32  H   UNL     1       5.263  15.184  16.783  0.00  0.00    +0.000 HD
ENDBRANCH  29  31
ENDBRANCH  28  29
ENDBRANCH  26  28
ENDBRANCH  23  24
ENDBRANCH   5  23
TORSDOF 8
ENDMDL
MODEL 4
REMARK VINA RESULT:      -7.4      4.000      8.872
REMARK  Name = 
REMARK  12 active torsions:
REMARK  status: ('A' for Active; 'I' for Inactive)
REMARK    1  A    between atoms: C_1  and  C_2
REMARK    2  A    between atoms: C_4  and  O_5
REMARK    3  A    between atoms: O_5  and  C_6
REMARK    4  A    between atoms: C_9  and  C_10
REMARK    5  A    between atoms: C_10  and  C_11
REMARK    6  A    between atoms: C_10  and  C_12
REMARK    7  A    between atoms: C_10  and  C_13
REMARK    8  A    between atoms: C_16  and  C_17
REMARK    9  A    between atoms: C_17  and  N_18
REMARK   10  A    between atoms: C_20  and  C_21
REMARK   11  A    between atoms: C_21  and  C_22
REMARK   12  A    between atoms: C_22  and  O_24
REMARK                            x       y       z     vdW  Elec       q    Type
REMARK                         _______ _______ _______ _____ _____    ______ ____
ROOT
ATOM      1  C   UNL     1      -2.945   9.537  16.220  0.00  0.00    +0.000 C 
ATOM      2  C   UNL     1      -2.384  10.341  17.369  0.00  0.00    +0.000 A 
ATOM      3  C   UNL     1      -0.996  10.325  17.566  0.00  0.00    +0.000 A 
ATOM      4  C   UNL     1      -0.398  11.088  18.567  0.00  0.00    +0.000 A 
ATOM      5  C   UNL     1      -1.198  11.833  19.473  0.00  0.00    +0.000 A 
ATOM      6  C   UNL     1      -2.618  11.882  19.268  0.00  0.00    +0.000 A 
ATOM      7  C   UNL     1      -3.491  12.679  20.049  0.00  0.00    +0.000 A 
ATOM      8  C   UNL     1      -4.870  12.726  19.832  0.00  0.00    +0.000 A 
ATOM      9  C   UNL     1      -5.430  11.982  18.811  0.00  0.00    +0.000 A 
ATOM     10  C   UNL     1      -4.607  11.196  18.010  0.00  0.00    +0.000 A 
ATOM     11  C   UNL     1      -3.206  11.127  18.209  0.00  0.00    +0.000 A 
ENDROOT
BRANCH   4  12
ATOM     12  O   UNL     1       0.963  11.171  18.724  0.00  0.00    +0.000 OA
BRANCH  12  13
ATOM     13  C   UNL     1       1.731  10.019  19.125  0.00  0.00    +0.000 C 
ATOM     14  C   UNL     1       0.968   9.132  20.115  0.00  0.00    +0.000 C 
ATOM     15  C   UNL     1       1.671   7.796  20.369  0.00  0.00    +0.000 C 
ATOM     16  C   UNL     1       1.880   6.994  19.067  0.00  0.00    +0.000 C 
ATOM     17  C   UNL     1       2.662   7.874  18.068  0.00  0.00    +0.000 C 
ATOM     18  C   UNL     1       2.001   9.232  17.835  0.00  0.00    +0.000 C 
BRANCH  16  19
ATOM     19  C   UNL     1       2.514   5.567  19.292  0.00  0.00    +0.000 C 
ATOM     20  C   UNL     1       1.960   4.923  20.584  0.00  0.00    +0.000 C 
ATOM     21  C   UNL     1       2.140   4.619  18.130  0.00  0.00    +0.000 C 
ATOM     22  C   UNL     1       4.049   5.612  19.401  0.00  0.00    +0.000 C 
ENDBRANCH  16  19
ENDBRANCH  12  13
ENDBRANCH   4  12
BRANCH   5  23
ATOM     23  C   UNL     1      -0.493  12.673  20.552  0.00  0.00    +0.000 C 
BRANCH  23  24
ATOM     24  N   UNL     1      -0.367  14.127  20.292  0.00  0.00    +0.000 NA
ATOM     25  C   UNL     1       0.938  14.650  20.711  0.00  0.00    +0.000 C 
ATOM     26  C   UNL     1       1.296  14.984  19.251  0.00  0.00    +0.000 C 
ATOM     27  C   UNL     1      -0.060  14.360  18.867  0.00  0.00    +0.000 C 
BRANCH  26  28
ATOM     28  C   UNL     1       1.521  16.468  18.960  0.00  0.00    +0.000 C 
BRANCH  28  29
ATOM     29  C   UNL     1       2.825  16.764  18.262  0.00  0.00    +0.000 C 
ATOM     30  O   UNL     1       3.086  16.467  17.107  0.00  0.00    +0.000 OA
BRANCH  29  31
ATOM     31  O   UNL     1       3.708  17.411  19.060  0.00  0.00    +0.000 OA
ATOM     32  H   UNL     1       4.548  17.638  18.619  0.00  0.00    +0.000 HD
ENDBRANCH  29  31
ENDBRANCH  28  29
ENDBRANCH  26  28
ENDBRANCH  23  24
ENDBRANCH   5  23
TORSDOF 8
ENDMDL
MODEL 5
REMARK VINA RESULT:      -7.4      3.647      9.107
REMARK  Name = 
REMARK  12 active torsions:
REMARK  status: ('A' for Active; 'I' for Inactive)
REMARK    1  A    between atoms: C_1  and  C_2
REMARK    2  A    between atoms: C_4  and  O_5
REMARK    3  A    between atoms: O_5  and  C_6
REMARK    4  A    between atoms: C_9  and  C_10
REMARK    5  A    between atoms: C_10  and  C_11
REMARK    6  A    between atoms: C_10  and  C_12
REMARK    7  A    between atoms: C_10  and  C_13
REMARK    8  A    between atoms: C_16  and  C_17
REMARK    9  A    between atoms: C_17  and  N_18
REMARK   10  A    between atoms: C_20  and  C_21
REMARK   11  A    between atoms: C_21  and  C_22
REMARK   12  A    between atoms: C_22  and  O_24
REMARK                            x       y       z     vdW  Elec       q    Type
REMARK                         _______ _______ _______ _____ _____    ______ ____
ROOT
ATOM      1  C   UNL     1      -3.018   9.824  16.501  0.00  0.00    +0.000 C 
ATOM      2  C   UNL     1      -2.128  10.275  17.635  0.00  0.00    +0.000 A 
ATOM      3  C   UNL     1      -0.820   9.773  17.686  0.00  0.00    +0.000 A 
ATOM      4  C   UNL     1       0.078  10.188  18.667  0.00  0.00    +0.000 A 
ATOM      5  C   UNL     1      -0.346  11.066  19.698  0.00  0.00    +0.000 A 
ATOM      6  C   UNL     1      -1.674  11.611  19.646  0.00  0.00    +0.000 A 
ATOM      7  C   UNL     1      -2.157  12.575  20.566  0.00  0.00    +0.000 A 
ATOM      8  C   UNL     1      -3.447  13.105  20.497  0.00  0.00    +0.000 A 
ATOM      9  C   UNL     1      -4.305  12.697  19.494  0.00  0.00    +0.000 A 
ATOM     10  C   UNL     1      -3.866  11.762  18.561  0.00  0.00    +0.000 A 
ATOM     11  C   UNL     1      -2.564  11.206  18.608  0.00  0.00    +0.000 A 
ENDROOT
BRANCH   4  12
ATOM     12  O   UNL     1       1.391   9.792  18.686  0.00  0.00    +0.000 OA
BRANCH  12  13
ATOM     13  C   UNL     1       1.757   8.435  18.368  0.00  0.00    +0.000 C 
ATOM     14  C   UNL     1       3.084   8.358  17.604  0.00  0.00    +0.000 C 
ATOM     15  C   UNL     1       3.598   6.924  17.462  0.00  0.00    +0.000 C 
ATOM     16  C   UNL     1       3.792   6.240  18.831  0.00  0.00    +0.000 C 
ATOM     17  C   UNL     1       2.456   6.298  19.604  0.00  0.00    +0.000 C 
ATOM     18  C   UNL     1       1.901   7.717  19.716  0.00  0.00    +0.000 C 
BRANCH  16  19
ATOM     19  C   UNL     1       4.413   4.792  18.739  0.00  0.00    +0.000 C 
ATOM     20  C   UNL     1       3.731   3.842  19.750  0.00  0.00    +0.000 C 
ATOM     21  C   UNL     1       4.177   4.189  17.336  0.00  0.00    +0.000 C 
ATOM     22  C   UNL     1       5.927   4.780  19.020  0.00  0.00    +0.000 C 
ENDBRANCH  16  19
ENDBRANCH  12  13
ENDBRANCH   4  12
BRANCH   5  23
ATOM     23  C   UNL     1       0.684  11.510  20.751  0.00  0.00    +0.000 C 
BRANCH  23  24
ATOM     24  N   UNL     1       1.645  12.564  20.346  0.00  0.00    +0.000 NA
ATOM     25  C   UNL     1       1.283  13.175  19.062  0.00  0.00    +0.000 C 
ATOM     26  C   UNL     1       1.036  14.529  19.753  0.00  0.00    +0.000 C 
ATOM     27  C   UNL     1       1.361  13.813  21.078  0.00  0.00    +0.000 C 
BRANCH  26  28
ATOM     28  C   UNL     1       1.949  15.667  19.298  0.00  0.00    +0.000 C 
BRANCH  28  29
ATOM     29  C   UNL     1       1.222  16.801  18.620  0.00  0.00    +0.000 C 
ATOM     30  O   UNL     1       1.715  17.881  18.335  0.00  0.00    +0.000 OA
BRANCH  29  31
ATOM     31  O   UNL     1      -0.071  16.502  18.347  0.00  0.00    +0.000 OA
ATOM     32  H   UNL     1      -0.686  16.695  19.080  0.00  0.00    +0.000 HD
ENDBRANCH  29  31
ENDBRANCH  28  29
ENDBRANCH  26  28
ENDBRANCH  23  24
ENDBRANCH   5  23
TORSDOF 8
ENDMDL
MODEL 6
REMARK VINA RESULT:      -7.2      3.445      9.408
REMARK  Name = 
REMARK  12 active torsions:
REMARK  status: ('A' for Active; 'I' for Inactive)
REMARK    1  A    between atoms: C_1  and  C_2
REMARK    2  A    between atoms: C_4  and  O_5
REMARK    3  A    between atoms: O_5  and  C_6
REMARK    4  A    between atoms: C_9  and  C_10
REMARK    5  A    between atoms: C_10  and  C_11
REMARK    6  A    between atoms: C_10  and  C_12
REMARK    7  A    between atoms: C_10  and  C_13
REMARK    8  A    between atoms: C_16  and  C_17
REMARK    9  A    between atoms: C_17  and  N_18
REMARK   10  A    between atoms: C_20  and  C_21
REMARK   11  A    between atoms: C_21  and  C_22
REMARK   12  A    between atoms: C_22  and  O_24
REMARK                            x       y       z     vdW  Elec       q    Type
REMARK                         _______ _______ _______ _____ _____    ______ ____
ROOT
ATOM      1  C   UNL     1       0.183   9.343  23.835  0.00  0.00    +0.000 C 
ATOM      2  C   UNL     1       0.075   9.877  22.427  0.00  0.00    +0.000 A 
ATOM      3  C   UNL     1       0.653   9.128  21.393  0.00  0.00    +0.000 A 
ATOM      4  C   UNL     1       0.543   9.525  20.062  0.00  0.00    +0.000 A 
ATOM      5  C   UNL     1      -0.085  10.755  19.733  0.00  0.00    +0.000 A 
ATOM      6  C   UNL     1      -0.706  11.520  20.776  0.00  0.00    +0.000 A 
ATOM      7  C   UNL     1      -1.448  12.704  20.538  0.00  0.00    +0.000 A 
ATOM      8  C   UNL     1      -2.057  13.433  21.562  0.00  0.00    +0.000 A 
ATOM      9  C   UNL     1      -1.956  12.997  22.870  0.00  0.00    +0.000 A 
ATOM     10  C   UNL     1      -1.249  11.831  23.146  0.00  0.00    +0.000 A 
ATOM     11  C   UNL     1      -0.619  11.073  22.128  0.00  0.00    +0.000 A 
ENDROOT
BRANCH   4  12
ATOM     12  O   UNL     1       1.012   8.766  19.019  0.00  0.00    +0.000 OA
BRANCH  12  13
ATOM     13  C   UNL     1       2.216   7.986  19.158  0.00  0.00    +0.000 C 
ATOM     14  C   UNL     1       1.938   6.589  19.723  0.00  0.00    +0.000 C 
ATOM     15  C   UNL     1       3.163   5.674  19.660  0.00  0.00    +0.000 C 
ATOM     16  C   UNL     1       3.693   5.515  18.219  0.00  0.00    +0.000 C 
ATOM     17  C   UNL     1       3.992   6.917  17.646  0.00  0.00    +0.000 C 
ATOM     18  C   UNL     1       2.794   7.861  17.742  0.00  0.00    +0.000 C 
BRANCH  16  19
ATOM     19  C   UNL     1       4.898   4.503  18.091  0.00  0.00    +0.000 C 
ATOM     20  C   UNL     1       6.229   5.193  18.466  0.00  0.00    +0.000 C 
ATOM     21  C   UNL     1       4.719   3.321  19.071  0.00  0.00    +0.000 C 
ATOM     22  C   UNL     1       5.041   3.932  16.668  0.00  0.00    +0.000 C 
ENDBRANCH  16  19
ENDBRANCH  12  13
ENDBRANCH   4  12
BRANCH   5  23
ATOM     23  C   UNL     1      -0.197  11.145  18.248  0.00  0.00    +0.000 C 
BRANCH  23  24
ATOM     24  N   UNL     1      -1.374  10.630  17.508  0.00  0.00    +0.000 NA
ATOM     25  C   UNL     1      -2.426  10.151  18.410  0.00  0.00    +0.000 C 
ATOM     26  C   UNL     1      -3.377  11.259  17.923  0.00  0.00    +0.000 C 
ATOM     27  C   UNL     1      -2.211  11.754  17.046  0.00  0.00    +0.000 C 
BRANCH  26  28
ATOM     28  C   UNL     1      -4.649  10.767  17.231  0.00  0.00    +0.000 C 
BRANCH  28  29
ATOM     29  C   UNL     1      -5.872  11.593  17.537  0.00  0.00    +0.000 C 
ATOM     30  O   UNL     1      -6.885  11.176  18.075  0.00  0.00    +0.000 OA
BRANCH  29  31
ATOM     31  O   UNL     1      -5.738  12.884  17.150  0.00  0.00    +0.000 OA
ATOM     32  H   UNL     1      -6.515  13.239  16.677  0.00  0.00    +0.000 HD
ENDBRANCH  29  31
ENDBRANCH  28  29
ENDBRANCH  26  28
ENDBRANCH  23  24
ENDBRANCH   5  23
TORSDOF 8
ENDMDL
MODEL 7
REMARK VINA RESULT:      -7.2      2.335      5.065
REMARK  Name = 
REMARK  12 active torsions:
REMARK  status: ('A' for Active; 'I' for Inactive)
REMARK    1  A    between atoms: C_1  and  C_2
REMARK    2  A    between atoms: C_4  and  O_5
REMARK    3  A    between atoms: O_5  and  C_6
REMARK    4  A    between atoms: C_9  and  C_10
REMARK    5  A    between atoms: C_10  and  C_11
REMARK    6  A    between atoms: C_10  and  C_12
REMARK    7  A    between atoms: C_10  and  C_13
REMARK    8  A    between atoms: C_16  and  C_17
REMARK    9  A    between atoms: C_17  and  N_18
REMARK   10  A    between atoms: C_20  and  C_21
REMARK   11  A    between atoms: C_21  and  C_22
REMARK   12  A    between atoms: C_22  and  O_24
REMARK                            x       y       z     vdW  Elec       q    Type
REMARK                         _______ _______ _______ _____ _____    ______ ____
ROOT
ATOM      1  C   UNL     1       7.816   7.037  17.899  0.00  0.00    +0.000 C 
ATOM      2  C   UNL     1       6.507   6.367  17.553  0.00  0.00    +0.000 A 
ATOM      3  C   UNL     1       5.400   6.624  18.373  0.00  0.00    +0.000 A 
ATOM      4  C   UNL     1       4.145   6.091  18.085  0.00  0.00    +0.000 A 
ATOM      5  C   UNL     1       3.983   5.195  16.995  0.00  0.00    +0.000 A 
ATOM      6  C   UNL     1       5.100   4.943  16.129  0.00  0.00    +0.000 A 
ATOM      7  C   UNL     1       5.014   4.151  14.958  0.00  0.00    +0.000 A 
ATOM      8  C   UNL     1       6.107   3.923  14.118  0.00  0.00    +0.000 A 
ATOM      9  C   UNL     1       7.331   4.491  14.413  0.00  0.00    +0.000 A 
ATOM     10  C   UNL     1       7.456   5.288  15.547  0.00  0.00    +0.000 A 
ATOM     11  C   UNL     1       6.366   5.534  16.418  0.00  0.00    +0.000 A 
ENDROOT
BRANCH   4  12
ATOM     12  O   UNL     1       3.022   6.401  18.809  0.00  0.00    +0.000 OA
BRANCH  12  13
ATOM     13  C   UNL     1       2.639   7.774  19.023  0.00  0.00    +0.000 C 
ATOM     14  C   UNL     1       1.915   8.368  17.809  0.00  0.00    +0.000 C 
ATOM     15  C   UNL     1       1.302   9.739  18.103  0.00  0.00    +0.000 C 
ATOM     16  C   UNL     1       0.305   9.687  19.280  0.00  0.00    +0.000 C 
ATOM     17  C   UNL     1       1.028   9.104  20.513  0.00  0.00    +0.000 C 
ATOM     18  C   UNL     1       1.688   7.756  20.228  0.00  0.00    +0.000 C 
BRANCH  16  19
ATOM     19  C   UNL     1      -0.426  11.057  19.557  0.00  0.00    +0.000 C 
ATOM     20  C   UNL     1      -0.690  11.236  21.070  0.00  0.00    +0.000 C 
ATOM     21  C   UNL     1       0.462  12.244  19.119  0.00  0.00    +0.000 C 
ATOM     22  C   UNL     1      -1.775  11.168  18.822  0.00  0.00    +0.000 C 
ENDBRANCH  16  19
ENDBRANCH  12  13
ENDBRANCH   4  12
BRANCH   5  23
ATOM     23  C   UNL     1       2.576   4.644  16.705  0.00  0.00    +0.000 C 
BRANCH  23  24
ATOM     24  N   UNL     1       2.172   3.421  17.438  0.00  0.00    +0.000 NA
ATOM     25  C   UNL     1       3.024   3.171  18.605  0.00  0.00    +0.000 C 
ATOM     26  C   UNL     1       1.828   3.389  19.551  0.00  0.00    +0.000 C 
ATOM     27  C   UNL     1       1.001   3.707  18.291  0.00  0.00    +0.000 C 
BRANCH  26  28
ATOM     28  C   UNL     1       1.435   2.175  20.392  0.00  0.00    +0.000 C 
BRANCH  28  29
ATOM     29  C   UNL     1       1.808   2.292  21.849  0.00  0.00    +0.000 C 
ATOM     30  O   UNL     1       2.946   2.394  22.276  0.00  0.00    +0.000 OA
BRANCH  29  31
ATOM     31  O   UNL     1       0.727   2.273  22.665  0.00  0.00    +0.000 OA
ATOM     32  H   UNL     1       0.264   1.414  22.692  0.00  0.00    +0.000 HD
ENDBRANCH  29  31
ENDBRANCH  28  29
ENDBRANCH  26  28
ENDBRANCH  23  24
ENDBRANCH   5  23
TORSDOF 8
ENDMDL
MODEL 8
REMARK VINA RESULT:      -7.2      3.913      8.791
REMARK  Name = 
REMARK  12 active torsions:
REMARK  status: ('A' for Active; 'I' for Inactive)
REMARK    1  A    between atoms: C_1  and  C_2
REMARK    2  A    between atoms: C_4  and  O_5
REMARK    3  A    between atoms: O_5  and  C_6
REMARK    4  A    between atoms: C_9  and  C_10
REMARK    5  A    between atoms: C_10  and  C_11
REMARK    6  A    between atoms: C_10  and  C_12
REMARK    7  A    between atoms: C_10  and  C_13
REMARK    8  A    between atoms: C_16  and  C_17
REMARK    9  A    between atoms: C_17  and  N_18
REMARK   10  A    between atoms: C_20  and  C_21
REMARK   11  A    between atoms: C_21  and  C_22
REMARK   12  A    between atoms: C_22  and  O_24
REMARK                            x       y       z     vdW  Elec       q    Type
REMARK                         _______ _______ _______ _____ _____    ______ ____
ROOT
ATOM      1  C   UNL     1      -3.206   9.810  17.211  0.00  0.00    +0.000 C 
ATOM      2  C   UNL     1      -2.121  10.450  18.043  0.00  0.00    +0.000 A 
ATOM      3  C   UNL     1      -0.796  10.049  17.818  0.00  0.00    +0.000 A 
ATOM      4  C   UNL     1       0.265  10.636  18.504  0.00  0.00    +0.000 A 
ATOM      5  C   UNL     1       0.016  11.596  19.519  0.00  0.00    +0.000 A 
ATOM      6  C   UNL     1      -1.332  12.037  19.744  0.00  0.00    +0.000 A 
ATOM      7  C   UNL     1      -1.672  13.065  20.658  0.00  0.00    +0.000 A 
ATOM      8  C   UNL     1      -2.987  13.492  20.860  0.00  0.00    +0.000 A 
ATOM      9  C   UNL     1      -4.015  12.912  20.142  0.00  0.00    +0.000 A 
ATOM     10  C   UNL     1      -3.723  11.909  19.222  0.00  0.00    +0.000 A 
ATOM     11  C   UNL     1      -2.400  11.454  19.000  0.00  0.00    +0.000 A 
ENDROOT
BRANCH   4  12
ATOM     12  O   UNL     1       1.578  10.338  18.236  0.00  0.00    +0.000 OA
BRANCH  12  13
ATOM     13  C   UNL     1       2.204   9.180  18.822  0.00  0.00    +0.000 C 
ATOM     14  C   UNL     1       1.323   8.524  19.891  0.00  0.00    +0.000 C 
ATOM     15  C   UNL     1       1.869   7.172  20.355  0.00  0.00    +0.000 C 
ATOM     16  C   UNL     1       2.026   6.178  19.184  0.00  0.00    +0.000 C 
ATOM     17  C   UNL     1       2.926   6.823  18.108  0.00  0.00    +0.000 C 
ATOM     18  C   UNL     1       2.423   8.197  17.664  0.00  0.00    +0.000 C 
BRANCH  16  19
ATOM     19  C   UNL     1       2.495   4.739  19.628  0.00  0.00    +0.000 C 
ATOM     20  C   UNL     1       1.837   3.655  18.742  0.00  0.00    +0.000 C 
ATOM     21  C   UNL     1       4.023   4.588  19.451  0.00  0.00    +0.000 C 
ATOM     22  C   UNL     1       2.147   4.430  21.096  0.00  0.00    +0.000 C 
ENDBRANCH  16  19
ENDBRANCH  12  13
ENDBRANCH   4  12
BRANCH   5  23
ATOM     23  C   UNL     1       1.220  12.229  20.239  0.00  0.00    +0.000 C 
BRANCH  23  24
ATOM     24  N   UNL     1       2.194  12.963  19.396  0.00  0.00    +0.000 NA
ATOM     25  C   UNL     1       1.556  14.032  18.622  0.00  0.00    +0.000 C 
ATOM     26  C   UNL     1       2.357  15.097  19.394  0.00  0.00    +0.000 C 
ATOM     27  C   UNL     1       2.941  13.934  20.218  0.00  0.00    +0.000 C 
BRANCH  26  28
ATOM     28  C   UNL     1       3.310  15.938  18.544  0.00  0.00    +0.000 C 
BRANCH  28  29
ATOM     29  C   UNL     1       2.670  17.157  17.931  0.00  0.00    +0.000 C 
ATOM     30  O   UNL     1       2.730  17.463  16.750  0.00  0.00    +0.000 OA
BRANCH  29  31
ATOM     31  O   UNL     1       1.999  17.905  18.839  0.00  0.00    +0.000 OA
ATOM     32  H   UNL     1       1.965  18.856  18.622  0.00  0.00    +0.000 HD
ENDBRANCH  29  31
ENDBRANCH  28  29
ENDBRANCH  26  28
ENDBRANCH  23  24
ENDBRANCH   5  23
TORSDOF 8
ENDMDL
MODEL 9
REMARK VINA RESULT:      -7.1      3.709      9.102
REMARK  Name = 
REMARK  12 active torsions:
REMARK  status: ('A' for Active; 'I' for Inactive)
REMARK    1  A    between atoms: C_1  and  C_2
REMARK    2  A    between atoms: C_4  and  O_5
REMARK    3  A    between atoms: O_5  and  C_6
REMARK    4  A    between atoms: C_9  and  C_10
REMARK    5  A    between atoms: C_10  and  C_11
REMARK    6  A    between atoms: C_10  and  C_12
REMARK    7  A    between atoms: C_10  and  C_13
REMARK    8  A    between atoms: C_16  and  C_17
REMARK    9  A    between atoms: C_17  and  N_18
REMARK   10  A    between atoms: C_20  and  C_21
REMARK   11  A    between atoms: C_21  and  C_22
REMARK   12  A    between atoms: C_22  and  O_24
REMARK                            x       y       z     vdW  Elec       q    Type
REMARK                         _______ _______ _______ _____ _____    ______ ____
ROOT
ATOM      1  C   UNL     1      -2.950   9.715  16.832  0.00  0.00    +0.000 C 
ATOM      2  C   UNL     1      -1.963  10.227  17.854  0.00  0.00    +0.000 A 
ATOM      3  C   UNL     1      -0.664   9.699  17.836  0.00  0.00    +0.000 A 
ATOM      4  C   UNL     1       0.319  10.164  18.708  0.00  0.00    +0.000 A 
ATOM      5  C   UNL     1      -0.004  11.125  19.701  0.00  0.00    +0.000 A 
ATOM      6  C   UNL     1      -1.321  11.696  19.716  0.00  0.00    +0.000 A 
ATOM      7  C   UNL     1      -1.710  12.736  20.596  0.00  0.00    +0.000 A 
ATOM      8  C   UNL     1      -2.992  13.290  20.592  0.00  0.00    +0.000 A 
ATOM      9  C   UNL     1      -3.937  12.829  19.695  0.00  0.00    +0.000 A 
ATOM     10  C   UNL     1      -3.592  11.819  18.802  0.00  0.00    +0.000 A 
ATOM     11  C   UNL     1      -2.301  11.237  18.785  0.00  0.00    +0.000 A 
ENDROOT
BRANCH   4  12
ATOM     12  O   UNL     1       1.622   9.739  18.651  0.00  0.00    +0.000 OA
BRANCH  12  13
ATOM     13  C   UNL     1       1.950   8.432  18.141  0.00  0.00    +0.000 C 
ATOM     14  C   UNL     1       3.317   8.409  17.446  0.00  0.00    +0.000 C 
ATOM     15  C   UNL     1       3.779   6.991  17.105  0.00  0.00    +0.000 C 
ATOM     16  C   UNL     1       3.861   6.092  18.357  0.00  0.00    +0.000 C 
ATOM     17  C   UNL     1       2.484   6.095  19.057  0.00  0.00    +0.000 C 
ATOM     18  C   UNL     1       1.982   7.506  19.364  0.00  0.00    +0.000 C 
BRANCH  16  19
ATOM     19  C   UNL     1       4.426   4.647  18.070  0.00  0.00    +0.000 C 
ATOM     20  C   UNL     1       5.736   4.729  17.252  0.00  0.00    +0.000 C 
ATOM     21  C   UNL     1       4.774   3.928  19.393  0.00  0.00    +0.000 C 
ATOM     22  C   UNL     1       3.432   3.767  17.290  0.00  0.00    +0.000 C 
ENDBRANCH  16  19
ENDBRANCH  12  13
ENDBRANCH   4  12
BRANCH   5  23
ATOM     23  C   UNL     1       1.118  11.620  20.631  0.00  0.00    +0.000 C 
BRANCH  23  24
ATOM     24  N   UNL     1       2.049  12.632  20.077  0.00  0.00    +0.000 NA
ATOM     25  C   UNL     1       1.583  13.165  18.793  0.00  0.00    +0.000 C 
ATOM     26  C   UNL     1       1.410  14.564  19.414  0.00  0.00    +0.000 C 
ATOM     27  C   UNL     1       1.842  13.930  20.749  0.00  0.00    +0.000 C 
BRANCH  26  28
ATOM     28  C   UNL     1       2.291  15.657  18.809  0.00  0.00    +0.000 C 
BRANCH  28  29
ATOM     29  C   UNL     1       1.624  17.008  18.731  0.00  0.00    +0.000 C 
ATOM     30  O   UNL     1       0.545  17.229  18.204  0.00  0.00    +0.000 OA
BRANCH  29  31
ATOM     31  O   UNL     1       2.355  17.984  19.320  0.00  0.00    +0.000 OA
ATOM     32  H   UNL     1       2.120  18.886  19.030  0.00  0.00    +0.000 HD
ENDBRANCH  29  31
ENDBRANCH  28  29
ENDBRANCH  26  28
ENDBRANCH  23  24
ENDBRANCH   5  23
TORSDOF 8
ENDMDL
