MODEL 1
REMARK VINA RESULT:      -7.1      0.000      0.000
REMARK  Name = 
REMARK  11 active torsions:
REMARK  status: ('A' for Active; 'I' for Inactive)
REMARK    1  A    between atoms: C_1  and  O_2
REMARK    2  A    between atoms: O_2  and  C_3
REMARK    3  A    between atoms: C_6  and  O_7
REMARK    4  A    between atoms: O_7  and  S_8
REMARK    5  A    between atoms: S_8  and  C_11
REMARK    6  A    between atoms: C_13  and  O_14
REMARK    7  A    between atoms: O_14  and  C_15
REMARK    8  A    between atoms: C_16  and  O_17
REMARK    9  A    between atoms: O_17  and  C_18
REMARK   10  A    between atoms: C_19  and  O_20
REMARK   11  A    between atoms: O_20  and  C_21
REMARK                            x       y       z     vdW  Elec       q    Type
REMARK                         _______ _______ _______ _____ _____    ______ ____
ROOT
ATOM      1  S   UNL     1       7.188   5.531  17.040  0.00  0.00    +0.000 S 
ATOM      2  O   UNL     1       7.808   4.221  16.934  0.00  0.00    +0.000 OA
ATOM      3  O   UNL     1       7.803   6.588  17.821  0.00  0.00    +0.000 OA
ENDROOT
BRANCH   1   4
ATOM      4  C   UNL     1       5.596   5.273  17.786  0.00  0.00    +0.000 A 
ATOM      5  C   UNL     1       5.323   3.997  18.279  0.00  0.00    +0.000 A 
ATOM      6  C   UNL     1       4.107   3.735  18.897  0.00  0.00    +0.000 A 
ATOM      7  C   UNL     1       3.124   4.751  18.989  0.00  0.00    +0.000 A 
ATOM      8  C   UNL     1       3.404   6.040  18.471  0.00  0.00    +0.000 A 
ATOM      9  C   UNL     1       4.654   6.294  17.880  0.00  0.00    +0.000 A 
BRANCH   6  10
ATOM     10  O   UNL     1       3.802   2.496  19.419  0.00  0.00    +0.000 OA
ATOM     11  C   UNL     1       3.585   1.462  18.461  0.00  0.00    +0.000 C 
ENDBRANCH   6  10
BRANCH   7  12
ATOM     12  O   UNL     1       1.924   4.348  19.530  0.00  0.00    +0.000 OA
ATOM     13  C   UNL     1       1.686   4.610  20.907  0.00  0.00    +0.000 C 
ENDBRANCH   7  12
BRANCH   8  14
ATOM     14  O   UNL     1       2.413   6.984  18.536  0.00  0.00    +0.000 OA
ATOM     15  C   UNL     1       2.561   8.187  17.794  0.00  0.00    +0.000 C 
ENDBRANCH   8  14
ENDBRANCH   1   4
BRANCH   1  16
ATOM     16  O   UNL     1       6.886   6.081  15.537  0.00  0.00    +0.000 OA
BRANCH  16  20
ATOM     17  C   UNL     1       6.000   3.369  12.480  0.00  0.00    +0.000 A 
ATOM     18  C   UNL     1       5.126   3.588  13.545  0.00  0.00    +0.000 A 
ATOM     19  C   UNL     1       5.442   4.510  14.548  0.00  0.00    +0.000 A 
ATOM     20  C   UNL     1       6.654   5.198  14.508  0.00  0.00    +0.000 A 
ATOM     21  C   UNL     1       7.534   4.974  13.446  0.00  0.00    +0.000 A 
ATOM     22  C   UNL     1       7.212   4.056  12.440  0.00  0.00    +0.000 A 
BRANCH  17  24
ATOM     23  C   UNL     1       6.555   1.473  11.181  0.00  0.00    +0.000 C 
ATOM     24  O   UNL     1       5.585   2.444  11.563  0.00  0.00    +0.000 OA
ENDBRANCH  17  24
ENDBRANCH  16  20
ENDBRANCH   1  16
TORSDOF 7
ENDMDL
MODEL 2
REMARK VINA RESULT:      -7.0      0.614      2.644
REMARK  Name = 
REMARK  11 active torsions:
REMARK  status: ('A' for Active; 'I' for Inactive)
REMARK    1  A    between atoms: C_1  and  O_2
REMARK    2  A    between atoms: O_2  and  C_3
REMARK    3  A    between atoms: C_6  and  O_7
REMARK    4  A    between atoms: O_7  and  S_8
REMARK    5  A    between atoms: S_8  and  C_11
REMARK    6  A    between atoms: C_13  and  O_14
REMARK    7  A    between atoms: O_14  and  C_15
REMARK    8  A    between atoms: C_16  and  O_17
REMARK    9  A    between atoms: O_17  and  C_18
REMARK   10  A    between atoms: C_19  and  O_20
REMARK   11  A    between atoms: O_20  and  C_21
REMARK                            x       y       z     vdW  Elec       q    Type
REMARK                         _______ _______ _______ _____ _____    ______ ____
ROOT
ATOM      1  S   UNL     1       7.306   5.602  17.290  0.00  0.00    +0.000 S 
ATOM      2  O   UNL     1       8.007   4.337  17.141  0.00  0.00    +0.000 OA
ATOM      3  O   UNL     1       7.844   6.661  18.122  0.00  0.00    +0.000 OA
ENDROOT
BRANCH   1   4
ATOM      4  C   UNL     1       5.723   5.215  17.999  0.00  0.00    +0.000 A 
ATOM      5  C   UNL     1       4.821   6.268  18.156  0.00  0.00    +0.000 A 
ATOM      6  C   UNL     1       3.557   6.028  18.679  0.00  0.00    +0.000 A 
ATOM      7  C   UNL     1       3.196   4.724  19.096  0.00  0.00    +0.000 A 
ATOM      8  C   UNL     1       4.124   3.664  18.946  0.00  0.00    +0.000 A 
ATOM      9  C   UNL     1       5.386   3.920  18.382  0.00  0.00    +0.000 A 
BRANCH   6  10
ATOM     10  O   UNL     1       2.626   7.034  18.833  0.00  0.00    +0.000 OA
ATOM     11  C   UNL     1       2.683   8.078  17.863  0.00  0.00    +0.000 C 
ENDBRANCH   6  10
BRANCH   7  12
ATOM     12  O   UNL     1       1.958   4.627  19.690  0.00  0.00    +0.000 OA
ATOM     13  C   UNL     1       1.899   4.517  21.107  0.00  0.00    +0.000 C 
ENDBRANCH   7  12
BRANCH   8  14
ATOM     14  O   UNL     1       3.758   2.424  19.403  0.00  0.00    +0.000 OA
ATOM     15  C   UNL     1       3.011   1.571  18.547  0.00  0.00    +0.000 C 
ENDBRANCH   8  14
ENDBRANCH   1   4
BRANCH   1  16
ATOM     16  O   UNL     1       6.991   6.193  15.805  0.00  0.00    +0.000 OA
BRANCH  16  20
ATOM     17  C   UNL     1       5.989   3.574  12.703  0.00  0.00    +0.000 A 
ATOM     18  C   UNL     1       5.139   3.789  13.788  0.00  0.00    +0.000 A 
ATOM     19  C   UNL     1       5.493   4.680  14.806  0.00  0.00    +0.000 A 
ATOM     20  C   UNL     1       6.721   5.339  14.760  0.00  0.00    +0.000 A 
ATOM     21  C   UNL     1       7.578   5.119  13.679  0.00  0.00    +0.000 A 
ATOM     22  C   UNL     1       7.217   4.232  12.658  0.00  0.00    +0.000 A 
BRANCH  17  24
ATOM     23  C   UNL     1       4.253   2.957  11.222  0.00  0.00    +0.000 C 
ATOM     24  O   UNL     1       5.538   2.681  11.772  0.00  0.00    +0.000 OA
ENDBRANCH  17  24
ENDBRANCH  16  20
ENDBRANCH   1  16
TORSDOF 7
ENDMDL
MODEL 3
REMARK VINA RESULT:      -6.8      0.903      1.335
REMARK  Name = 
REMARK  11 active torsions:
REMARK  status: ('A' for Active; 'I' for Inactive)
REMARK    1  A    between atoms: C_1  and  O_2
REMARK    2  A    between atoms: O_2  and  C_3
REMARK    3  A    between atoms: C_6  and  O_7
REMARK    4  A    between atoms: O_7  and  S_8
REMARK    5  A    between atoms: S_8  and  C_11
REMARK    6  A    between atoms: C_13  and  O_14
REMARK    7  A    between atoms: O_14  and  C_15
REMARK    8  A    between atoms: C_16  and  O_17
REMARK    9  A    between atoms: O_17  and  C_18
REMARK   10  A    between atoms: C_19  and  O_20
REMARK   11  A    between atoms: O_20  and  C_21
REMARK                            x       y       z     vdW  Elec       q    Type
REMARK                         _______ _______ _______ _____ _____    ______ ____
ROOT
ATOM      1  S   UNL     1       7.360   5.555  17.584  0.00  0.00    +0.000 S 
ATOM      2  O   UNL     1       8.031   4.277  17.418  0.00  0.00    +0.000 OA
ATOM      3  O   UNL     1       7.938   6.602  18.406  0.00  0.00    +0.000 OA
ENDROOT
BRANCH   1   4
ATOM      4  C   UNL     1       5.785   5.200  18.329  0.00  0.00    +0.000 A 
ATOM      5  C   UNL     1       5.522   3.871  18.657  0.00  0.00    +0.000 A 
ATOM      6  C   UNL     1       4.320   3.529  19.265  0.00  0.00    +0.000 A 
ATOM      7  C   UNL     1       3.342   4.523  19.514  0.00  0.00    +0.000 A 
ATOM      8  C   UNL     1       3.614   5.869  19.163  0.00  0.00    +0.000 A 
ATOM      9  C   UNL     1       4.850   6.200  18.580  0.00  0.00    +0.000 A 
BRANCH   6  10
ATOM     10  O   UNL     1       4.025   2.232  19.627  0.00  0.00    +0.000 OA
ATOM     11  C   UNL     1       3.735   1.344  18.549  0.00  0.00    +0.000 C 
ENDBRANCH   6  10
BRANCH   7  12
ATOM     12  O   UNL     1       2.155   4.053  20.027  0.00  0.00    +0.000 OA
ATOM     13  C   UNL     1       1.106   3.742  19.119  0.00  0.00    +0.000 C 
ENDBRANCH   7  12
BRANCH   8  14
ATOM     14  O   UNL     1       2.627   6.797  19.376  0.00  0.00    +0.000 OA
ATOM     15  C   UNL     1       2.353   7.752  18.360  0.00  0.00    +0.000 C 
ENDBRANCH   8  14
ENDBRANCH   1   4
BRANCH   1  16
ATOM     16  O   UNL     1       7.023   6.156  16.108  0.00  0.00    +0.000 OA
BRANCH  16  20
ATOM     17  C   UNL     1       5.860   3.640  12.977  0.00  0.00    +0.000 A 
ATOM     18  C   UNL     1       7.096   4.287  12.980  0.00  0.00    +0.000 A 
ATOM     19  C   UNL     1       7.465   5.114  14.046  0.00  0.00    +0.000 A 
ATOM     20  C   UNL     1       6.582   5.324  15.105  0.00  0.00    +0.000 A 
ATOM     21  C   UNL     1       5.340   4.684  15.099  0.00  0.00    +0.000 A 
ATOM     22  C   UNL     1       4.976   3.851  14.034  0.00  0.00    +0.000 A 
BRANCH  17  24
ATOM     23  C   UNL     1       4.335   3.042  11.272  0.00  0.00    +0.000 C 
ATOM     24  O   UNL     1       5.610   2.860  11.882  0.00  0.00    +0.000 OA
ENDBRANCH  17  24
ENDBRANCH  16  20
ENDBRANCH   1  16
TORSDOF 7
ENDMDL
MODEL 4
REMARK VINA RESULT:      -6.8      0.538      1.120
REMARK  Name = 
REMARK  11 active torsions:
REMARK  status: ('A' for Active; 'I' for Inactive)
REMARK    1  A    between atoms: C_1  and  O_2
REMARK    2  A    between atoms: O_2  and  C_3
REMARK    3  A    between atoms: C_6  and  O_7
REMARK    4  A    between atoms: O_7  and  S_8
REMARK    5  A    between atoms: S_8  and  C_11
REMARK    6  A    between atoms: C_13  and  O_14
REMARK    7  A    between atoms: O_14  and  C_15
REMARK    8  A    between atoms: C_16  and  O_17
REMARK    9  A    between atoms: O_17  and  C_18
REMARK   10  A    between atoms: C_19  and  O_20
REMARK   11  A    between atoms: O_20  and  C_21
REMARK                            x       y       z     vdW  Elec       q    Type
REMARK                         _______ _______ _______ _____ _____    ______ ____
ROOT
ATOM      1  S   UNL     1       7.094   5.648  17.197  0.00  0.00    +0.000 S 
ATOM      2  O   UNL     1       7.735   4.343  17.204  0.00  0.00    +0.000 OA
ATOM      3  O   UNL     1       7.621   6.744  17.987  0.00  0.00    +0.000 OA
ENDROOT
BRANCH   1   4
ATOM      4  C   UNL     1       5.441   5.396  17.799  0.00  0.00    +0.000 A 
ATOM      5  C   UNL     1       5.147   4.149  18.349  0.00  0.00    +0.000 A 
ATOM      6  C   UNL     1       3.881   3.896  18.862  0.00  0.00    +0.000 A 
ATOM      7  C   UNL     1       2.873   4.889  18.787  0.00  0.00    +0.000 A 
ATOM      8  C   UNL     1       3.178   6.148  18.213  0.00  0.00    +0.000 A 
ATOM      9  C   UNL     1       4.475   6.396  17.731  0.00  0.00    +0.000 A 
BRANCH   6  10
ATOM     10  O   UNL     1       3.550   2.686  19.434  0.00  0.00    +0.000 OA
ATOM     11  C   UNL     1       4.574   2.078  20.221  0.00  0.00    +0.000 C 
ENDBRANCH   6  10
BRANCH   7  12
ATOM     12  O   UNL     1       1.634   4.491  19.235  0.00  0.00    +0.000 OA
ATOM     13  C   UNL     1       1.296   4.744  20.592  0.00  0.00    +0.000 C 
ENDBRANCH   7  12
BRANCH   8  14
ATOM     14  O   UNL     1       2.166   7.068  18.116  0.00  0.00    +0.000 OA
ATOM     15  C   UNL     1       2.499   8.440  17.953  0.00  0.00    +0.000 C 
ENDBRANCH   8  14
ENDBRANCH   1   4
BRANCH   1  16
ATOM     16  O   UNL     1       6.930   6.131  15.650  0.00  0.00    +0.000 OA
BRANCH  16  20
ATOM     17  C   UNL     1       6.121   3.393  12.595  0.00  0.00    +0.000 A 
ATOM     18  C   UNL     1       7.302   4.136  12.623  0.00  0.00    +0.000 A 
ATOM     19  C   UNL     1       7.552   5.037  13.663  0.00  0.00    +0.000 A 
ATOM     20  C   UNL     1       6.605   5.223  14.669  0.00  0.00    +0.000 A 
ATOM     21  C   UNL     1       5.418   4.485  14.638  0.00  0.00    +0.000 A 
ATOM     22  C   UNL     1       5.174   3.579  13.600  0.00  0.00    +0.000 A 
BRANCH  17  24
ATOM     23  C   UNL     1       7.162   1.836  11.152  0.00  0.00    +0.000 C 
ATOM     24  O   UNL     1       5.987   2.547  11.530  0.00  0.00    +0.000 OA
ENDBRANCH  17  24
ENDBRANCH  16  20
ENDBRANCH   1  16
TORSDOF 7
ENDMDL
MODEL 5
REMARK VINA RESULT:      -6.8      0.305      2.758
REMARK  Name = 
REMARK  11 active torsions:
REMARK  status: ('A' for Active; 'I' for Inactive)
REMARK    1  A    between atoms: C_1  and  O_2
REMARK    2  A    between atoms: O_2  and  C_3
REMARK    3  A    between atoms: C_6  and  O_7
REMARK    4  A    between atoms: O_7  and  S_8
REMARK    5  A    between atoms: S_8  and  C_11
REMARK    6  A    between atoms: C_13  and  O_14
REMARK    7  A    between atoms: O_14  and  C_15
REMARK    8  A    between atoms: C_16  and  O_17
REMARK    9  A    between atoms: O_17  and  C_18
REMARK   10  A    between atoms: C_19  and  O_20
REMARK   11  A    between atoms: O_20  and  C_21
REMARK                            x       y       z     vdW  Elec       q    Type
REMARK                         _______ _______ _______ _____ _____    ______ ____
ROOT
ATOM      1  S   UNL     1       7.203   5.607  17.077  0.00  0.00    +0.000 S 
ATOM      2  O   UNL     1       7.944   4.363  16.954  0.00  0.00    +0.000 OA
ATOM      3  O   UNL     1       7.742   6.727  17.825  0.00  0.00    +0.000 OA
ENDROOT
BRANCH   1   4
ATOM      4  C   UNL     1       5.675   5.200  17.889  0.00  0.00    +0.000 A 
ATOM      5  C   UNL     1       4.799   6.251  18.159  0.00  0.00    +0.000 A 
ATOM      6  C   UNL     1       3.576   5.997  18.768  0.00  0.00    +0.000 A 
ATOM      7  C   UNL     1       3.236   4.678  19.156  0.00  0.00    +0.000 A 
ATOM      8  C   UNL     1       4.140   3.620  18.891  0.00  0.00    +0.000 A 
ATOM      9  C   UNL     1       5.357   3.892  18.242  0.00  0.00    +0.000 A 
BRANCH   6  10
ATOM     10  O   UNL     1       2.669   7.000  19.035  0.00  0.00    +0.000 OA
ATOM     11  C   UNL     1       2.406   7.896  17.955  0.00  0.00    +0.000 C 
ENDBRANCH   6  10
BRANCH   7  12
ATOM     12  O   UNL     1       2.047   4.564  19.839  0.00  0.00    +0.000 OA
ATOM     13  C   UNL     1       2.095   4.389  21.249  0.00  0.00    +0.000 C 
ENDBRANCH   7  12
BRANCH   8  14
ATOM     14  O   UNL     1       3.798   2.364  19.322  0.00  0.00    +0.000 OA
ATOM     15  C   UNL     1       3.143   1.483  18.419  0.00  0.00    +0.000 C 
ENDBRANCH   8  14
ENDBRANCH   1   4
BRANCH   1  16
ATOM     16  O   UNL     1       6.788   6.108  15.584  0.00  0.00    +0.000 OA
BRANCH  16  20
ATOM     17  C   UNL     1       6.069   3.351  12.525  0.00  0.00    +0.000 A 
ATOM     18  C   UNL     1       7.232   4.120  12.563  0.00  0.00    +0.000 A 
ATOM     19  C   UNL     1       7.453   5.027  13.604  0.00  0.00    +0.000 A 
ATOM     20  C   UNL     1       6.492   5.192  14.601  0.00  0.00    +0.000 A 
ATOM     21  C   UNL     1       5.323   4.428  14.560  0.00  0.00    +0.000 A 
ATOM     22  C   UNL     1       5.108   3.516  13.521  0.00  0.00    +0.000 A 
BRANCH  17  24
ATOM     23  C   UNL     1       7.128   1.739  11.157  0.00  0.00    +0.000 C 
ATOM     24  O   UNL     1       5.963   2.501  11.459  0.00  0.00    +0.000 OA
ENDBRANCH  17  24
ENDBRANCH  16  20
ENDBRANCH   1  16
TORSDOF 7
ENDMDL
MODEL 6
REMARK VINA RESULT:      -6.7      0.953      3.003
REMARK  Name = 
REMARK  11 active torsions:
REMARK  status: ('A' for Active; 'I' for Inactive)
REMARK    1  A    between atoms: C_1  and  O_2
REMARK    2  A    between atoms: O_2  and  C_3
REMARK    3  A    between atoms: C_6  and  O_7
REMARK    4  A    between atoms: O_7  and  S_8
REMARK    5  A    between atoms: S_8  and  C_11
REMARK    6  A    between atoms: C_13  and  O_14
REMARK    7  A    between atoms: O_14  and  C_15
REMARK    8  A    between atoms: C_16  and  O_17
REMARK    9  A    between atoms: O_17  and  C_18
REMARK   10  A    between atoms: C_19  and  O_20
REMARK   11  A    between atoms: O_20  and  C_21
REMARK                            x       y       z     vdW  Elec       q    Type
REMARK                         _______ _______ _______ _____ _____    ______ ____
ROOT
ATOM      1  S   UNL     1       7.078   6.198  17.596  0.00  0.00    +0.000 S 
ATOM      2  O   UNL     1       7.847   6.361  18.819  0.00  0.00    +0.000 OA
ATOM      3  O   UNL     1       6.812   7.326  16.724  0.00  0.00    +0.000 OA
ENDROOT
BRANCH   1   4
ATOM      4  C   UNL     1       5.475   5.608  18.089  0.00  0.00    +0.000 A 
ATOM      5  C   UNL     1       4.397   6.474  17.917  0.00  0.00    +0.000 A 
ATOM      6  C   UNL     1       3.114   6.065  18.257  0.00  0.00    +0.000 A 
ATOM      7  C   UNL     1       2.903   4.783  18.821  0.00  0.00    +0.000 A 
ATOM      8  C   UNL     1       4.008   3.915  19.007  0.00  0.00    +0.000 A 
ATOM      9  C   UNL     1       5.294   4.335  18.623  0.00  0.00    +0.000 A 
BRANCH   6  10
ATOM     10  O   UNL     1       2.015   6.879  18.084  0.00  0.00    +0.000 OA
ATOM     11  C   UNL     1       2.300   8.263  17.884  0.00  0.00    +0.000 C 
ENDBRANCH   6  10
BRANCH   7  12
ATOM     12  O   UNL     1       1.609   4.526  19.211  0.00  0.00    +0.000 OA
ATOM     13  C   UNL     1       1.306   4.558  20.600  0.00  0.00    +0.000 C 
ENDBRANCH   7  12
BRANCH   8  14
ATOM     14  O   UNL     1       3.775   2.700  19.598  0.00  0.00    +0.000 OA
ATOM     15  C   UNL     1       3.545   1.568  18.771  0.00  0.00    +0.000 C 
ENDBRANCH   8  14
ENDBRANCH   1   4
BRANCH   1  16
ATOM     16  O   UNL     1       7.743   4.991  16.727  0.00  0.00    +0.000 OA
BRANCH  16  20
ATOM     17  C   UNL     1       6.177   3.902  13.006  0.00  0.00    +0.000 A 
ATOM     18  C   UNL     1       7.270   4.760  13.121  0.00  0.00    +0.000 A 
ATOM     19  C   UNL     1       7.782   5.098  14.378  0.00  0.00    +0.000 A 
ATOM     20  C   UNL     1       7.179   4.603  15.533  0.00  0.00    +0.000 A 
ATOM     21  C   UNL     1       6.078   3.750  15.421  0.00  0.00    +0.000 A 
ATOM     22  C   UNL     1       5.573   3.407  14.161  0.00  0.00    +0.000 A 
BRANCH  17  24
ATOM     23  C   UNL     1       4.407   3.238  11.586  0.00  0.00    +0.000 C 
ATOM     24  O   UNL     1       5.765   3.644  11.728  0.00  0.00    +0.000 OA
ENDBRANCH  17  24
ENDBRANCH  16  20
ENDBRANCH   1  16
TORSDOF 7
ENDMDL
MODEL 7
REMARK VINA RESULT:      -6.6      0.996      1.538
REMARK  Name = 
REMARK  11 active torsions:
REMARK  status: ('A' for Active; 'I' for Inactive)
REMARK    1  A    between atoms: C_1  and  O_2
REMARK    2  A    between atoms: O_2  and  C_3
REMARK    3  A    between atoms: C_6  and  O_7
REMARK    4  A    between atoms: O_7  and  S_8
REMARK    5  A    between atoms: S_8  and  C_11
REMARK    6  A    between atoms: C_13  and  O_14
REMARK    7  A    between atoms: O_14  and  C_15
REMARK    8  A    between atoms: C_16  and  O_17
REMARK    9  A    between atoms: O_17  and  C_18
REMARK   10  A    between atoms: C_19  and  O_20
REMARK   11  A    between atoms: O_20  and  C_21
REMARK                            x       y       z     vdW  Elec       q    Type
REMARK                         _______ _______ _______ _____ _____    ______ ____
ROOT
ATOM      1  S   UNL     1       7.174   6.253  17.561  0.00  0.00    +0.000 S 
ATOM      2  O   UNL     1       7.955   6.408  18.777  0.00  0.00    +0.000 OA
ATOM      3  O   UNL     1       6.996   7.360  16.641  0.00  0.00    +0.000 OA
ENDROOT
BRANCH   1   4
ATOM      4  C   UNL     1       5.531   5.811  18.076  0.00  0.00    +0.000 A 
ATOM      5  C   UNL     1       5.376   4.588  18.728  0.00  0.00    +0.000 A 
ATOM      6  C   UNL     1       4.122   4.195  19.179  0.00  0.00    +0.000 A 
ATOM      7  C   UNL     1       2.991   5.014  18.939  0.00  0.00    +0.000 A 
ATOM      8  C   UNL     1       3.157   6.248  18.262  0.00  0.00    +0.000 A 
ATOM      9  C   UNL     1       4.440   6.644  17.843  0.00  0.00    +0.000 A 
BRANCH   6  10
ATOM     10  O   UNL     1       3.924   3.006  19.848  0.00  0.00    +0.000 OA
ATOM     11  C   UNL     1       3.783   1.852  19.022  0.00  0.00    +0.000 C 
ENDBRANCH   6  10
BRANCH   7  12
ATOM     12  O   UNL     1       1.790   4.476  19.342  0.00  0.00    +0.000 OA
ATOM     13  C   UNL     1       1.297   4.822  20.629  0.00  0.00    +0.000 C 
ENDBRANCH   7  12
BRANCH   8  14
ATOM     14  O   UNL     1       2.035   6.993  18.005  0.00  0.00    +0.000 OA
ATOM     15  C   UNL     1       2.166   8.398  17.846  0.00  0.00    +0.000 C 
ENDBRANCH   8  14
ENDBRANCH   1   4
BRANCH   1  16
ATOM     16  O   UNL     1       7.742   4.963  16.745  0.00  0.00    +0.000 OA
BRANCH  16  20
ATOM     17  C   UNL     1       6.124   3.890  13.042  0.00  0.00    +0.000 A 
ATOM     18  C   UNL     1       7.234   4.728  13.144  0.00  0.00    +0.000 A 
ATOM     19  C   UNL     1       7.762   5.062  14.395  0.00  0.00    +0.000 A 
ATOM     20  C   UNL     1       7.160   4.581  15.558  0.00  0.00    +0.000 A 
ATOM     21  C   UNL     1       6.044   3.747  15.458  0.00  0.00    +0.000 A 
ATOM     22  C   UNL     1       5.521   3.409  14.204  0.00  0.00    +0.000 A 
BRANCH  17  24
ATOM     23  C   UNL     1       4.318   3.299  11.634  0.00  0.00    +0.000 C 
ATOM     24  O   UNL     1       5.696   3.636  11.768  0.00  0.00    +0.000 OA
ENDBRANCH  17  24
ENDBRANCH  16  20
ENDBRANCH   1  16
TORSDOF 7
ENDMDL
MODEL 8
REMARK VINA RESULT:      -6.4      0.959      2.860
REMARK  Name = 
REMARK  11 active torsions:
REMARK  status: ('A' for Active; 'I' for Inactive)
REMARK    1  A    between atoms: C_1  and  O_2
REMARK    2  A    between atoms: O_2  and  C_3
REMARK    3  A    between atoms: C_6  and  O_7
REMARK    4  A    between atoms: O_7  and  S_8
REMARK    5  A    between atoms: S_8  and  C_11
REMARK    6  A    between atoms: C_13  and  O_14
REMARK    7  A    between atoms: O_14  and  C_15
REMARK    8  A    between atoms: C_16  and  O_17
REMARK    9  A    between atoms: O_17  and  C_18
REMARK   10  A    between atoms: C_19  and  O_20
REMARK   11  A    between atoms: O_20  and  C_21
REMARK                            x       y       z     vdW  Elec       q    Type
REMARK                         _______ _______ _______ _____ _____    ______ ____
ROOT
ATOM      1  S   UNL     1       7.318   5.550  17.427  0.00  0.00    +0.000 S 
ATOM      2  O   UNL     1       8.082   4.315  17.369  0.00  0.00    +0.000 OA
ATOM      3  O   UNL     1       7.715   6.634  18.305  0.00  0.00    +0.000 OA
ENDROOT
BRANCH   1   4
ATOM      4  C   UNL     1       5.681   5.102  17.956  0.00  0.00    +0.000 A 
ATOM      5  C   UNL     1       4.671   6.044  17.768  0.00  0.00    +0.000 A 
ATOM      6  C   UNL     1       3.365   5.746  18.135  0.00  0.00    +0.000 A 
ATOM      7  C   UNL     1       3.064   4.502  18.742  0.00  0.00    +0.000 A 
ATOM      8  C   UNL     1       4.100   3.557  18.943  0.00  0.00    +0.000 A 
ATOM      9  C   UNL     1       5.410   3.864  18.532  0.00  0.00    +0.000 A 
BRANCH   6  10
ATOM     10  O   UNL     1       2.330   6.637  17.948  0.00  0.00    +0.000 OA
ATOM     11  C   UNL     1       2.442   7.869  18.660  0.00  0.00    +0.000 C 
ENDBRANCH   6  10
BRANCH   7  12
ATOM     12  O   UNL     1       1.759   4.359  19.154  0.00  0.00    +0.000 OA
ATOM     13  C   UNL     1       0.936   3.423  18.470  0.00  0.00    +0.000 C 
ENDBRANCH   7  12
BRANCH   8  14
ATOM     14  O   UNL     1       3.782   2.383  19.575  0.00  0.00    +0.000 OA
ATOM     15  C   UNL     1       3.541   2.401  20.976  0.00  0.00    +0.000 C 
ENDBRANCH   8  14
ENDBRANCH   1   4
BRANCH   1  16
ATOM     16  O   UNL     1       7.149   6.122  15.911  0.00  0.00    +0.000 OA
BRANCH  16  20
ATOM     17  C   UNL     1       6.004   3.627  12.757  0.00  0.00    +0.000 A 
ATOM     18  C   UNL     1       7.219   4.312  12.749  0.00  0.00    +0.000 A 
ATOM     19  C   UNL     1       7.582   5.131  13.822  0.00  0.00    +0.000 A 
ATOM     20  C   UNL     1       6.714   5.294  14.901  0.00  0.00    +0.000 A 
ATOM     21  C   UNL     1       5.493   4.615  14.908  0.00  0.00    +0.000 A 
ATOM     22  C   UNL     1       5.135   3.790  13.835  0.00  0.00    +0.000 A 
BRANCH  17  24
ATOM     23  C   UNL     1       4.398   2.806  11.228  0.00  0.00    +0.000 C 
ATOM     24  O   UNL     1       5.757   2.858  11.654  0.00  0.00    +0.000 OA
ENDBRANCH  17  24
ENDBRANCH  16  20
ENDBRANCH   1  16
TORSDOF 7
ENDMDL
MODEL 9
REMARK VINA RESULT:      -6.4      1.155      1.374
REMARK  Name = 
REMARK  11 active torsions:
REMARK  status: ('A' for Active; 'I' for Inactive)
REMARK    1  A    between atoms: C_1  and  O_2
REMARK    2  A    between atoms: O_2  and  C_3
REMARK    3  A    between atoms: C_6  and  O_7
REMARK    4  A    between atoms: O_7  and  S_8
REMARK    5  A    between atoms: S_8  and  C_11
REMARK    6  A    between atoms: C_13  and  O_14
REMARK    7  A    between atoms: O_14  and  C_15
REMARK    8  A    between atoms: C_16  and  O_17
REMARK    9  A    between atoms: O_17  and  C_18
REMARK   10  A    between atoms: C_19  and  O_20
REMARK   11  A    between atoms: O_20  and  C_21
REMARK                            x       y       z     vdW  Elec       q    Type
REMARK                         _______ _______ _______ _____ _____    ______ ____
ROOT
ATOM      1  S   UNL     1       6.602   6.107  17.290  0.00  0.00    +0.000 S 
ATOM      2  O   UNL     1       7.580   6.650  18.217  0.00  0.00    +0.000 OA
ATOM      3  O   UNL     1       5.941   6.956  16.317  0.00  0.00    +0.000 OA
ENDROOT
BRANCH   1   4
ATOM      4  C   UNL     1       5.290   5.436  18.284  0.00  0.00    +0.000 A 
ATOM      5  C   UNL     1       5.305   4.061  18.514  0.00  0.00    +0.000 A 
ATOM      6  C   UNL     1       4.323   3.477  19.304  0.00  0.00    +0.000 A 
ATOM      7  C   UNL     1       3.280   4.269  19.842  0.00  0.00    +0.000 A 
ATOM      8  C   UNL     1       3.265   5.664  19.590  0.00  0.00    +0.000 A 
ATOM      9  C   UNL     1       4.287   6.241  18.816  0.00  0.00    +0.000 A 
BRANCH   6  10
ATOM     10  O   UNL     1       4.310   2.125  19.577  0.00  0.00    +0.000 OA
ATOM     11  C   UNL     1       3.785   1.294  18.542  0.00  0.00    +0.000 C 
ENDBRANCH   6  10
BRANCH   7  12
ATOM     12  O   UNL     1       2.311   3.568  20.523  0.00  0.00    +0.000 OA
ATOM     13  C   UNL     1       1.050   3.378  19.894  0.00  0.00    +0.000 C 
ENDBRANCH   7  12
BRANCH   8  14
ATOM     14  O   UNL     1       2.215   6.392  20.087  0.00  0.00    +0.000 OA
ATOM     15  C   UNL     1       1.973   7.691  19.565  0.00  0.00    +0.000 C 
ENDBRANCH   8  14
ENDBRANCH   1   4
BRANCH   1  16
ATOM     16  O   UNL     1       7.270   4.833  16.524  0.00  0.00    +0.000 OA
BRANCH  16  20
ATOM     17  C   UNL     1       6.092   3.908  12.620  0.00  0.00    +0.000 A 
ATOM     18  C   UNL     1       5.375   3.461  13.730  0.00  0.00    +0.000 A 
ATOM     19  C   UNL     1       5.784   3.795  15.025  0.00  0.00    +0.000 A 
ATOM     20  C   UNL     1       6.937   4.556  15.218  0.00  0.00    +0.000 A 
ATOM     21  C   UNL     1       7.661   4.997  14.108  0.00  0.00    +0.000 A 
ATOM     22  C   UNL     1       7.244   4.668  12.813  0.00  0.00    +0.000 A 
BRANCH  17  24
ATOM     23  C   UNL     1       4.228   3.126  11.394  0.00  0.00    +0.000 C 
ATOM     24  O   UNL     1       5.598   3.517  11.407  0.00  0.00    +0.000 OA
ENDBRANCH  17  24
ENDBRANCH  16  20
ENDBRANCH   1  16
TORSDOF 7
ENDMDL
