MODEL 1
REMARK VINA RESULT:      -7.3      0.000      0.000
REMARK  Name = 
REMARK  3 active torsions:
REMARK  status: ('A' for Active; 'I' for Inactive)
REMARK    1  A    between atoms: N_9  and  C_10
REMARK    2  A    between atoms: C_10  and  C_11
REMARK    3  A    between atoms: C_11  and  C_12
REMARK                            x       y       z     vdW  Elec       q    Type
REMARK                         _______ _______ _______ _____ _____    ______ ____
ROOT
ATOM      1  O   UNL     1       2.586   2.594  22.307  0.00  0.00    +0.000 OA
ATOM      2  C   UNL     1       2.483   2.815  21.097  0.00  0.00    +0.000 C 
ATOM      3  C   UNL     1       3.640   2.541  20.163  0.00  0.00    +0.000 C 
ATOM      4  C   UNL     1       3.433   3.200  18.796  0.00  0.00    +0.000 C 
ATOM      5  C   UNL     1       2.509   2.370  17.882  0.00  0.00    +0.000 C 
ATOM      6  C   UNL     1       1.144   3.037  17.990  0.00  0.00    +0.000 C 
ATOM      7  C   UNL     1       1.317   4.000  19.164  0.00  0.00    +0.000 C 
ATOM      8  C   UNL     1       1.158   3.236  20.497  0.00  0.00    +0.000 C 
ATOM      9  N   UNL     1       2.709   4.475  19.011  0.00  0.00    +0.000 NA
ENDROOT
BRANCH   9  10
ATOM     10  C   UNL     1       2.957   5.389  17.875  0.00  0.00    +0.000 C 
BRANCH  10  11
ATOM     11  C   UNL     1       4.178   6.314  18.015  0.00  0.00    +0.000 C 
BRANCH  11  12
ATOM     12  C   UNL     1       5.420   5.654  17.455  0.00  0.00    +0.000 A 
ATOM     13  C   UNL     1       6.469   5.275  18.300  0.00  0.00    +0.000 A 
ATOM     14  C   UNL     1       7.606   4.711  17.737  0.00  0.00    +0.000 A 
ATOM     15  N   UNL     1       7.762   4.500  16.415  0.00  0.00    +0.000 NA
ATOM     16  C   UNL     1       6.738   4.876  15.618  0.00  0.00    +0.000 A 
ATOM     17  C   UNL     1       5.567   5.449  16.083  0.00  0.00    +0.000 A 
ENDBRANCH  11  12
ENDBRANCH  10  11
ENDBRANCH   9  10
TORSDOF 3
ENDMDL
MODEL 2
REMARK VINA RESULT:      -7.3      0.118      1.144
REMARK  Name = 
REMARK  3 active torsions:
REMARK  status: ('A' for Active; 'I' for Inactive)
REMARK    1  A    between atoms: N_9  and  C_10
REMARK    2  A    between atoms: C_10  and  C_11
REMARK    3  A    between atoms: C_11  and  C_12
REMARK                            x       y       z     vdW  Elec       q    Type
REMARK                         _______ _______ _______ _____ _____    ______ ____
ROOT
ATOM      1  O   UNL     1       2.798   2.511  22.299  0.00  0.00    +0.000 OA
ATOM      2  C   UNL     1       2.623   2.746  21.100  0.00  0.00    +0.000 C 
ATOM      3  C   UNL     1       3.702   2.432  20.088  0.00  0.00    +0.000 C 
ATOM      4  C   UNL     1       3.430   3.109  18.742  0.00  0.00    +0.000 C 
ATOM      5  C   UNL     1       2.412   2.326  17.888  0.00  0.00    +0.000 C 
ATOM      6  C   UNL     1       1.087   3.048  18.093  0.00  0.00    +0.000 C 
ATOM      7  C   UNL     1       1.379   3.994  19.257  0.00  0.00    +0.000 C 
ATOM      8  C   UNL     1       1.279   3.227  20.594  0.00  0.00    +0.000 C 
ATOM      9  N   UNL     1       2.776   4.412  19.012  0.00  0.00    +0.000 NA
ENDROOT
BRANCH   9  10
ATOM     10  C   UNL     1       2.985   5.324  17.867  0.00  0.00    +0.000 C 
BRANCH  10  11
ATOM     11  C   UNL     1       4.159   6.308  18.001  0.00  0.00    +0.000 C 
BRANCH  11  12
ATOM     12  C   UNL     1       5.428   5.713  17.431  0.00  0.00    +0.000 A 
ATOM     13  C   UNL     1       5.595   5.580  16.047  0.00  0.00    +0.000 A 
ATOM     14  C   UNL     1       6.757   4.990  15.571  0.00  0.00    +0.000 A 
ATOM     15  N   UNL     1       7.747   4.536  16.365  0.00  0.00    +0.000 NA
ATOM     16  C   UNL     1       7.564   4.672  17.697  0.00  0.00    +0.000 A 
ATOM     17  C   UNL     1       6.439   5.242  18.268  0.00  0.00    +0.000 A 
ENDBRANCH  11  12
ENDBRANCH  10  11
ENDBRANCH   9  10
TORSDOF 3
ENDMDL
MODEL 3
REMARK VINA RESULT:      -7.1      1.081      1.419
REMARK  Name = 
REMARK  3 active torsions:
REMARK  status: ('A' for Active; 'I' for Inactive)
REMARK    1  A    between atoms: N_9  and  C_10
REMARK    2  A    between atoms: C_10  and  C_11
REMARK    3  A    between atoms: C_11  and  C_12
REMARK                            x       y       z     vdW  Elec       q    Type
REMARK                         _______ _______ _______ _____ _____    ______ ____
ROOT
ATOM      1  O   UNL     1       5.073   1.435  20.417  0.00  0.00    +0.000 OA
ATOM      2  C   UNL     1       4.126   2.076  19.954  0.00  0.00    +0.000 C 
ATOM      3  C   UNL     1       3.710   1.903  18.510  0.00  0.00    +0.000 C 
ATOM      4  C   UNL     1       2.769   3.021  18.053  0.00  0.00    +0.000 C 
ATOM      5  C   UNL     1       1.312   2.774  18.495  0.00  0.00    +0.000 C 
ATOM      6  C   UNL     1       1.124   3.636  19.736  0.00  0.00    +0.000 C 
ATOM      7  C   UNL     1       2.547   4.075  20.077  0.00  0.00    +0.000 C 
ATOM      8  C   UNL     1       3.272   2.950  20.849  0.00  0.00    +0.000 C 
ATOM      9  N   UNL     1       3.171   4.267  18.750  0.00  0.00    +0.000 NA
ENDROOT
BRANCH   9  10
ATOM     10  C   UNL     1       2.704   5.441  17.983  0.00  0.00    +0.000 C 
BRANCH  10  11
ATOM     11  C   UNL     1       3.775   6.498  17.662  0.00  0.00    +0.000 C 
BRANCH  11  12
ATOM     12  C   UNL     1       5.083   5.841  17.281  0.00  0.00    +0.000 A 
ATOM     13  C   UNL     1       6.161   5.827  18.174  0.00  0.00    +0.000 A 
ATOM     14  C   UNL     1       7.355   5.249  17.766  0.00  0.00    +0.000 A 
ATOM     15  N   UNL     1       7.542   4.691  16.553  0.00  0.00    +0.000 NA
ATOM     16  C   UNL     1       6.489   4.717  15.707  0.00  0.00    +0.000 A 
ATOM     17  C   UNL     1       5.261   5.274  16.019  0.00  0.00    +0.000 A 
ENDBRANCH  11  12
ENDBRANCH  10  11
ENDBRANCH   9  10
TORSDOF 3
ENDMDL
MODEL 4
REMARK VINA RESULT:      -7.1      1.048      1.795
REMARK  Name = 
REMARK  3 active torsions:
REMARK  status: ('A' for Active; 'I' for Inactive)
REMARK    1  A    between atoms: N_9  and  C_10
REMARK    2  A    between atoms: C_10  and  C_11
REMARK    3  A    between atoms: C_11  and  C_12
REMARK                            x       y       z     vdW  Elec       q    Type
REMARK                         _______ _______ _______ _____ _____    ______ ____
ROOT
ATOM      1  O   UNL     1       5.014   1.540  20.397  0.00  0.00    +0.000 OA
ATOM      2  C   UNL     1       4.087   2.204  19.926  0.00  0.00    +0.000 C 
ATOM      3  C   UNL     1       3.700   2.064  18.471  0.00  0.00    +0.000 C 
ATOM      4  C   UNL     1       2.785   3.205  18.016  0.00  0.00    +0.000 C 
ATOM      5  C   UNL     1       1.316   2.972  18.422  0.00  0.00    +0.000 C 
ATOM      6  C   UNL     1       1.114   3.814  19.676  0.00  0.00    +0.000 C 
ATOM      7  C   UNL     1       2.536   4.224  20.054  0.00  0.00    +0.000 C 
ATOM      8  C   UNL     1       3.228   3.074  20.820  0.00  0.00    +0.000 C 
ATOM      9  N   UNL     1       3.191   4.431  18.744  0.00  0.00    +0.000 NA
ENDROOT
BRANCH   9  10
ATOM     10  C   UNL     1       2.758   5.627  17.990  0.00  0.00    +0.000 C 
BRANCH  10  11
ATOM     11  C   UNL     1       3.857   6.660  17.687  0.00  0.00    +0.000 C 
BRANCH  11  12
ATOM     12  C   UNL     1       5.145   5.974  17.285  0.00  0.00    +0.000 A 
ATOM     13  C   UNL     1       5.314   5.481  15.986  0.00  0.00    +0.000 A 
ATOM     14  C   UNL     1       6.495   4.822  15.673  0.00  0.00    +0.000 A 
ATOM     15  N   UNL     1       7.500   4.629  16.550  0.00  0.00    +0.000 NA
ATOM     16  C   UNL     1       7.314   5.111  17.798  0.00  0.00    +0.000 A 
ATOM     17  C   UNL     1       6.172   5.778  18.207  0.00  0.00    +0.000 A 
ENDBRANCH  11  12
ENDBRANCH  10  11
ENDBRANCH   9  10
TORSDOF 3
ENDMDL
MODEL 5
REMARK VINA RESULT:      -7.0      2.239      5.606
REMARK  Name = 
REMARK  3 active torsions:
REMARK  status: ('A' for Active; 'I' for Inactive)
REMARK    1  A    between atoms: N_9  and  C_10
REMARK    2  A    between atoms: C_10  and  C_11
REMARK    3  A    between atoms: C_11  and  C_12
REMARK                            x       y       z     vdW  Elec       q    Type
REMARK                         _______ _______ _______ _____ _____    ______ ____
ROOT
ATOM      1  O   UNL     1       8.511   4.056  17.825  0.00  0.00    +0.000 OA
ATOM      2  C   UNL     1       7.420   4.546  17.523  0.00  0.00    +0.000 C 
ATOM      3  C   UNL     1       6.482   5.057  18.594  0.00  0.00    +0.000 C 
ATOM      4  C   UNL     1       5.072   5.293  18.046  0.00  0.00    +0.000 C 
ATOM      5  C   UNL     1       4.950   6.641  17.307  0.00  0.00    +0.000 C 
ATOM      6  C   UNL     1       5.059   6.292  15.829  0.00  0.00    +0.000 C 
ATOM      7  C   UNL     1       5.521   4.836  15.845  0.00  0.00    +0.000 C 
ATOM      8  C   UNL     1       7.048   4.773  16.072  0.00  0.00    +0.000 C 
ATOM      9  N   UNL     1       4.809   4.266  17.010  0.00  0.00    +0.000 NA
ENDROOT
BRANCH   9  10
ATOM     10  C   UNL     1       3.351   4.083  16.846  0.00  0.00    +0.000 C 
BRANCH  10  11
ATOM     11  C   UNL     1       2.769   2.788  17.439  0.00  0.00    +0.000 C 
BRANCH  11  12
ATOM     12  C   UNL     1       2.413   2.977  18.897  0.00  0.00    +0.000 A 
ATOM     13  C   UNL     1       1.276   3.707  19.265  0.00  0.00    +0.000 A 
ATOM     14  C   UNL     1       1.011   3.890  20.615  0.00  0.00    +0.000 A 
ATOM     15  N   UNL     1       1.785   3.400  21.604  0.00  0.00    +0.000 NA
ATOM     16  C   UNL     1       2.878   2.701  21.226  0.00  0.00    +0.000 A 
ATOM     17  C   UNL     1       3.229   2.469  19.907  0.00  0.00    +0.000 A 
ENDBRANCH  11  12
ENDBRANCH  10  11
ENDBRANCH   9  10
TORSDOF 3
ENDMDL
MODEL 6
REMARK VINA RESULT:      -7.0      0.950      1.459
REMARK  Name = 
REMARK  3 active torsions:
REMARK  status: ('A' for Active; 'I' for Inactive)
REMARK    1  A    between atoms: N_9  and  C_10
REMARK    2  A    between atoms: C_10  and  C_11
REMARK    3  A    between atoms: C_11  and  C_12
REMARK                            x       y       z     vdW  Elec       q    Type
REMARK                         _______ _______ _______ _____ _____    ______ ____
ROOT
ATOM      1  O   UNL     1       1.250   2.519  22.070  0.00  0.00    +0.000 OA
ATOM      2  C   UNL     1       1.724   2.711  20.947  0.00  0.00    +0.000 C 
ATOM      3  C   UNL     1       3.183   3.072  20.779  0.00  0.00    +0.000 C 
ATOM      4  C   UNL     1       3.478   3.602  19.373  0.00  0.00    +0.000 C 
ATOM      5  C   UNL     1       3.648   2.466  18.345  0.00  0.00    +0.000 C 
ATOM      6  C   UNL     1       2.308   2.382  17.624  0.00  0.00    +0.000 C 
ATOM      7  C   UNL     1       1.395   3.259  18.479  0.00  0.00    +0.000 C 
ATOM      8  C   UNL     1       0.897   2.461  19.704  0.00  0.00    +0.000 C 
ATOM      9  N   UNL     1       2.287   4.356  18.914  0.00  0.00    +0.000 NA
ENDROOT
BRANCH   9  10
ATOM     10  C   UNL     1       2.681   5.321  17.864  0.00  0.00    +0.000 C 
BRANCH  10  11
ATOM     11  C   UNL     1       3.790   6.314  18.251  0.00  0.00    +0.000 C 
BRANCH  11  12
ATOM     12  C   UNL     1       5.015   6.116  17.386  0.00  0.00    +0.000 A 
ATOM     13  C   UNL     1       4.933   5.399  16.187  0.00  0.00    +0.000 A 
ATOM     14  C   UNL     1       6.092   5.206  15.446  0.00  0.00    +0.000 A 
ATOM     15  N   UNL     1       7.301   5.675  15.811  0.00  0.00    +0.000 NA
ATOM     16  C   UNL     1       7.357   6.363  16.973  0.00  0.00    +0.000 A 
ATOM     17  C   UNL     1       6.260   6.603  17.782  0.00  0.00    +0.000 A 
ENDBRANCH  11  12
ENDBRANCH  10  11
ENDBRANCH   9  10
TORSDOF 3
ENDMDL
MODEL 7
REMARK VINA RESULT:      -7.0      2.813      5.791
REMARK  Name = 
REMARK  3 active torsions:
REMARK  status: ('A' for Active; 'I' for Inactive)
REMARK    1  A    between atoms: N_9  and  C_10
REMARK    2  A    between atoms: C_10  and  C_11
REMARK    3  A    between atoms: C_11  and  C_12
REMARK                            x       y       z     vdW  Elec       q    Type
REMARK                         _______ _______ _______ _____ _____    ______ ____
ROOT
ATOM      1  O   UNL     1       7.390   5.319  14.685  0.00  0.00    +0.000 OA
ATOM      2  C   UNL     1       6.803   5.255  15.768  0.00  0.00    +0.000 C 
ATOM      3  C   UNL     1       5.721   4.224  15.998  0.00  0.00    +0.000 C 
ATOM      4  C   UNL     1       4.896   4.536  17.250  0.00  0.00    +0.000 C 
ATOM      5  C   UNL     1       5.600   4.076  18.543  0.00  0.00    +0.000 C 
ATOM      6  C   UNL     1       6.244   5.334  19.111  0.00  0.00    +0.000 C 
ATOM      7  C   UNL     1       6.113   6.341  17.970  0.00  0.00    +0.000 C 
ATOM      8  C   UNL     1       7.239   6.114  16.937  0.00  0.00    +0.000 C 
ATOM      9  N   UNL     1       4.800   6.011  17.374  0.00  0.00    +0.000 NA
ENDROOT
BRANCH   9  10
ATOM     10  C   UNL     1       3.616   6.368  18.184  0.00  0.00    +0.000 C 
BRANCH  10  11
ATOM     11  C   UNL     1       2.333   5.576  17.879  0.00  0.00    +0.000 C 
BRANCH  11  12
ATOM     12  C   UNL     1       1.998   4.636  19.017  0.00  0.00    +0.000 A 
ATOM     13  C   UNL     1       1.252   3.474  18.785  0.00  0.00    +0.000 A 
ATOM     14  C   UNL     1       0.933   2.663  19.865  0.00  0.00    +0.000 A 
ATOM     15  N   UNL     1       1.303   2.924  21.134  0.00  0.00    +0.000 NA
ATOM     16  C   UNL     1       2.020   4.051  21.335  0.00  0.00    +0.000 A 
ATOM     17  C   UNL     1       2.384   4.925  20.325  0.00  0.00    +0.000 A 
ENDBRANCH  11  12
ENDBRANCH  10  11
ENDBRANCH   9  10
TORSDOF 3
ENDMDL
MODEL 8
REMARK VINA RESULT:      -7.0      2.796      5.651
REMARK  Name = 
REMARK  3 active torsions:
REMARK  status: ('A' for Active; 'I' for Inactive)
REMARK    1  A    between atoms: N_9  and  C_10
REMARK    2  A    between atoms: C_10  and  C_11
REMARK    3  A    between atoms: C_11  and  C_12
REMARK                            x       y       z     vdW  Elec       q    Type
REMARK                         _______ _______ _______ _____ _____    ______ ____
ROOT
ATOM      1  O   UNL     1       7.389   5.371  14.783  0.00  0.00    +0.000 OA
ATOM      2  C   UNL     1       6.776   5.293  15.851  0.00  0.00    +0.000 C 
ATOM      3  C   UNL     1       5.666   4.282  16.031  0.00  0.00    +0.000 C 
ATOM      4  C   UNL     1       4.821   4.583  17.272  0.00  0.00    +0.000 C 
ATOM      5  C   UNL     1       5.485   4.073  18.568  0.00  0.00    +0.000 C 
ATOM      6  C   UNL     1       6.146   5.301  19.182  0.00  0.00    +0.000 C 
ATOM      7  C   UNL     1       6.063   6.339  18.065  0.00  0.00    +0.000 C 
ATOM      8  C   UNL     1       7.207   6.111  17.051  0.00  0.00    +0.000 C 
ATOM      9  N   UNL     1       4.757   6.056  17.432  0.00  0.00    +0.000 NA
ENDROOT
BRANCH   9  10
ATOM     10  C   UNL     1       3.564   6.421  18.226  0.00  0.00    +0.000 C 
BRANCH  10  11
ATOM     11  C   UNL     1       2.273   5.657  17.884  0.00  0.00    +0.000 C 
BRANCH  11  12
ATOM     12  C   UNL     1       1.942   4.649  18.963  0.00  0.00    +0.000 A 
ATOM     13  C   UNL     1       2.169   4.948  20.311  0.00  0.00    +0.000 A 
ATOM     14  C   UNL     1       1.889   3.977  21.264  0.00  0.00    +0.000 A 
ATOM     15  N   UNL     1       1.404   2.755  20.969  0.00  0.00    +0.000 NA
ATOM     16  C   UNL     1       1.196   2.488  19.661  0.00  0.00    +0.000 A 
ATOM     17  C   UNL     1       1.448   3.386  18.639  0.00  0.00    +0.000 A 
ENDBRANCH  11  12
ENDBRANCH  10  11
ENDBRANCH   9  10
TORSDOF 3
ENDMDL
MODEL 9
REMARK VINA RESULT:      -6.9      1.394      2.111
REMARK  Name = 
REMARK  3 active torsions:
REMARK  status: ('A' for Active; 'I' for Inactive)
REMARK    1  A    between atoms: N_9  and  C_10
REMARK    2  A    between atoms: C_10  and  C_11
REMARK    3  A    between atoms: C_11  and  C_12
REMARK                            x       y       z     vdW  Elec       q    Type
REMARK                         _______ _______ _______ _____ _____    ______ ____
ROOT
ATOM      1  O   UNL     1       3.803   1.000  18.247  0.00  0.00    +0.000 OA
ATOM      2  C   UNL     1       3.334   2.072  18.639  0.00  0.00    +0.000 C 
ATOM      3  C   UNL     1       2.136   2.686  17.953  0.00  0.00    +0.000 C 
ATOM      4  C   UNL     1       1.938   4.149  18.358  0.00  0.00    +0.000 C 
ATOM      5  C   UNL     1       1.221   4.287  19.716  0.00  0.00    +0.000 C 
ATOM      6  C   UNL     1       2.332   4.550  20.725  0.00  0.00    +0.000 C 
ATOM      7  C   UNL     1       3.603   4.255  19.931  0.00  0.00    +0.000 C 
ATOM      8  C   UNL     1       3.860   2.731  19.898  0.00  0.00    +0.000 C 
ATOM      9  N   UNL     1       3.278   4.746  18.574  0.00  0.00    +0.000 NA
ENDROOT
BRANCH   9  10
ATOM     10  C   UNL     1       3.202   6.215  18.422  0.00  0.00    +0.000 C 
BRANCH  10  11
ATOM     11  C   UNL     1       4.120   6.825  17.349  0.00  0.00    +0.000 C 
BRANCH  11  12
ATOM     12  C   UNL     1       5.355   5.973  17.150  0.00  0.00    +0.000 A 
ATOM     13  C   UNL     1       6.388   5.986  18.094  0.00  0.00    +0.000 A 
ATOM     14  C   UNL     1       7.521   5.221  17.849  0.00  0.00    +0.000 A 
ATOM     15  N   UNL     1       7.686   4.456  16.752  0.00  0.00    +0.000 NA
ATOM     16  C   UNL     1       6.677   4.461  15.854  0.00  0.00    +0.000 A 
ATOM     17  C   UNL     1       5.512   5.193  16.005  0.00  0.00    +0.000 A 
ENDBRANCH  11  12
ENDBRANCH  10  11
ENDBRANCH   9  10
TORSDOF 3
ENDMDL
