MODEL 1
REMARK VINA RESULT:      -7.7      0.000      0.000
REMARK  Name = 
REMARK  9 active torsions:
REMARK  status: ('A' for Active; 'I' for Inactive)
REMARK    1  A    between atoms: C_1  and  C_2
REMARK    2  A    between atoms: C_5  and  C_6
REMARK    3  A    between atoms: C_6  and  C_8
REMARK    4  A    between atoms: C_8  and  C_9
REMARK    5  A    between atoms: C_9  and  C_10
REMARK    6  A    between atoms: C_10  and  C_11
REMARK    7  A    between atoms: C_11  and  C_12
REMARK    8  A    between atoms: C_11  and  C_13
REMARK    9  A    between atoms: C_11  and  C_14
REMARK                            x       y       z     vdW  Elec       q    Type
REMARK                         _______ _______ _______ _____ _____    ______ ____
ROOT
ATOM      1  C   UNL     1       3.009   4.162  18.346  0.00  0.00    +0.000 C 
ATOM      2  C   UNL     1       1.471   4.117  18.321  0.00  0.00    +0.000 C 
ATOM      3  C   UNL     1       1.079   3.179  19.441  0.00  0.00    +0.000 C 
ATOM      4  N   UNL     1       2.195   2.248  19.615  0.00  0.00    +0.000 NA
ATOM      5  C   UNL     1       3.406   2.855  19.033  0.00  0.00    +0.000 C 
ATOM      6  H   UNL     1       1.985   1.387  19.108  0.00  0.00    +0.000 HD
ENDROOT
BRANCH   1   7
ATOM      7  C   UNL     1       3.489   5.471  19.040  0.00  0.00    +0.000 C 
ATOM      8  O   UNL     1       4.601   5.527  19.576  0.00  0.00    +0.000 OA
BRANCH   7  13
ATOM      9  C   UNL     1       0.651  10.569  19.126  0.00  0.00    +0.000 C 
ATOM     10  C   UNL     1       1.346   9.238  19.105  0.00  0.00    +0.000 A 
ATOM     11  C   UNL     1       1.960   8.811  17.924  0.00  0.00    +0.000 A 
ATOM     12  C   UNL     1       2.633   7.588  17.865  0.00  0.00    +0.000 A 
ATOM     13  C   UNL     1       2.740   6.772  18.988  0.00  0.00    +0.000 A 
ATOM     14  C   UNL     1       2.080   7.176  20.160  0.00  0.00    +0.000 A 
ATOM     15  C   UNL     1       1.385   8.388  20.217  0.00  0.00    +0.000 A 
ATOM     16 CL   UNL     1       0.584   8.798  21.691  0.00  0.00    +0.000 Cl
ENDBRANCH   7  13
ENDBRANCH   1   7
BRANCH   1  17
ATOM     17  C   UNL     1       3.510   4.150  16.865  0.00  0.00    +0.000 C 
BRANCH  17  18
ATOM     18  C   UNL     1       4.930   3.589  16.638  0.00  0.00    +0.000 C 
BRANCH  18  19
ATOM     19  C   UNL     1       5.925   4.576  15.961  0.00  0.00    +0.000 C 
ATOM     20  C   UNL     1       5.323   5.987  15.848  0.00  0.00    +0.000 C 
ATOM     21  C   UNL     1       7.193   4.662  16.835  0.00  0.00    +0.000 C 
ATOM     22  C   UNL     1       6.331   4.079  14.565  0.00  0.00    +0.000 C 
ENDBRANCH  18  19
ENDBRANCH  17  18
ENDBRANCH   1  17
TORSDOF 5
ENDMDL
MODEL 2
REMARK VINA RESULT:      -7.5      0.273      1.004
REMARK  Name = 
REMARK  9 active torsions:
REMARK  status: ('A' for Active; 'I' for Inactive)
REMARK    1  A    between atoms: C_1  and  C_2
REMARK    2  A    between atoms: C_5  and  C_6
REMARK    3  A    between atoms: C_6  and  C_8
REMARK    4  A    between atoms: C_8  and  C_9
REMARK    5  A    between atoms: C_9  and  C_10
REMARK    6  A    between atoms: C_10  and  C_11
REMARK    7  A    between atoms: C_11  and  C_12
REMARK    8  A    between atoms: C_11  and  C_13
REMARK    9  A    between atoms: C_11  and  C_14
REMARK                            x       y       z     vdW  Elec       q    Type
REMARK                         _______ _______ _______ _____ _____    ______ ____
ROOT
ATOM      1  C   UNL     1       2.932   3.995  18.197  0.00  0.00    +0.000 C 
ATOM      2  C   UNL     1       1.398   4.021  18.087  0.00  0.00    +0.000 C 
ATOM      3  C   UNL     1       0.904   3.029  19.118  0.00  0.00    +0.000 C 
ATOM      4  N   UNL     1       1.970   2.041  19.287  0.00  0.00    +0.000 NA
ATOM      5  C   UNL     1       3.235   2.629  18.814  0.00  0.00    +0.000 C 
ATOM      6  H   UNL     1       1.754   1.224  18.712  0.00  0.00    +0.000 HD
ENDROOT
BRANCH   1   7
ATOM      7  C   UNL     1       3.426   5.233  19.004  0.00  0.00    +0.000 C 
ATOM      8  O   UNL     1       4.490   5.191  19.631  0.00  0.00    +0.000 OA
BRANCH   7  13
ATOM      9  C   UNL     1       0.912  10.497  19.148  0.00  0.00    +0.000 C 
ATOM     10  C   UNL     1       1.523   9.126  19.112  0.00  0.00    +0.000 A 
ATOM     11  C   UNL     1       2.117   8.679  17.928  0.00  0.00    +0.000 A 
ATOM     12  C   UNL     1       2.713   7.417  17.855  0.00  0.00    +0.000 A 
ATOM     13  C   UNL     1       2.760   6.579  18.966  0.00  0.00    +0.000 A 
ATOM     14  C   UNL     1       2.117   7.006  20.140  0.00  0.00    +0.000 A 
ATOM     15  C   UNL     1       1.500   8.258  20.210  0.00  0.00    +0.000 A 
ATOM     16 CL   UNL     1       0.715   8.695  21.686  0.00  0.00    +0.000 Cl
ENDBRANCH   7  13
ENDBRANCH   1   7
BRANCH   1  17
ATOM     17  C   UNL     1       3.515   4.058  16.747  0.00  0.00    +0.000 C 
BRANCH  17  18
ATOM     18  C   UNL     1       4.991   3.632  16.595  0.00  0.00    +0.000 C 
BRANCH  18  19
ATOM     19  C   UNL     1       5.879   4.623  15.789  0.00  0.00    +0.000 C 
ATOM     20  C   UNL     1       7.289   4.731  16.395  0.00  0.00    +0.000 C 
ATOM     21  C   UNL     1       6.015   4.091  14.347  0.00  0.00    +0.000 C 
ATOM     22  C   UNL     1       5.238   6.019  15.733  0.00  0.00    +0.000 C 
ENDBRANCH  18  19
ENDBRANCH  17  18
ENDBRANCH   1  17
TORSDOF 5
ENDMDL
MODEL 3
REMARK VINA RESULT:      -7.5      1.211      1.876
REMARK  Name = 
REMARK  9 active torsions:
REMARK  status: ('A' for Active; 'I' for Inactive)
REMARK    1  A    between atoms: C_1  and  C_2
REMARK    2  A    between atoms: C_5  and  C_6
REMARK    3  A    between atoms: C_6  and  C_8
REMARK    4  A    between atoms: C_8  and  C_9
REMARK    5  A    between atoms: C_9  and  C_10
REMARK    6  A    between atoms: C_10  and  C_11
REMARK    7  A    between atoms: C_11  and  C_12
REMARK    8  A    between atoms: C_11  and  C_13
REMARK    9  A    between atoms: C_11  and  C_14
REMARK                            x       y       z     vdW  Elec       q    Type
REMARK                         _______ _______ _______ _____ _____    ______ ____
ROOT
ATOM      1  C   UNL     1       3.021   3.776  18.065  0.00  0.00    +0.000 C 
ATOM      2  C   UNL     1       1.486   3.826  17.966  0.00  0.00    +0.000 C 
ATOM      3  C   UNL     1       0.992   2.653  18.783  0.00  0.00    +0.000 C 
ATOM      4  N   UNL     1       2.055   1.648  18.752  0.00  0.00    +0.000 NA
ATOM      5  C   UNL     1       3.321   2.314  18.401  0.00  0.00    +0.000 C 
ATOM      6  H   UNL     1       1.835   0.961  18.029  0.00  0.00    +0.000 HD
ENDROOT
BRANCH   1   7
ATOM      7  C   UNL     1       3.520   4.829  19.098  0.00  0.00    +0.000 C 
ATOM      8  O   UNL     1       4.664   4.763  19.561  0.00  0.00    +0.000 OA
BRANCH   7  13
ATOM      9  C   UNL     1       0.444   9.633  20.325  0.00  0.00    +0.000 C 
ATOM     10  C   UNL     1       1.269   8.418  20.015  0.00  0.00    +0.000 A 
ATOM     11  C   UNL     1       1.302   7.367  20.937  0.00  0.00    +0.000 A 
ATOM     12  C   UNL     1       2.042   6.209  20.681  0.00  0.00    +0.000 A 
ATOM     13  C   UNL     1       2.744   6.055  19.489  0.00  0.00    +0.000 A 
ATOM     14  C   UNL     1       2.754   7.131  18.586  0.00  0.00    +0.000 A 
ATOM     15  C   UNL     1       2.034   8.300  18.849  0.00  0.00    +0.000 A 
ATOM     16 CL   UNL     1       2.117   9.582  17.694  0.00  0.00    +0.000 Cl
ENDBRANCH   7  13
ENDBRANCH   1   7
BRANCH   1  17
ATOM     17  C   UNL     1       3.601   4.120  16.655  0.00  0.00    +0.000 C 
BRANCH  17  18
ATOM     18  C   UNL     1       5.046   3.647  16.386  0.00  0.00    +0.000 C 
BRANCH  18  19
ATOM     19  C   UNL     1       6.058   4.785  16.064  0.00  0.00    +0.000 C 
ATOM     20  C   UNL     1       7.226   4.794  17.065  0.00  0.00    +0.000 C 
ATOM     21  C   UNL     1       6.634   4.536  14.655  0.00  0.00    +0.000 C 
ATOM     22  C   UNL     1       5.367   6.157  16.071  0.00  0.00    +0.000 C 
ENDBRANCH  18  19
ENDBRANCH  17  18
ENDBRANCH   1  17
TORSDOF 5
ENDMDL
MODEL 4
REMARK VINA RESULT:      -7.5      4.190      6.904
REMARK  Name = 
REMARK  9 active torsions:
REMARK  status: ('A' for Active; 'I' for Inactive)
REMARK    1  A    between atoms: C_1  and  C_2
REMARK    2  A    between atoms: C_5  and  C_6
REMARK    3  A    between atoms: C_6  and  C_8
REMARK    4  A    between atoms: C_8  and  C_9
REMARK    5  A    between atoms: C_9  and  C_10
REMARK    6  A    between atoms: C_10  and  C_11
REMARK    7  A    between atoms: C_11  and  C_12
REMARK    8  A    between atoms: C_11  and  C_13
REMARK    9  A    between atoms: C_11  and  C_14
REMARK                            x       y       z     vdW  Elec       q    Type
REMARK                         _______ _______ _______ _____ _____    ______ ____
ROOT
ATOM      1  C   UNL     1       7.076   5.867  18.320  0.00  0.00    +0.000 C 
ATOM      2  C   UNL     1       6.519   7.059  17.522  0.00  0.00    +0.000 C 
ATOM      3  C   UNL     1       7.630   8.085  17.507  0.00  0.00    +0.000 C 
ATOM      4  N   UNL     1       8.425   7.856  18.714  0.00  0.00    +0.000 NA
ATOM      5  C   UNL     1       8.174   6.483  19.187  0.00  0.00    +0.000 C 
ATOM      6  H   UNL     1       8.121   8.512  19.436  0.00  0.00    +0.000 HD
ENDROOT
BRANCH   1   7
ATOM      7  C   UNL     1       7.528   4.740  17.344  0.00  0.00    +0.000 C 
ATOM      8  O   UNL     1       8.412   3.942  17.672  0.00  0.00    +0.000 OA
BRANCH   7  13
ATOM      9  C   UNL     1       5.173   3.555  12.139  0.00  0.00    +0.000 C 
ATOM     10  C   UNL     1       5.769   3.899  13.473  0.00  0.00    +0.000 A 
ATOM     11  C   UNL     1       5.109   3.492  14.637  0.00  0.00    +0.000 A 
ATOM     12  C   UNL     1       5.638   3.774  15.899  0.00  0.00    +0.000 A 
ATOM     13  C   UNL     1       6.852   4.442  16.036  0.00  0.00    +0.000 A 
ATOM     14  C   UNL     1       7.489   4.896  14.870  0.00  0.00    +0.000 A 
ATOM     15  C   UNL     1       6.952   4.636  13.606  0.00  0.00    +0.000 A 
ATOM     16 CL   UNL     1       7.790   5.249  12.225  0.00  0.00    +0.000 Cl
ENDBRANCH   7  13
ENDBRANCH   1   7
BRANCH   1  17
ATOM     17  C   UNL     1       5.927   5.327  19.234  0.00  0.00    +0.000 C 
BRANCH  17  18
ATOM     18  C   UNL     1       4.496   5.747  18.835  0.00  0.00    +0.000 C 
BRANCH  18  19
ATOM     19  C   UNL     1       3.414   4.642  19.019  0.00  0.00    +0.000 C 
ATOM     20  C   UNL     1       4.055   3.270  19.283  0.00  0.00    +0.000 C 
ATOM     21  C   UNL     1       2.547   5.012  20.240  0.00  0.00    +0.000 C 
ATOM     22  C   UNL     1       2.502   4.553  17.785  0.00  0.00    +0.000 C 
ENDBRANCH  18  19
ENDBRANCH  17  18
ENDBRANCH   1  17
TORSDOF 5
ENDMDL
MODEL 5
REMARK VINA RESULT:      -7.3      1.288      1.690
REMARK  Name = 
REMARK  9 active torsions:
REMARK  status: ('A' for Active; 'I' for Inactive)
REMARK    1  A    between atoms: C_1  and  C_2
REMARK    2  A    between atoms: C_5  and  C_6
REMARK    3  A    between atoms: C_6  and  C_8
REMARK    4  A    between atoms: C_8  and  C_9
REMARK    5  A    between atoms: C_9  and  C_10
REMARK    6  A    between atoms: C_10  and  C_11
REMARK    7  A    between atoms: C_11  and  C_12
REMARK    8  A    between atoms: C_11  and  C_13
REMARK    9  A    between atoms: C_11  and  C_14
REMARK                            x       y       z     vdW  Elec       q    Type
REMARK                         _______ _______ _______ _____ _____    ______ ____
ROOT
ATOM      1  C   UNL     1       3.193   3.707  18.006  0.00  0.00    +0.000 C 
ATOM      2  C   UNL     1       1.665   3.785  17.845  0.00  0.00    +0.000 C 
ATOM      3  C   UNL     1       1.118   2.620  18.640  0.00  0.00    +0.000 C 
ATOM      4  N   UNL     1       2.163   1.596  18.649  0.00  0.00    +0.000 NA
ATOM      5  C   UNL     1       3.454   2.240  18.350  0.00  0.00    +0.000 C 
ATOM      6  H   UNL     1       1.960   0.914  17.916  0.00  0.00    +0.000 HD
ENDROOT
BRANCH   1   7
ATOM      7  C   UNL     1       3.670   4.750  19.059  0.00  0.00    +0.000 C 
ATOM      8  O   UNL     1       4.810   4.692  19.531  0.00  0.00    +0.000 OA
BRANCH   7  13
ATOM      9  C   UNL     1       0.516   9.491  20.337  0.00  0.00    +0.000 C 
ATOM     10  C   UNL     1       1.360   8.292  20.015  0.00  0.00    +0.000 A 
ATOM     11  C   UNL     1       1.408   7.231  20.924  0.00  0.00    +0.000 A 
ATOM     12  C   UNL     1       2.167   6.088  20.656  0.00  0.00    +0.000 A 
ATOM     13  C   UNL     1       2.874   5.959  19.463  0.00  0.00    +0.000 A 
ATOM     14  C   UNL     1       2.868   7.046  18.574  0.00  0.00    +0.000 A 
ATOM     15  C   UNL     1       2.129   8.200  18.848  0.00  0.00    +0.000 A 
ATOM     16 CL   UNL     1       2.194   9.498  17.710  0.00  0.00    +0.000 Cl
ENDBRANCH   7  13
ENDBRANCH   1   7
BRANCH   1  17
ATOM     17  C   UNL     1       3.835   4.044  16.620  0.00  0.00    +0.000 C 
BRANCH  17  18
ATOM     18  C   UNL     1       5.371   3.915  16.539  0.00  0.00    +0.000 C 
BRANCH  18  19
ATOM     19  C   UNL     1       6.110   5.184  16.024  0.00  0.00    +0.000 C 
ATOM     20  C   UNL     1       5.139   6.365  15.853  0.00  0.00    +0.000 C 
ATOM     21  C   UNL     1       7.174   5.582  17.066  0.00  0.00    +0.000 C 
ATOM     22  C   UNL     1       6.818   4.906  14.689  0.00  0.00    +0.000 C 
ENDBRANCH  18  19
ENDBRANCH  17  18
ENDBRANCH   1  17
TORSDOF 5
ENDMDL
MODEL 6
REMARK VINA RESULT:      -7.3      1.857      2.413
REMARK  Name = 
REMARK  9 active torsions:
REMARK  status: ('A' for Active; 'I' for Inactive)
REMARK    1  A    between atoms: C_1  and  C_2
REMARK    2  A    between atoms: C_5  and  C_6
REMARK    3  A    between atoms: C_6  and  C_8
REMARK    4  A    between atoms: C_8  and  C_9
REMARK    5  A    between atoms: C_9  and  C_10
REMARK    6  A    between atoms: C_10  and  C_11
REMARK    7  A    between atoms: C_11  and  C_12
REMARK    8  A    between atoms: C_11  and  C_13
REMARK    9  A    between atoms: C_11  and  C_14
REMARK                            x       y       z     vdW  Elec       q    Type
REMARK                         _______ _______ _______ _____ _____    ______ ____
ROOT
ATOM      1  C   UNL     1       3.838   3.417  17.863  0.00  0.00    +0.000 C 
ATOM      2  C   UNL     1       3.581   1.902  17.944  0.00  0.00    +0.000 C 
ATOM      3  C   UNL     1       3.882   1.519  19.376  0.00  0.00    +0.000 C 
ATOM      4  N   UNL     1       4.863   2.488  19.868  0.00  0.00    +0.000 NA
ATOM      5  C   UNL     1       4.801   3.690  19.018  0.00  0.00    +0.000 C 
ATOM      6  H   UNL     1       5.795   2.078  19.789  0.00  0.00    +0.000 HD
ENDROOT
BRANCH   1   7
ATOM      7  C   UNL     1       2.485   4.186  17.906  0.00  0.00    +0.000 C 
ATOM      8  O   UNL     1       1.494   3.750  17.310  0.00  0.00    +0.000 OA
BRANCH   7  13
ATOM      9  C   UNL     1       1.389   9.010  21.002  0.00  0.00    +0.000 C 
ATOM     10  C   UNL     1       1.709   7.779  20.204  0.00  0.00    +0.000 A 
ATOM     11  C   UNL     1       1.655   6.530  20.832  0.00  0.00    +0.000 A 
ATOM     12  C   UNL     1       1.928   5.357  20.123  0.00  0.00    +0.000 A 
ATOM     13  C   UNL     1       2.232   5.393  18.765  0.00  0.00    +0.000 A 
ATOM     14  C   UNL     1       2.338   6.650  18.147  0.00  0.00    +0.000 A 
ATOM     15  C   UNL     1       2.089   7.827  18.858  0.00  0.00    +0.000 A 
ATOM     16 CL   UNL     1       2.261   9.331  18.026  0.00  0.00    +0.000 Cl
ENDBRANCH   7  13
ENDBRANCH   1   7
BRANCH   1  17
ATOM     17  C   UNL     1       4.553   3.706  16.503  0.00  0.00    +0.000 C 
BRANCH  17  18
ATOM     18  C   UNL     1       6.046   4.089  16.595  0.00  0.00    +0.000 C 
BRANCH  18  19
ATOM     19  C   UNL     1       6.412   5.459  15.953  0.00  0.00    +0.000 C 
ATOM     20  C   UNL     1       5.155   6.295  15.662  0.00  0.00    +0.000 C 
ATOM     21  C   UNL     1       7.291   6.241  16.950  0.00  0.00    +0.000 C 
ATOM     22  C   UNL     1       7.209   5.263  14.653  0.00  0.00    +0.000 C 
ENDBRANCH  18  19
ENDBRANCH  17  18
ENDBRANCH   1  17
TORSDOF 5
ENDMDL
MODEL 7
REMARK VINA RESULT:      -7.2      1.908      2.683
REMARK  Name = 
REMARK  9 active torsions:
REMARK  status: ('A' for Active; 'I' for Inactive)
REMARK    1  A    between atoms: C_1  and  C_2
REMARK    2  A    between atoms: C_5  and  C_6
REMARK    3  A    between atoms: C_6  and  C_8
REMARK    4  A    between atoms: C_8  and  C_9
REMARK    5  A    between atoms: C_9  and  C_10
REMARK    6  A    between atoms: C_10  and  C_11
REMARK    7  A    between atoms: C_11  and  C_12
REMARK    8  A    between atoms: C_11  and  C_13
REMARK    9  A    between atoms: C_11  and  C_14
REMARK                            x       y       z     vdW  Elec       q    Type
REMARK                         _______ _______ _______ _____ _____    ______ ____
ROOT
ATOM      1  C   UNL     1       3.827   3.903  17.945  0.00  0.00    +0.000 C 
ATOM      2  C   UNL     1       3.699   2.531  17.260  0.00  0.00    +0.000 C 
ATOM      3  C   UNL     1       3.691   1.519  18.384  0.00  0.00    +0.000 C 
ATOM      4  N   UNL     1       4.438   2.121  19.490  0.00  0.00    +0.000 NA
ATOM      5  C   UNL     1       4.465   3.581  19.297  0.00  0.00    +0.000 C 
ATOM      6  H   UNL     1       5.396   1.770  19.468  0.00  0.00    +0.000 HD
ENDROOT
BRANCH   1   7
ATOM      7  C   UNL     1       2.436   4.601  17.996  0.00  0.00    +0.000 C 
ATOM      8  O   UNL     1       1.452   4.083  17.458  0.00  0.00    +0.000 OA
BRANCH   7  13
ATOM      9  C   UNL     1       1.173   9.513  20.883  0.00  0.00    +0.000 C 
ATOM     10  C   UNL     1       1.536   8.261  20.137  0.00  0.00    +0.000 A 
ATOM     11  C   UNL     1       1.593   7.049  20.832  0.00  0.00    +0.000 A 
ATOM     12  C   UNL     1       1.909   5.858  20.173  0.00  0.00    +0.000 A 
ATOM     13  C   UNL     1       2.146   5.836  18.802  0.00  0.00    +0.000 A 
ATOM     14  C   UNL     1       2.140   7.060  18.113  0.00  0.00    +0.000 A 
ATOM     15  C   UNL     1       1.848   8.258  18.772  0.00  0.00    +0.000 A 
ATOM     16 CL   UNL     1       1.882   9.721  17.854  0.00  0.00    +0.000 Cl
ENDBRANCH   7  13
ENDBRANCH   1   7
BRANCH   1  17
ATOM     17  C   UNL     1       4.810   4.771  17.094  0.00  0.00    +0.000 C 
BRANCH  17  18
ATOM     18  C   UNL     1       5.493   5.940  17.836  0.00  0.00    +0.000 C 
BRANCH  18  19
ATOM     19  C   UNL     1       7.048   5.881  17.860  0.00  0.00    +0.000 C 
ATOM     20  C   UNL     1       7.573   5.547  19.267  0.00  0.00    +0.000 C 
ATOM     21  C   UNL     1       7.506   4.766  16.898  0.00  0.00    +0.000 C 
ATOM     22  C   UNL     1       7.658   7.210  17.388  0.00  0.00    +0.000 C 
ENDBRANCH  18  19
ENDBRANCH  17  18
ENDBRANCH   1  17
TORSDOF 5
ENDMDL
MODEL 8
REMARK VINA RESULT:      -7.1      1.369      1.585
REMARK  Name = 
REMARK  9 active torsions:
REMARK  status: ('A' for Active; 'I' for Inactive)
REMARK    1  A    between atoms: C_1  and  C_2
REMARK    2  A    between atoms: C_5  and  C_6
REMARK    3  A    between atoms: C_6  and  C_8
REMARK    4  A    between atoms: C_8  and  C_9
REMARK    5  A    between atoms: C_9  and  C_10
REMARK    6  A    between atoms: C_10  and  C_11
REMARK    7  A    between atoms: C_11  and  C_12
REMARK    8  A    between atoms: C_11  and  C_13
REMARK    9  A    between atoms: C_11  and  C_14
REMARK                            x       y       z     vdW  Elec       q    Type
REMARK                         _______ _______ _______ _____ _____    ______ ____
ROOT
ATOM      1  C   UNL     1       3.927   4.271  19.051  0.00  0.00    +0.000 C 
ATOM      2  C   UNL     1       3.451   3.773  17.675  0.00  0.00    +0.000 C 
ATOM      3  C   UNL     1       3.169   2.298  17.857  0.00  0.00    +0.000 C 
ATOM      4  N   UNL     1       4.037   1.840  18.943  0.00  0.00    +0.000 NA
ATOM      5  C   UNL     1       4.448   3.009  19.740  0.00  0.00    +0.000 C 
ATOM      6  H   UNL     1       4.871   1.411  18.538  0.00  0.00    +0.000 HD
ENDROOT
BRANCH   1   7
ATOM      7  C   UNL     1       2.767   5.015  19.776  0.00  0.00    +0.000 C 
ATOM      8  O   UNL     1       2.218   4.515  20.763  0.00  0.00    +0.000 OA
BRANCH   7  13
ATOM      9  C   UNL     1       1.172  10.539  18.778  0.00  0.00    +0.000 C 
ATOM     10  C   UNL     1       1.544   9.108  19.039  0.00  0.00    +0.000 A 
ATOM     11  C   UNL     1       2.017   8.326  17.981  0.00  0.00    +0.000 A 
ATOM     12  C   UNL     1       2.392   6.995  18.183  0.00  0.00    +0.000 A 
ATOM     13  C   UNL     1       2.334   6.416  19.448  0.00  0.00    +0.000 A 
ATOM     14  C   UNL     1       1.810   7.185  20.500  0.00  0.00    +0.000 A 
ATOM     15  C   UNL     1       1.412   8.510  20.298  0.00  0.00    +0.000 A 
ATOM     16 CL   UNL     1       0.760   9.377  21.642  0.00  0.00    +0.000 Cl
ENDBRANCH   7  13
ENDBRANCH   1   7
BRANCH   1  17
ATOM     17  C   UNL     1       5.110   5.266  18.814  0.00  0.00    +0.000 C 
BRANCH  17  18
ATOM     18  C   UNL     1       6.201   4.794  17.829  0.00  0.00    +0.000 C 
BRANCH  18  19
ATOM     19  C   UNL     1       6.500   5.778  16.661  0.00  0.00    +0.000 C 
ATOM     20  C   UNL     1       5.229   6.521  16.216  0.00  0.00    +0.000 C 
ATOM     21  C   UNL     1       7.520   6.823  17.156  0.00  0.00    +0.000 C 
ATOM     22  C   UNL     1       7.107   5.038  15.458  0.00  0.00    +0.000 C 
ENDBRANCH  18  19
ENDBRANCH  17  18
ENDBRANCH   1  17
TORSDOF 5
ENDMDL
MODEL 9
REMARK VINA RESULT:      -7.1      2.492      5.425
REMARK  Name = 
REMARK  9 active torsions:
REMARK  status: ('A' for Active; 'I' for Inactive)
REMARK    1  A    between atoms: C_1  and  C_2
REMARK    2  A    between atoms: C_5  and  C_6
REMARK    3  A    between atoms: C_6  and  C_8
REMARK    4  A    between atoms: C_8  and  C_9
REMARK    5  A    between atoms: C_9  and  C_10
REMARK    6  A    between atoms: C_10  and  C_11
REMARK    7  A    between atoms: C_11  and  C_12
REMARK    8  A    between atoms: C_11  and  C_13
REMARK    9  A    between atoms: C_11  and  C_14
REMARK                            x       y       z     vdW  Elec       q    Type
REMARK                         _______ _______ _______ _____ _____    ______ ____
ROOT
ATOM      1  C   UNL     1       5.606   5.490  16.681  0.00  0.00    +0.000 C 
ATOM      2  C   UNL     1       5.566   4.723  15.347  0.00  0.00    +0.000 C 
ATOM      3  C   UNL     1       7.004   4.652  14.882  0.00  0.00    +0.000 C 
ATOM      4  N   UNL     1       7.684   5.816  15.451  0.00  0.00    +0.000 NA
ATOM      5  C   UNL     1       6.901   6.299  16.602  0.00  0.00    +0.000 C 
ATOM      6  H   UNL     1       7.717   6.554  14.746  0.00  0.00    +0.000 HD
ENDROOT
BRANCH   1   7
ATOM      7  C   UNL     1       5.497   4.490  17.870  0.00  0.00    +0.000 C 
ATOM      8  O   UNL     1       6.440   4.340  18.654  0.00  0.00    +0.000 OA
BRANCH   7  13
ATOM      9  C   UNL     1       0.534   1.900  19.518  0.00  0.00    +0.000 C 
ATOM     10  C   UNL     1       1.831   2.540  19.116  0.00  0.00    +0.000 A 
ATOM     11  C   UNL     1       2.287   2.384  17.803  0.00  0.00    +0.000 A 
ATOM     12  C   UNL     1       3.480   2.977  17.381  0.00  0.00    +0.000 A 
ATOM     13  C   UNL     1       4.235   3.766  18.245  0.00  0.00    +0.000 A 
ATOM     14  C   UNL     1       3.805   3.880  19.577  0.00  0.00    +0.000 A 
ATOM     15  C   UNL     1       2.624   3.269  20.010  0.00  0.00    +0.000 A 
ATOM     16 CL   UNL     1       2.180   3.444  21.670  0.00  0.00    +0.000 Cl
ENDBRANCH   7  13
ENDBRANCH   1   7
BRANCH   1  17
ATOM     17  C   UNL     1       4.381   6.461  16.708  0.00  0.00    +0.000 C 
BRANCH  17  18
ATOM     18  C   UNL     1       4.063   7.107  18.074  0.00  0.00    +0.000 C 
BRANCH  18  19
ATOM     19  C   UNL     1       2.547   7.283  18.379  0.00  0.00    +0.000 C 
ATOM     20  C   UNL     1       2.276   7.269  19.893  0.00  0.00    +0.000 C 
ATOM     21  C   UNL     1       2.096   8.649  17.822  0.00  0.00    +0.000 C 
ATOM     22  C   UNL     1       1.716   6.183  17.700  0.00  0.00    +0.000 C 
ENDBRANCH  18  19
ENDBRANCH  17  18
ENDBRANCH   1  17
TORSDOF 5
ENDMDL
