MODEL 1
REMARK VINA RESULT:      -5.9      0.000      0.000
REMARK  Name = 
REMARK  3 active torsions:
REMARK  status: ('A' for Active; 'I' for Inactive)
REMARK    1  A    between atoms: N_11  and  C_12
REMARK    2  A    between atoms: C_12  and  C_13
REMARK    3  A    between atoms: C_13  and  O_14
REMARK                            x       y       z     vdW  Elec       q    Type
REMARK                         _______ _______ _______ _____ _____    ______ ____
ROOT
ATOM      1  O   UNL     1       7.855   4.808  17.603  0.00  0.00    +0.000 OA
ATOM      2  C   UNL     1       6.685   4.768  17.975  0.00  0.00    +0.000 C 
ATOM      3  C   UNL     1       6.264   5.270  19.335  0.00  0.00    +0.000 C 
ATOM      4  S   UNL     1       4.470   5.273  19.346  0.00  0.00    +0.000 S 
ATOM      5  C   UNL     1       4.347   4.099  17.938  0.00  0.00    +0.000 C 
ATOM      6  C   UNL     1       3.117   4.476  17.082  0.00  0.00    +0.000 C 
ATOM      7  C   UNL     1       1.780   4.208  17.783  0.00  0.00    +0.000 C 
ATOM      8  C   UNL     1       1.684   2.770  18.285  0.00  0.00    +0.000 C 
ATOM      9  C   UNL     1       2.863   2.389  19.171  0.00  0.00    +0.000 C 
ATOM     10  C   UNL     1       4.204   2.662  18.487  0.00  0.00    +0.000 C 
ATOM     11  N   UNL     1       5.632   4.240  17.238  0.00  0.00    +0.000 N 
ENDROOT
BRANCH  11  12
ATOM     12  C   UNL     1       5.764   3.796  15.839  0.00  0.00    +0.000 C 
BRANCH  12  13
ATOM     13  C   UNL     1       6.015   4.863  14.767  0.00  0.00    +0.000 C 
BRANCH  13  14
ATOM     14  O   UNL     1       7.399   5.186  14.691  0.00  0.00    +0.000 OA
ATOM     15  H   UNL     1       7.858   4.391  15.028  0.00  0.00    +0.000 HD
ENDBRANCH  13  14
ENDBRANCH  12  13
ENDBRANCH  11  12
TORSDOF 3
ENDMDL
MODEL 2
REMARK VINA RESULT:      -5.7      2.992      4.661
REMARK  Name = 
REMARK  3 active torsions:
REMARK  status: ('A' for Active; 'I' for Inactive)
REMARK    1  A    between atoms: N_11  and  C_12
REMARK    2  A    between atoms: C_12  and  C_13
REMARK    3  A    between atoms: C_13  and  O_14
REMARK                            x       y       z     vdW  Elec       q    Type
REMARK                         _______ _______ _______ _____ _____    ______ ____
ROOT
ATOM      1  O   UNL     1       1.576   4.313  19.428  0.00  0.00    +0.000 OA
ATOM      2  C   UNL     1       2.553   4.767  18.840  0.00  0.00    +0.000 C 
ATOM      3  C   UNL     1       2.540   6.142  18.218  0.00  0.00    +0.000 C 
ATOM      4  S   UNL     1       4.227   6.493  17.718  0.00  0.00    +0.000 S 
ATOM      5  C   UNL     1       4.721   4.724  17.737  0.00  0.00    +0.000 C 
ATOM      6  C   UNL     1       6.187   4.622  18.214  0.00  0.00    +0.000 C 
ATOM      7  C   UNL     1       7.198   5.180  17.206  0.00  0.00    +0.000 C 
ATOM      8  C   UNL     1       7.022   4.555  15.826  0.00  0.00    +0.000 C 
ATOM      9  C   UNL     1       5.593   4.686  15.311  0.00  0.00    +0.000 C 
ATOM     10  C   UNL     1       4.573   4.142  16.313  0.00  0.00    +0.000 C 
ATOM     11  N   UNL     1       3.749   4.089  18.639  0.00  0.00    +0.000 N 
ENDROOT
BRANCH  11  12
ATOM     12  C   UNL     1       4.051   2.781  19.247  0.00  0.00    +0.000 C 
BRANCH  12  13
ATOM     13  C   UNL     1       3.550   1.522  18.531  0.00  0.00    +0.000 C 
BRANCH  13  14
ATOM     14  O   UNL     1       2.127   1.473  18.535  0.00  0.00    +0.000 OA
ATOM     15  H   UNL     1       1.846   2.384  18.323  0.00  0.00    +0.000 HD
ENDBRANCH  13  14
ENDBRANCH  12  13
ENDBRANCH  11  12
TORSDOF 3
ENDMDL
MODEL 3
REMARK VINA RESULT:      -5.7      2.162      3.603
REMARK  Name = 
REMARK  3 active torsions:
REMARK  status: ('A' for Active; 'I' for Inactive)
REMARK    1  A    between atoms: N_11  and  C_12
REMARK    2  A    between atoms: C_12  and  C_13
REMARK    3  A    between atoms: C_13  and  O_14
REMARK                            x       y       z     vdW  Elec       q    Type
REMARK                         _______ _______ _______ _____ _____    ______ ____
ROOT
ATOM      1  O   UNL     1       7.610   5.647  15.673  0.00  0.00    +0.000 OA
ATOM      2  C   UNL     1       6.535   5.424  16.222  0.00  0.00    +0.000 C 
ATOM      3  C   UNL     1       5.411   4.711  15.512  0.00  0.00    +0.000 C 
ATOM      4  S   UNL     1       4.161   4.365  16.752  0.00  0.00    +0.000 S 
ATOM      5  C   UNL     1       4.801   5.635  17.914  0.00  0.00    +0.000 C 
ATOM      6  C   UNL     1       4.618   5.124  19.361  0.00  0.00    +0.000 C 
ATOM      7  C   UNL     1       3.153   5.056  19.805  0.00  0.00    +0.000 C 
ATOM      8  C   UNL     1       2.438   6.388  19.596  0.00  0.00    +0.000 C 
ATOM      9  C   UNL     1       2.563   6.891  18.163  0.00  0.00    +0.000 C 
ATOM     10  C   UNL     1       4.021   6.953  17.704  0.00  0.00    +0.000 C 
ATOM     11  N   UNL     1       6.203   5.817  17.513  0.00  0.00    +0.000 N 
ENDROOT
BRANCH  11  12
ATOM     12  C   UNL     1       7.166   6.423  18.449  0.00  0.00    +0.000 C 
BRANCH  12  13
ATOM     13  C   UNL     1       8.170   5.498  19.148  0.00  0.00    +0.000 C 
BRANCH  13  14
ATOM     14  O   UNL     1       7.934   5.468  20.552  0.00  0.00    +0.000 OA
ATOM     15  H   UNL     1       8.138   6.374  20.857  0.00  0.00    +0.000 HD
ENDBRANCH  13  14
ENDBRANCH  12  13
ENDBRANCH  11  12
TORSDOF 3
ENDMDL
MODEL 4
REMARK VINA RESULT:      -5.6      2.654      4.712
REMARK  Name = 
REMARK  3 active torsions:
REMARK  status: ('A' for Active; 'I' for Inactive)
REMARK    1  A    between atoms: N_11  and  C_12
REMARK    2  A    between atoms: C_12  and  C_13
REMARK    3  A    between atoms: C_13  and  O_14
REMARK                            x       y       z     vdW  Elec       q    Type
REMARK                         _______ _______ _______ _____ _____    ______ ____
ROOT
ATOM      1  O   UNL     1       1.412   4.139  18.919  0.00  0.00    +0.000 OA
ATOM      2  C   UNL     1       2.433   4.650  18.468  0.00  0.00    +0.000 C 
ATOM      3  C   UNL     1       2.483   6.100  18.055  0.00  0.00    +0.000 C 
ATOM      4  S   UNL     1       4.206   6.477  17.722  0.00  0.00    +0.000 S 
ATOM      5  C   UNL     1       4.669   4.713  17.512  0.00  0.00    +0.000 C 
ATOM      6  C   UNL     1       6.098   4.505  18.063  0.00  0.00    +0.000 C 
ATOM      7  C   UNL     1       7.183   5.178  17.215  0.00  0.00    +0.000 C 
ATOM      8  C   UNL     1       7.091   4.766  15.749  0.00  0.00    +0.000 C 
ATOM      9  C   UNL     1       5.702   5.006  15.169  0.00  0.00    +0.000 C 
ATOM     10  C   UNL     1       4.609   4.348  16.012  0.00  0.00    +0.000 C 
ATOM     11  N   UNL     1       3.630   3.978  18.247  0.00  0.00    +0.000 N 
ENDROOT
BRANCH  11  12
ATOM     12  C   UNL     1       3.870   2.588  18.674  0.00  0.00    +0.000 C 
BRANCH  12  13
ATOM     13  C   UNL     1       4.115   2.327  20.165  0.00  0.00    +0.000 C 
BRANCH  13  14
ATOM     14  O   UNL     1       5.274   1.521  20.351  0.00  0.00    +0.000 OA
ATOM     15  H   UNL     1       4.963   0.604  20.217  0.00  0.00    +0.000 HD
ENDBRANCH  13  14
ENDBRANCH  12  13
ENDBRANCH  11  12
TORSDOF 3
ENDMDL
MODEL 5
REMARK VINA RESULT:      -5.6      1.799      3.312
REMARK  Name = 
REMARK  3 active torsions:
REMARK  status: ('A' for Active; 'I' for Inactive)
REMARK    1  A    between atoms: N_11  and  C_12
REMARK    2  A    between atoms: C_12  and  C_13
REMARK    3  A    between atoms: C_13  and  O_14
REMARK                            x       y       z     vdW  Elec       q    Type
REMARK                         _______ _______ _______ _____ _____    ______ ____
ROOT
ATOM      1  O   UNL     1       7.662   6.656  16.699  0.00  0.00    +0.000 OA
ATOM      2  C   UNL     1       6.702   5.895  16.769  0.00  0.00    +0.000 C 
ATOM      3  C   UNL     1       6.041   5.330  15.536  0.00  0.00    +0.000 C 
ATOM      4  S   UNL     1       4.885   4.080  16.102  0.00  0.00    +0.000 S 
ATOM      5  C   UNL     1       4.831   4.743  17.814  0.00  0.00    +0.000 C 
ATOM      6  C   UNL     1       4.689   3.563  18.800  0.00  0.00    +0.000 C 
ATOM      7  C   UNL     1       3.324   2.868  18.730  0.00  0.00    +0.000 C 
ATOM      8  C   UNL     1       2.177   3.861  18.889  0.00  0.00    +0.000 C 
ATOM      9  C   UNL     1       2.268   5.012  17.893  0.00  0.00    +0.000 C 
ATOM     10  C   UNL     1       3.630   5.707  17.946  0.00  0.00    +0.000 C 
ATOM     11  N   UNL     1       6.089   5.492  17.949  0.00  0.00    +0.000 N 
ENDROOT
BRANCH  11  12
ATOM     12  C   UNL     1       6.617   5.812  19.287  0.00  0.00    +0.000 C 
BRANCH  12  13
ATOM     13  C   UNL     1       8.066   5.422  19.600  0.00  0.00    +0.000 C 
BRANCH  13  14
ATOM     14  O   UNL     1       8.262   5.294  21.005  0.00  0.00    +0.000 OA
ATOM     15  H   UNL     1       9.131   5.710  21.173  0.00  0.00    +0.000 HD
ENDBRANCH  13  14
ENDBRANCH  12  13
ENDBRANCH  11  12
TORSDOF 3
ENDMDL
MODEL 6
REMARK VINA RESULT:      -5.6      2.211      3.294
REMARK  Name = 
REMARK  3 active torsions:
REMARK  status: ('A' for Active; 'I' for Inactive)
REMARK    1  A    between atoms: N_11  and  C_12
REMARK    2  A    between atoms: C_12  and  C_13
REMARK    3  A    between atoms: C_13  and  O_14
REMARK                            x       y       z     vdW  Elec       q    Type
REMARK                         _______ _______ _______ _____ _____    ______ ____
ROOT
ATOM      1  O   UNL     1       7.736   4.739  16.003  0.00  0.00    +0.000 OA
ATOM      2  C   UNL     1       6.608   4.751  16.489  0.00  0.00    +0.000 C 
ATOM      3  C   UNL     1       5.435   4.108  15.792  0.00  0.00    +0.000 C 
ATOM      4  S   UNL     1       4.074   4.125  16.961  0.00  0.00    +0.000 S 
ATOM      5  C   UNL     1       4.826   5.447  17.991  0.00  0.00    +0.000 C 
ATOM      6  C   UNL     1       4.482   5.180  19.473  0.00  0.00    +0.000 C 
ATOM      7  C   UNL     1       2.998   5.385  19.801  0.00  0.00    +0.000 C 
ATOM      8  C   UNL     1       2.506   6.760  19.359  0.00  0.00    +0.000 C 
ATOM      9  C   UNL     1       2.793   7.028  17.886  0.00  0.00    +0.000 C 
ATOM     10  C   UNL     1       4.268   6.817  17.543  0.00  0.00    +0.000 C 
ATOM     11  N   UNL     1       6.262   5.368  17.684  0.00  0.00    +0.000 N 
ENDROOT
BRANCH  11  12
ATOM     12  C   UNL     1       7.247   5.962  18.605  0.00  0.00    +0.000 C 
BRANCH  12  13
ATOM     13  C   UNL     1       7.949   7.254  18.172  0.00  0.00    +0.000 C 
BRANCH  13  14
ATOM     14  O   UNL     1       7.384   7.754  16.965  0.00  0.00    +0.000 OA
ATOM     15  H   UNL     1       7.261   6.965  16.402  0.00  0.00    +0.000 HD
ENDBRANCH  13  14
ENDBRANCH  12  13
ENDBRANCH  11  12
TORSDOF 3
ENDMDL
MODEL 7
REMARK VINA RESULT:      -5.5      1.604      1.793
REMARK  Name = 
REMARK  3 active torsions:
REMARK  status: ('A' for Active; 'I' for Inactive)
REMARK    1  A    between atoms: N_11  and  C_12
REMARK    2  A    between atoms: C_12  and  C_13
REMARK    3  A    between atoms: C_13  and  O_14
REMARK                            x       y       z     vdW  Elec       q    Type
REMARK                         _______ _______ _______ _____ _____    ______ ____
ROOT
ATOM      1  O   UNL     1       6.266   7.166  16.629  0.00  0.00    +0.000 OA
ATOM      2  C   UNL     1       5.365   6.445  17.047  0.00  0.00    +0.000 C 
ATOM      3  C   UNL     1       4.155   7.010  17.751  0.00  0.00    +0.000 C 
ATOM      4  S   UNL     1       2.994   5.655  17.939  0.00  0.00    +0.000 S 
ATOM      5  C   UNL     1       4.285   4.368  17.707  0.00  0.00    +0.000 C 
ATOM      6  C   UNL     1       3.664   3.172  16.951  0.00  0.00    +0.000 C 
ATOM      7  C   UNL     1       2.640   2.389  17.780  0.00  0.00    +0.000 C 
ATOM      8  C   UNL     1       3.216   1.953  19.124  0.00  0.00    +0.000 C 
ATOM      9  C   UNL     1       3.792   3.125  19.911  0.00  0.00    +0.000 C 
ATOM     10  C   UNL     1       4.809   3.921  19.090  0.00  0.00    +0.000 C 
ATOM     11  N   UNL     1       5.352   5.058  16.968  0.00  0.00    +0.000 N 
ENDROOT
BRANCH  11  12
ATOM     12  C   UNL     1       6.359   4.279  16.227  0.00  0.00    +0.000 C 
BRANCH  12  13
ATOM     13  C   UNL     1       6.536   4.570  14.732  0.00  0.00    +0.000 C 
BRANCH  13  14
ATOM     14  O   UNL     1       7.619   5.469  14.518  0.00  0.00    +0.000 OA
ATOM     15  H   UNL     1       8.388   5.036  14.940  0.00  0.00    +0.000 HD
ENDBRANCH  13  14
ENDBRANCH  12  13
ENDBRANCH  11  12
TORSDOF 3
ENDMDL
MODEL 8
REMARK VINA RESULT:      -5.5      3.162      3.826
REMARK  Name = 
REMARK  3 active torsions:
REMARK  status: ('A' for Active; 'I' for Inactive)
REMARK    1  A    between atoms: N_11  and  C_12
REMARK    2  A    between atoms: C_12  and  C_13
REMARK    3  A    between atoms: C_13  and  O_14
REMARK                            x       y       z     vdW  Elec       q    Type
REMARK                         _______ _______ _______ _____ _____    ______ ____
ROOT
ATOM      1  O   UNL     1       4.686   7.075  16.501  0.00  0.00    +0.000 OA
ATOM      2  C   UNL     1       4.319   6.253  17.336  0.00  0.00    +0.000 C 
ATOM      3  C   UNL     1       5.207   5.116  17.778  0.00  0.00    +0.000 C 
ATOM      4  S   UNL     1       4.391   4.343  19.176  0.00  0.00    +0.000 S 
ATOM      5  C   UNL     1       2.750   5.052  18.754  0.00  0.00    +0.000 C 
ATOM      6  C   UNL     1       1.995   5.373  20.063  0.00  0.00    +0.000 C 
ATOM      7  C   UNL     1       1.565   4.126  20.842  0.00  0.00    +0.000 C 
ATOM      8  C   UNL     1       0.768   3.161  19.969  0.00  0.00    +0.000 C 
ATOM      9  C   UNL     1       1.513   2.791  18.692  0.00  0.00    +0.000 C 
ATOM     10  C   UNL     1       1.957   4.028  17.910  0.00  0.00    +0.000 C 
ATOM     11  N   UNL     1       3.067   6.233  17.938  0.00  0.00    +0.000 N 
ENDROOT
BRANCH  11  12
ATOM     12  C   UNL     1       2.065   7.299  17.761  0.00  0.00    +0.000 C 
BRANCH  12  13
ATOM     13  C   UNL     1       2.404   8.698  18.288  0.00  0.00    +0.000 C 
BRANCH  13  14
ATOM     14  O   UNL     1       1.954   9.700  17.382  0.00  0.00    +0.000 OA
ATOM     15  H   UNL     1       2.603   9.684  16.651  0.00  0.00    +0.000 HD
ENDBRANCH  13  14
ENDBRANCH  12  13
ENDBRANCH  11  12
TORSDOF 3
ENDMDL
MODEL 9
REMARK VINA RESULT:      -5.4      2.730      4.678
REMARK  Name = 
REMARK  3 active torsions:
REMARK  status: ('A' for Active; 'I' for Inactive)
REMARK    1  A    between atoms: N_11  and  C_12
REMARK    2  A    between atoms: C_12  and  C_13
REMARK    3  A    between atoms: C_13  and  O_14
REMARK                            x       y       z     vdW  Elec       q    Type
REMARK                         _______ _______ _______ _____ _____    ______ ____
ROOT
ATOM      1  O   UNL     1       1.131   3.993  17.434  0.00  0.00    +0.000 OA
ATOM      2  C   UNL     1       2.117   4.619  17.814  0.00  0.00    +0.000 C 
ATOM      3  C   UNL     1       2.016   6.042  18.305  0.00  0.00    +0.000 C 
ATOM      4  S   UNL     1       3.617   6.457  19.000  0.00  0.00    +0.000 S 
ATOM      5  C   UNL     1       4.482   5.105  18.107  0.00  0.00    +0.000 C 
ATOM      6  C   UNL     1       5.606   4.551  19.011  0.00  0.00    +0.000 C 
ATOM      7  C   UNL     1       6.766   5.533  19.214  0.00  0.00    +0.000 C 
ATOM      8  C   UNL     1       7.322   6.033  17.884  0.00  0.00    +0.000 C 
ATOM      9  C   UNL     1       6.238   6.628  16.994  0.00  0.00    +0.000 C 
ATOM     10  C   UNL     1       5.070   5.662  16.791  0.00  0.00    +0.000 C 
ATOM     11  N   UNL     1       3.419   4.135  17.807  0.00  0.00    +0.000 N 
ENDROOT
BRANCH  11  12
ATOM     12  C   UNL     1       3.763   2.739  17.484  0.00  0.00    +0.000 C 
BRANCH  12  13
ATOM     13  C   UNL     1       3.403   1.654  18.506  0.00  0.00    +0.000 C 
BRANCH  13  14
ATOM     14  O   UNL     1       4.392   0.630  18.523  0.00  0.00    +0.000 OA
ATOM     15  H   UNL     1       5.226   1.094  18.733  0.00  0.00    +0.000 HD
ENDBRANCH  13  14
ENDBRANCH  12  13
ENDBRANCH  11  12
TORSDOF 3
ENDMDL
