MODEL 1
REMARK VINA RESULT:      -9.0      0.000      0.000
REMARK  Name = 
REMARK  7 active torsions:
REMARK  status: ('A' for Active; 'I' for Inactive)
REMARK    1  A    between atoms: C_1  and  C_2
REMARK    2  A    between atoms: C_3  and  C_4
REMARK    3  A    between atoms: C_4  and  C_6
REMARK    4  A    between atoms: C_9  and  N_10
REMARK    5  A    between atoms: N_23  and  C_24
REMARK    6  A    between atoms: C_24  and  C_25
REMARK    7  A    between atoms: C_25  and  N_26
REMARK                            x       y       z     vdW  Elec       q    Type
REMARK                         _______ _______ _______ _____ _____    ______ ____
ROOT
ATOM      1  C   UNL     1       1.160  11.588  20.512  0.00  0.00    +0.000 C 
ATOM      2  C   UNL     1      -0.022  11.212  19.710  0.00  0.00    +0.000 A 
ATOM      3  C   UNL     1       0.104  10.284  18.656  0.00  0.00    +0.000 A 
ATOM      4  C   UNL     1      -1.253  10.410  18.005  0.00  0.00    +0.000 A 
ATOM      5  C   UNL     1      -1.936   9.924  16.822  0.00  0.00    +0.000 A 
ATOM      6  C   UNL     1      -3.315  10.254  16.545  0.00  0.00    +0.000 A 
ATOM      7  C   UNL     1      -4.054  11.056  17.411  0.00  0.00    +0.000 A 
ATOM      8  C   UNL     1      -3.420  11.568  18.546  0.00  0.00    +0.000 A 
ATOM      9  C   UNL     1      -2.047  11.254  18.807  0.00  0.00    +0.000 A 
ATOM     10  N   UNL     1      -1.311  11.735  19.842  0.00  0.00    +0.000 N 
ENDROOT
BRANCH   3  11
ATOM     11  C   UNL     1       1.410   9.391  18.182  0.00  0.00    +0.000 C 
ATOM     12  O   UNL     1       2.007  10.290  17.547  0.00  0.00    +0.000 OA
BRANCH  11  13
ATOM     13  C   UNL     1       2.507   7.978  17.963  0.00  0.00    +0.000 A 
ATOM     14  C   UNL     1       1.831   7.121  18.854  0.00  0.00    +0.000 A 
ATOM     15  C   UNL     1       2.605   6.481  19.764  0.00  0.00    +0.000 A 
ATOM     16  C   UNL     1       2.868   5.353  19.138  0.00  0.00    +0.000 A 
ATOM     17  C   UNL     1       3.696   5.492  18.052  0.00  0.00    +0.000 A 
ATOM     18  C   UNL     1       4.436   4.324  17.823  0.00  0.00    +0.000 A 
ATOM     19  C   UNL     1       5.511   4.353  17.021  0.00  0.00    +0.000 A 
ATOM     20  C   UNL     1       5.812   5.552  16.398  0.00  0.00    +0.000 A 
ATOM     21  C   UNL     1       4.971   6.785  16.529  0.00  0.00    +0.000 A 
ATOM     22  C   UNL     1       3.743   6.882  17.414  0.00  0.00    +0.000 A 
BRANCH  16  23
ATOM     23  N   UNL     1       2.031   4.239  19.336  0.00  0.00    +0.000 N 
ATOM     24  H   UNL     1       1.165   4.246  18.776  0.00  0.00    +0.000 HD
ATOM     25  H   UNL     1       2.390   3.336  19.664  0.00  0.00    +0.000 HD
ENDBRANCH  16  23
ENDBRANCH  11  13
ENDBRANCH   3  11
BRANCH  10  26
ATOM     26  C   UNL     1      -1.961  12.588  20.866  0.00  0.00    +0.000 C 
BRANCH  26  27
ATOM     27  C   UNL     1      -2.093  11.989  22.251  0.00  0.00    +0.000 C 
BRANCH  27  28
ATOM     28  N   UNL     1      -3.457  12.259  22.727  0.00  0.00    +0.000 NA
ATOM     29  C   UNL     1      -3.634  12.660  24.136  0.00  0.00    +0.000 C 
ATOM     30  C   UNL     1      -5.123  12.448  24.466  0.00  0.00    +0.000 C 
ATOM     31  O   UNL     1      -5.954  13.197  23.590  0.00  0.00    +0.000 OA
ATOM     32  C   UNL     1      -5.708  12.840  22.237  0.00  0.00    +0.000 C 
ATOM     33  C   UNL     1      -4.257  13.125  21.865  0.00  0.00    +0.000 C 
ENDBRANCH  27  28
ENDBRANCH  26  27
ENDBRANCH  10  26
TORSDOF 6
ENDMDL
MODEL 2
REMARK VINA RESULT:      -8.9      3.026      9.870
REMARK  Name = 
REMARK  7 active torsions:
REMARK  status: ('A' for Active; 'I' for Inactive)
REMARK    1  A    between atoms: C_1  and  C_2
REMARK    2  A    between atoms: C_3  and  C_4
REMARK    3  A    between atoms: C_4  and  C_6
REMARK    4  A    between atoms: C_9  and  N_10
REMARK    5  A    between atoms: N_23  and  C_24
REMARK    6  A    between atoms: C_24  and  C_25
REMARK    7  A    between atoms: C_25  and  N_26
REMARK                            x       y       z     vdW  Elec       q    Type
REMARK                         _______ _______ _______ _____ _____    ______ ____
ROOT
ATOM      1  C   UNL     1       3.566   7.761  17.784  0.00  0.00    +0.000 C 
ATOM      2  C   UNL     1       2.981   6.513  18.314  0.00  0.00    +0.000 A 
ATOM      3  C   UNL     1       2.096   6.555  19.411  0.00  0.00    +0.000 A 
ATOM      4  C   UNL     1       1.972   5.084  19.731  0.00  0.00    +0.000 A 
ATOM      5  C   UNL     1       1.373   4.244  20.750  0.00  0.00    +0.000 A 
ATOM      6  C   UNL     1       1.446   2.802  20.693  0.00  0.00    +0.000 A 
ATOM      7  C   UNL     1       2.097   2.153  19.647  0.00  0.00    +0.000 A 
ATOM      8  C   UNL     1       2.713   2.930  18.662  0.00  0.00    +0.000 A 
ATOM      9  C   UNL     1       2.654   4.359  18.733  0.00  0.00    +0.000 A 
ATOM     10  N   UNL     1       3.259   5.217  17.871  0.00  0.00    +0.000 N 
ENDROOT
BRANCH   3  11
ATOM     11  C   UNL     1       1.458   7.853  20.207  0.00  0.00    +0.000 C 
ATOM     12  O   UNL     1       1.795   7.522  21.366  0.00  0.00    +0.000 OA
BRANCH  11  13
ATOM     13  C   UNL     1       0.581   9.401  20.494  0.00  0.00    +0.000 A 
ATOM     14  C   UNL     1       0.514   9.792  19.142  0.00  0.00    +0.000 A 
ATOM     15  C   UNL     1       0.898  11.063  18.872  0.00  0.00    +0.000 A 
ATOM     16  C   UNL     1      -0.250  11.704  18.943  0.00  0.00    +0.000 A 
ATOM     17  C   UNL     1      -0.771  11.788  20.210  0.00  0.00    +0.000 A 
ATOM     18  C   UNL     1      -1.564  12.933  20.361  0.00  0.00    +0.000 A 
ATOM     19  C   UNL     1      -1.904  13.362  21.586  0.00  0.00    +0.000 A 
ATOM     20  C   UNL     1      -1.493  12.601  22.667  0.00  0.00    +0.000 A 
ATOM     21  C   UNL     1      -0.748  11.309  22.532  0.00  0.00    +0.000 A 
ATOM     22  C   UNL     1      -0.294  10.727  21.206  0.00  0.00    +0.000 A 
BRANCH  16  23
ATOM     23  N   UNL     1      -1.018  11.881  17.777  0.00  0.00    +0.000 N 
ATOM     24  H   UNL     1      -1.079  12.856  17.445  0.00  0.00    +0.000 HD
ATOM     25  H   UNL     1      -1.164  11.127  17.098  0.00  0.00    +0.000 HD
ENDBRANCH  16  23
ENDBRANCH  11  13
ENDBRANCH   3  11
BRANCH  10  26
ATOM     26  C   UNL     1       3.976   4.680  16.690  0.00  0.00    +0.000 C 
BRANCH  26  27
ATOM     27  C   UNL     1       5.334   4.062  16.954  0.00  0.00    +0.000 C 
BRANCH  27  28
ATOM     28  N   UNL     1       6.199   5.109  17.518  0.00  0.00    +0.000 NA
ATOM     29  C   UNL     1       7.317   4.693  18.387  0.00  0.00    +0.000 C 
ATOM     30  C   UNL     1       7.756   5.947  19.163  0.00  0.00    +0.000 C 
ATOM     31  O   UNL     1       8.130   6.994  18.277  0.00  0.00    +0.000 OA
ATOM     32  C   UNL     1       7.057   7.321  17.406  0.00  0.00    +0.000 C 
ATOM     33  C   UNL     1       6.664   6.112  16.564  0.00  0.00    +0.000 C 
ENDBRANCH  27  28
ENDBRANCH  26  27
ENDBRANCH  10  26
TORSDOF 6
ENDMDL
MODEL 3
REMARK VINA RESULT:      -8.9      3.239      9.266
REMARK  Name = 
REMARK  7 active torsions:
REMARK  status: ('A' for Active; 'I' for Inactive)
REMARK    1  A    between atoms: C_1  and  C_2
REMARK    2  A    between atoms: C_3  and  C_4
REMARK    3  A    between atoms: C_4  and  C_6
REMARK    4  A    between atoms: C_9  and  N_10
REMARK    5  A    between atoms: N_23  and  C_24
REMARK    6  A    between atoms: C_24  and  C_25
REMARK    7  A    between atoms: C_25  and  N_26
REMARK                            x       y       z     vdW  Elec       q    Type
REMARK                         _______ _______ _______ _____ _____    ______ ____
ROOT
ATOM      1  C   UNL     1       1.393   4.900  17.711  0.00  0.00    +0.000 C 
ATOM      2  C   UNL     1       2.833   5.225  17.757  0.00  0.00    +0.000 A 
ATOM      3  C   UNL     1       3.253   6.555  17.972  0.00  0.00    +0.000 A 
ATOM      4  C   UNL     1       4.732   6.432  17.695  0.00  0.00    +0.000 A 
ATOM      5  C   UNL     1       5.887   7.301  17.571  0.00  0.00    +0.000 A 
ATOM      6  C   UNL     1       7.211   6.782  17.319  0.00  0.00    +0.000 A 
ATOM      7  C   UNL     1       7.438   5.415  17.188  0.00  0.00    +0.000 A 
ATOM      8  C   UNL     1       6.345   4.548  17.271  0.00  0.00    +0.000 A 
ATOM      9  C   UNL     1       5.031   5.068  17.502  0.00  0.00    +0.000 A 
ATOM     10  N   UNL     1       3.889   4.335  17.545  0.00  0.00    +0.000 N 
ENDROOT
BRANCH   3  11
ATOM     11  C   UNL     1       2.363   7.903  18.315  0.00  0.00    +0.000 C 
ATOM     12  O   UNL     1       2.674   8.572  17.303  0.00  0.00    +0.000 OA
BRANCH  11  13
ATOM     13  C   UNL     1       1.274   9.035  19.198  0.00  0.00    +0.000 A 
ATOM     14  C   UNL     1       1.455   8.459  20.471  0.00  0.00    +0.000 A 
ATOM     15  C   UNL     1       0.324   8.197  21.170  0.00  0.00    +0.000 A 
ATOM     16  C   UNL     1       0.187   9.303  21.871  0.00  0.00    +0.000 A 
ATOM     17  C   UNL     1      -0.144  10.406  21.125  0.00  0.00    +0.000 A 
ATOM     18  C   UNL     1      -0.872  11.333  21.881  0.00  0.00    +0.000 A 
ATOM     19  C   UNL     1      -1.551  12.317  21.272  0.00  0.00    +0.000 A 
ATOM     20  C   UNL     1      -1.449  12.405  19.894  0.00  0.00    +0.000 A 
ATOM     21  C   UNL     1      -0.582  11.503  19.070  0.00  0.00    +0.000 A 
ATOM     22  C   UNL     1       0.220  10.348  19.639  0.00  0.00    +0.000 A 
BRANCH  16  23
ATOM     23  N   UNL     1       0.749   9.380  23.160  0.00  0.00    +0.000 N 
ATOM     24  H   UNL     1       0.127   9.781  23.879  0.00  0.00    +0.000 HD
ATOM     25  H   UNL     1       1.507   8.759  23.464  0.00  0.00    +0.000 HD
ENDBRANCH  16  23
ENDBRANCH  11  13
ENDBRANCH   3  11
BRANCH  10  26
ATOM     26  C   UNL     1       3.966   2.858  17.442  0.00  0.00    +0.000 C 
BRANCH  26  27
ATOM     27  C   UNL     1       4.127   2.103  18.746  0.00  0.00    +0.000 C 
BRANCH  27  28
ATOM     28  N   UNL     1       3.024   2.502  19.632  0.00  0.00    +0.000 NA
ATOM     29  C   UNL     1       1.709   1.861  19.436  0.00  0.00    +0.000 C 
ATOM     30  C   UNL     1       0.680   2.747  20.160  0.00  0.00    +0.000 C 
ATOM     31  O   UNL     1       1.004   2.889  21.537  0.00  0.00    +0.000 OA
ATOM     32  C   UNL     1       2.304   3.441  21.692  0.00  0.00    +0.000 C 
ATOM     33  C   UNL     1       3.350   2.532  21.055  0.00  0.00    +0.000 C 
ENDBRANCH  27  28
ENDBRANCH  26  27
ENDBRANCH  10  26
TORSDOF 6
ENDMDL
MODEL 4
REMARK VINA RESULT:      -8.6      1.089      1.374
REMARK  Name = 
REMARK  7 active torsions:
REMARK  status: ('A' for Active; 'I' for Inactive)
REMARK    1  A    between atoms: C_1  and  C_2
REMARK    2  A    between atoms: C_3  and  C_4
REMARK    3  A    between atoms: C_4  and  C_6
REMARK    4  A    between atoms: C_9  and  N_10
REMARK    5  A    between atoms: N_23  and  C_24
REMARK    6  A    between atoms: C_24  and  C_25
REMARK    7  A    between atoms: C_25  and  N_26
REMARK                            x       y       z     vdW  Elec       q    Type
REMARK                         _______ _______ _______ _____ _____    ______ ____
ROOT
ATOM      1  C   UNL     1       1.178  11.633  20.352  0.00  0.00    +0.000 C 
ATOM      2  C   UNL     1       0.001  11.215  19.565  0.00  0.00    +0.000 A 
ATOM      3  C   UNL     1       0.139  10.253  18.543  0.00  0.00    +0.000 A 
ATOM      4  C   UNL     1      -1.221  10.339  17.890  0.00  0.00    +0.000 A 
ATOM      5  C   UNL     1      -1.898   9.805  16.724  0.00  0.00    +0.000 A 
ATOM      6  C   UNL     1      -3.281  10.107  16.437  0.00  0.00    +0.000 A 
ATOM      7  C   UNL     1      -4.030  10.929  17.276  0.00  0.00    +0.000 A 
ATOM      8  C   UNL     1      -3.402  11.488  18.393  0.00  0.00    +0.000 A 
ATOM      9  C   UNL     1      -2.025  11.200  18.663  0.00  0.00    +0.000 A 
ATOM     10  N   UNL     1      -1.294  11.725  19.680  0.00  0.00    +0.000 N 
ENDROOT
BRANCH   3  11
ATOM     11  C   UNL     1       1.455   9.361  18.099  0.00  0.00    +0.000 C 
ATOM     12  O   UNL     1       2.088  10.272  17.518  0.00  0.00    +0.000 OA
BRANCH  11  13
ATOM     13  C   UNL     1       2.547   7.943  17.883  0.00  0.00    +0.000 A 
ATOM     14  C   UNL     1       1.870   7.092  18.778  0.00  0.00    +0.000 A 
ATOM     15  C   UNL     1       2.643   6.453  19.690  0.00  0.00    +0.000 A 
ATOM     16  C   UNL     1       2.902   5.322  19.068  0.00  0.00    +0.000 A 
ATOM     17  C   UNL     1       3.729   5.454  17.980  0.00  0.00    +0.000 A 
ATOM     18  C   UNL     1       4.464   4.283  17.754  0.00  0.00    +0.000 A 
ATOM     19  C   UNL     1       5.539   4.306  16.951  0.00  0.00    +0.000 A 
ATOM     20  C   UNL     1       5.842   5.501  16.323  0.00  0.00    +0.000 A 
ATOM     21  C   UNL     1       5.006   6.737  16.450  0.00  0.00    +0.000 A 
ATOM     22  C   UNL     1       3.779   6.842  17.336  0.00  0.00    +0.000 A 
BRANCH  16  23
ATOM     23  N   UNL     1       2.061   4.211  19.271  0.00  0.00    +0.000 N 
ATOM     24  H   UNL     1       1.960   3.922  20.256  0.00  0.00    +0.000 HD
ATOM     25  H   UNL     1       1.316   3.961  18.612  0.00  0.00    +0.000 HD
ENDBRANCH  16  23
ENDBRANCH  11  13
ENDBRANCH   3  11
BRANCH  10  26
ATOM     26  C   UNL     1      -1.955  12.605  20.674  0.00  0.00    +0.000 C 
BRANCH  26  27
ATOM     27  C   UNL     1      -1.973  12.103  22.104  0.00  0.00    +0.000 C 
BRANCH  27  28
ATOM     28  N   UNL     1      -2.391  13.220  22.963  0.00  0.00    +0.000 NA
ATOM     29  C   UNL     1      -3.490  12.985  23.921  0.00  0.00    +0.000 C 
ATOM     30  C   UNL     1      -3.999  14.373  24.348  0.00  0.00    +0.000 C 
ATOM     31  O   UNL     1      -2.954  15.151  24.916  0.00  0.00    +0.000 OA
ATOM     32  C   UNL     1      -1.881  15.297  23.996  0.00  0.00    +0.000 C 
ATOM     33  C   UNL     1      -1.305  13.935  23.627  0.00  0.00    +0.000 C 
ENDBRANCH  27  28
ENDBRANCH  26  27
ENDBRANCH  10  26
TORSDOF 6
ENDMDL
MODEL 5
REMARK VINA RESULT:      -8.4      3.386      9.859
REMARK  Name = 
REMARK  7 active torsions:
REMARK  status: ('A' for Active; 'I' for Inactive)
REMARK    1  A    between atoms: C_1  and  C_2
REMARK    2  A    between atoms: C_3  and  C_4
REMARK    3  A    between atoms: C_4  and  C_6
REMARK    4  A    between atoms: C_9  and  N_10
REMARK    5  A    between atoms: N_23  and  C_24
REMARK    6  A    between atoms: C_24  and  C_25
REMARK    7  A    between atoms: C_25  and  N_26
REMARK                            x       y       z     vdW  Elec       q    Type
REMARK                         _______ _______ _______ _____ _____    ______ ____
ROOT
ATOM      1  C   UNL     1       3.967   7.231  16.804  0.00  0.00    +0.000 C 
ATOM      2  C   UNL     1       3.520   6.209  17.772  0.00  0.00    +0.000 A 
ATOM      3  C   UNL     1       2.620   6.554  18.801  0.00  0.00    +0.000 A 
ATOM      4  C   UNL     1       2.658   5.300  19.642  0.00  0.00    +0.000 A 
ATOM      5  C   UNL     1       2.144   4.834  20.916  0.00  0.00    +0.000 A 
ATOM      6  C   UNL     1       2.379   3.490  21.390  0.00  0.00    +0.000 A 
ATOM      7  C   UNL     1       3.114   2.577  20.637  0.00  0.00    +0.000 A 
ATOM      8  C   UNL     1       3.652   3.000  19.419  0.00  0.00    +0.000 A 
ATOM      9  C   UNL     1       3.432   4.339  18.961  0.00  0.00    +0.000 A 
ATOM     10  N   UNL     1       3.948   4.880  17.828  0.00  0.00    +0.000 N 
ENDROOT
BRANCH   3  11
ATOM     11  C   UNL     1       1.829   7.976  19.083  0.00  0.00    +0.000 C 
ATOM     12  O   UNL     1       1.850   8.415  17.910  0.00  0.00    +0.000 OA
BRANCH  11  13
ATOM     13  C   UNL     1       0.991   9.302  19.970  0.00  0.00    +0.000 A 
ATOM     14  C   UNL     1       0.766   8.574  21.154  0.00  0.00    +0.000 A 
ATOM     15  C   UNL     1      -0.496   8.618  21.648  0.00  0.00    +0.000 A 
ATOM     16  C   UNL     1      -0.416   9.634  22.481  0.00  0.00    +0.000 A 
ATOM     17  C   UNL     1      -0.266  10.854  21.871  0.00  0.00    +0.000 A 
ATOM     18  C   UNL     1      -0.805  11.885  22.652  0.00  0.00    +0.000 A 
ATOM     19  C   UNL     1      -1.042  13.089  22.110  0.00  0.00    +0.000 A 
ATOM     20  C   UNL     1      -0.678  13.277  20.787  0.00  0.00    +0.000 A 
ATOM     21  C   UNL     1       0.009  12.233  19.963  0.00  0.00    +0.000 A 
ATOM     22  C   UNL     1       0.317  10.832  20.456  0.00  0.00    +0.000 A 
BRANCH  16  23
ATOM     23  N   UNL     1      -0.091   9.399  23.831  0.00  0.00    +0.000 N 
ATOM     24  H   UNL     1       0.286   8.459  24.026  0.00  0.00    +0.000 HD
ATOM     25  H   UNL     1       0.142  10.160  24.478  0.00  0.00    +0.000 HD
ENDBRANCH  16  23
ENDBRANCH  11  13
ENDBRANCH   3  11
BRANCH  10  26
ATOM     26  C   UNL     1       4.737   4.028  16.906  0.00  0.00    +0.000 C 
BRANCH  26  27
ATOM     27  C   UNL     1       5.900   4.699  16.204  0.00  0.00    +0.000 C 
BRANCH  27  28
ATOM     28  N   UNL     1       6.644   5.471  17.210  0.00  0.00    +0.000 NA
ATOM     29  C   UNL     1       7.513   4.734  18.148  0.00  0.00    +0.000 C 
ATOM     30  C   UNL     1       7.801   5.691  19.319  0.00  0.00    +0.000 C 
ATOM     31  O   UNL     1       8.407   6.893  18.862  0.00  0.00    +0.000 OA
ATOM     32  C   UNL     1       7.578   7.541  17.907  0.00  0.00    +0.000 C 
ATOM     33  C   UNL     1       7.352   6.641  16.697  0.00  0.00    +0.000 C 
ENDBRANCH  27  28
ENDBRANCH  26  27
ENDBRANCH  10  26
TORSDOF 6
ENDMDL
MODEL 6
REMARK VINA RESULT:      -8.4      1.866      2.231
REMARK  Name = 
REMARK  7 active torsions:
REMARK  status: ('A' for Active; 'I' for Inactive)
REMARK    1  A    between atoms: C_1  and  C_2
REMARK    2  A    between atoms: C_3  and  C_4
REMARK    3  A    between atoms: C_4  and  C_6
REMARK    4  A    between atoms: C_9  and  N_10
REMARK    5  A    between atoms: N_23  and  C_24
REMARK    6  A    between atoms: C_24  and  C_25
REMARK    7  A    between atoms: C_25  and  N_26
REMARK                            x       y       z     vdW  Elec       q    Type
REMARK                         _______ _______ _______ _____ _____    ______ ____
ROOT
ATOM      1  C   UNL     1       1.392  11.644  20.371  0.00  0.00    +0.000 C 
ATOM      2  C   UNL     1       0.199  11.204  19.621  0.00  0.00    +0.000 A 
ATOM      3  C   UNL     1       0.323  10.250  18.590  0.00  0.00    +0.000 A 
ATOM      4  C   UNL     1      -1.059  10.310  17.982  0.00  0.00    +0.000 A 
ATOM      5  C   UNL     1      -1.763   9.766  16.837  0.00  0.00    +0.000 A 
ATOM      6  C   UNL     1      -3.160  10.040  16.597  0.00  0.00    +0.000 A 
ATOM      7  C   UNL     1      -3.898  10.843  17.463  0.00  0.00    +0.000 A 
ATOM      8  C   UNL     1      -3.245  11.410  18.562  0.00  0.00    +0.000 A 
ATOM      9  C   UNL     1      -1.855  11.150  18.785  0.00  0.00    +0.000 A 
ATOM     10  N   UNL     1      -1.102  11.687  19.780  0.00  0.00    +0.000 N 
ENDROOT
BRANCH   3  11
ATOM     11  C   UNL     1       1.642   9.387  18.099  0.00  0.00    +0.000 C 
ATOM     12  O   UNL     1       2.226  10.308  17.484  0.00  0.00    +0.000 OA
BRANCH  11  13
ATOM     13  C   UNL     1       2.761   7.996  17.852  0.00  0.00    +0.000 A 
ATOM     14  C   UNL     1       1.859   6.998  18.270  0.00  0.00    +0.000 A 
ATOM     15  C   UNL     1       2.337   6.106  19.171  0.00  0.00    +0.000 A 
ATOM     16  C   UNL     1       2.776   5.147  18.383  0.00  0.00    +0.000 A 
ATOM     17  C   UNL     1       3.883   5.485  17.646  0.00  0.00    +0.000 A 
ATOM     18  C   UNL     1       4.662   4.359  17.350  0.00  0.00    +0.000 A 
ATOM     19  C   UNL     1       5.924   4.506  16.919  0.00  0.00    +0.000 A 
ATOM     20  C   UNL     1       6.388   5.796  16.728  0.00  0.00    +0.000 A 
ATOM     21  C   UNL     1       5.541   7.016  16.920  0.00  0.00    +0.000 A 
ATOM     22  C   UNL     1       4.108   6.982  17.417  0.00  0.00    +0.000 A 
BRANCH  16  23
ATOM     23  N   UNL     1       1.922   4.079  18.050  0.00  0.00    +0.000 N 
ATOM     24  H   UNL     1       1.708   3.437  18.830  0.00  0.00    +0.000 HD
ATOM     25  H   UNL     1       1.258   4.131  17.269  0.00  0.00    +0.000 HD
ENDBRANCH  16  23
ENDBRANCH  11  13
ENDBRANCH   3  11
BRANCH  10  26
ATOM     26  C   UNL     1      -1.748  12.549  20.800  0.00  0.00    +0.000 C 
BRANCH  26  27
ATOM     27  C   UNL     1      -1.567  14.043  20.626  0.00  0.00    +0.000 C 
BRANCH  27  28
ATOM     28  N   UNL     1      -1.262  14.613  21.946  0.00  0.00    +0.000 NA
ATOM     29  C   UNL     1      -1.368  13.730  23.125  0.00  0.00    +0.000 C 
ATOM     30  C   UNL     1      -1.433  14.652  24.355  0.00  0.00    +0.000 C 
ATOM     31  O   UNL     1      -0.292  15.498  24.423  0.00  0.00    +0.000 OA
ATOM     32  C   UNL     1      -0.178  16.282  23.243  0.00  0.00    +0.000 C 
ATOM     33  C   UNL     1      -0.025  15.385  22.019  0.00  0.00    +0.000 C 
ENDBRANCH  27  28
ENDBRANCH  26  27
ENDBRANCH  10  26
TORSDOF 6
ENDMDL
MODEL 7
REMARK VINA RESULT:      -8.3      3.380     10.457
REMARK  Name = 
REMARK  7 active torsions:
REMARK  status: ('A' for Active; 'I' for Inactive)
REMARK    1  A    between atoms: C_1  and  C_2
REMARK    2  A    between atoms: C_3  and  C_4
REMARK    3  A    between atoms: C_4  and  C_6
REMARK    4  A    between atoms: C_9  and  N_10
REMARK    5  A    between atoms: N_23  and  C_24
REMARK    6  A    between atoms: C_24  and  C_25
REMARK    7  A    between atoms: C_25  and  N_26
REMARK                            x       y       z     vdW  Elec       q    Type
REMARK                         _______ _______ _______ _____ _____    ______ ____
ROOT
ATOM      1  C   UNL     1       4.507   7.248  17.445  0.00  0.00    +0.000 C 
ATOM      2  C   UNL     1       3.923   6.180  18.282  0.00  0.00    +0.000 A 
ATOM      3  C   UNL     1       2.832   6.462  19.130  0.00  0.00    +0.000 A 
ATOM      4  C   UNL     1       2.758   5.182  19.928  0.00  0.00    +0.000 A 
ATOM      5  C   UNL     1       2.029   4.656  21.067  0.00  0.00    +0.000 A 
ATOM      6  C   UNL     1       2.221   3.305  21.541  0.00  0.00    +0.000 A 
ATOM      7  C   UNL     1       3.118   2.442  20.917  0.00  0.00    +0.000 A 
ATOM      8  C   UNL     1       3.861   2.923  19.835  0.00  0.00    +0.000 A 
ATOM      9  C   UNL     1       3.682   4.269  19.381  0.00  0.00    +0.000 A 
ATOM     10  N   UNL     1       4.383   4.864  18.382  0.00  0.00    +0.000 N 
ENDROOT
BRANCH   3  11
ATOM     11  C   UNL     1       1.949   7.847  19.294  0.00  0.00    +0.000 C 
ATOM     12  O   UNL     1       1.870   8.141  18.079  0.00  0.00    +0.000 OA
BRANCH  11  13
ATOM     13  C   UNL     1       1.062   9.209  20.073  0.00  0.00    +0.000 A 
ATOM     14  C   UNL     1       0.797   8.543  21.286  0.00  0.00    +0.000 A 
ATOM     15  C   UNL     1      -0.484   8.598  21.725  0.00  0.00    +0.000 A 
ATOM     16  C   UNL     1      -0.450   9.658  22.505  0.00  0.00    +0.000 A 
ATOM     17  C   UNL     1      -0.288  10.845  21.835  0.00  0.00    +0.000 A 
ATOM     18  C   UNL     1      -0.869  11.909  22.536  0.00  0.00    +0.000 A 
ATOM     19  C   UNL     1      -1.097  13.080  21.920  0.00  0.00    +0.000 A 
ATOM     20  C   UNL     1      -0.682  13.200  20.604  0.00  0.00    +0.000 A 
ATOM     21  C   UNL     1       0.050  12.122  19.866  0.00  0.00    +0.000 A 
ATOM     22  C   UNL     1       0.352  10.753  20.447  0.00  0.00    +0.000 A 
BRANCH  16  23
ATOM     23  N   UNL     1      -0.177   9.501  23.877  0.00  0.00    +0.000 N 
ATOM     24  H   UNL     1      -0.486   8.602  24.278  0.00  0.00    +0.000 HD
ATOM     25  H   UNL     1       0.583  10.005  24.345  0.00  0.00    +0.000 HD
ENDBRANCH  16  23
ENDBRANCH  11  13
ENDBRANCH   3  11
BRANCH  10  26
ATOM     26  C   UNL     1       5.363   4.069  17.605  0.00  0.00    +0.000 C 
BRANCH  26  27
ATOM     27  C   UNL     1       4.883   3.529  16.273  0.00  0.00    +0.000 C 
BRANCH  27  28
ATOM     28  N   UNL     1       5.836   3.967  15.243  0.00  0.00    +0.000 NA
ATOM     29  C   UNL     1       5.381   3.984  13.839  0.00  0.00    +0.000 C 
ATOM     30  C   UNL     1       6.651   4.044  12.971  0.00  0.00    +0.000 C 
ATOM     31  O   UNL     1       7.439   5.183  13.290  0.00  0.00    +0.000 OA
ATOM     32  C   UNL     1       7.799   5.173  14.665  0.00  0.00    +0.000 C 
ATOM     33  C   UNL     1       6.553   5.202  15.544  0.00  0.00    +0.000 C 
ENDBRANCH  27  28
ENDBRANCH  26  27
ENDBRANCH  10  26
TORSDOF 6
ENDMDL
MODEL 8
REMARK VINA RESULT:      -8.3      3.458      4.991
REMARK  Name = 
REMARK  7 active torsions:
REMARK  status: ('A' for Active; 'I' for Inactive)
REMARK    1  A    between atoms: C_1  and  C_2
REMARK    2  A    between atoms: C_3  and  C_4
REMARK    3  A    between atoms: C_4  and  C_6
REMARK    4  A    between atoms: C_9  and  N_10
REMARK    5  A    between atoms: N_23  and  C_24
REMARK    6  A    between atoms: C_24  and  C_25
REMARK    7  A    between atoms: C_25  and  N_26
REMARK                            x       y       z     vdW  Elec       q    Type
REMARK                         _______ _______ _______ _____ _____    ______ ____
ROOT
ATOM      1  C   UNL     1       2.001  12.026  18.026  0.00  0.00    +0.000 C 
ATOM      2  C   UNL     1       1.451  11.430  19.260  0.00  0.00    +0.000 A 
ATOM      3  C   UNL     1       1.411  10.028  19.412  0.00  0.00    +0.000 A 
ATOM      4  C   UNL     1       0.573   9.904  20.662  0.00  0.00    +0.000 A 
ATOM      5  C   UNL     1      -0.048   8.857  21.451  0.00  0.00    +0.000 A 
ATOM      6  C   UNL     1      -0.781   9.143  22.662  0.00  0.00    +0.000 A 
ATOM      7  C   UNL     1      -0.922  10.447  23.130  0.00  0.00    +0.000 A 
ATOM      8  C   UNL     1      -0.364  11.486  22.380  0.00  0.00    +0.000 A 
ATOM      9  C   UNL     1       0.346  11.199  21.169  0.00  0.00    +0.000 A 
ATOM     10  N   UNL     1       0.880  12.123  20.330  0.00  0.00    +0.000 N 
ENDROOT
BRANCH   3  11
ATOM     11  C   UNL     1       2.012   8.840  18.436  0.00  0.00    +0.000 C 
ATOM     12  O   UNL     1       1.194   8.965  17.496  0.00  0.00    +0.000 OA
BRANCH  11  13
ATOM     13  C   UNL     1       3.046   7.480  17.861  0.00  0.00    +0.000 A 
ATOM     14  C   UNL     1       2.564   6.525  18.778  0.00  0.00    +0.000 A 
ATOM     15  C   UNL     1       3.507   5.816  19.446  0.00  0.00    +0.000 A 
ATOM     16  C   UNL     1       3.642   4.762  18.670  0.00  0.00    +0.000 A 
ATOM     17  C   UNL     1       4.234   5.024  17.460  0.00  0.00    +0.000 A 
ATOM     18  C   UNL     1       4.915   3.902  16.972  0.00  0.00    +0.000 A 
ATOM     19  C   UNL     1       5.808   4.034  15.979  0.00  0.00    +0.000 A 
ATOM     20  C   UNL     1       5.974   5.294  15.432  0.00  0.00    +0.000 A 
ATOM     21  C   UNL     1       5.174   6.489  15.851  0.00  0.00    +0.000 A 
ATOM     22  C   UNL     1       4.148   6.472  16.969  0.00  0.00    +0.000 A 
BRANCH  16  23
ATOM     23  N   UNL     1       2.864   3.615  18.918  0.00  0.00    +0.000 N 
ATOM     24  H   UNL     1       2.965   3.221  19.866  0.00  0.00    +0.000 HD
ATOM     25  H   UNL     1       2.001   3.417  18.400  0.00  0.00    +0.000 HD
ENDBRANCH  16  23
ENDBRANCH  11  13
ENDBRANCH   3  11
BRANCH  10  26
ATOM     26  C   UNL     1       0.831  13.559  20.699  0.00  0.00    +0.000 C 
BRANCH  26  27
ATOM     27  C   UNL     1       2.160  14.217  21.008  0.00  0.00    +0.000 C 
BRANCH  27  28
ATOM     28  N   UNL     1       2.477  15.127  19.899  0.00  0.00    +0.000 NA
ATOM     29  C   UNL     1       1.815  16.446  19.871  0.00  0.00    +0.000 C 
ATOM     30  C   UNL     1       1.973  16.983  18.438  0.00  0.00    +0.000 C 
ATOM     31  O   UNL     1       3.343  17.067  18.069  0.00  0.00    +0.000 OA
ATOM     32  C   UNL     1       3.969  15.796  18.176  0.00  0.00    +0.000 C 
ATOM     33  C   UNL     1       3.900  15.285  19.611  0.00  0.00    +0.000 C 
ENDBRANCH  27  28
ENDBRANCH  26  27
ENDBRANCH  10  26
TORSDOF 6
ENDMDL
MODEL 9
REMARK VINA RESULT:      -8.3      1.592      3.071
REMARK  Name = 
REMARK  7 active torsions:
REMARK  status: ('A' for Active; 'I' for Inactive)
REMARK    1  A    between atoms: C_1  and  C_2
REMARK    2  A    between atoms: C_3  and  C_4
REMARK    3  A    between atoms: C_4  and  C_6
REMARK    4  A    between atoms: C_9  and  N_10
REMARK    5  A    between atoms: N_23  and  C_24
REMARK    6  A    between atoms: C_24  and  C_25
REMARK    7  A    between atoms: C_25  and  N_26
REMARK                            x       y       z     vdW  Elec       q    Type
REMARK                         _______ _______ _______ _____ _____    ______ ____
ROOT
ATOM      1  C   UNL     1      -1.525   9.618  16.735  0.00  0.00    +0.000 C 
ATOM      2  C   UNL     1      -1.311  10.408  17.965  0.00  0.00    +0.000 A 
ATOM      3  C   UNL     1      -0.099  10.296  18.677  0.00  0.00    +0.000 A 
ATOM      4  C   UNL     1      -0.438  11.064  19.933  0.00  0.00    +0.000 A 
ATOM      5  C   UNL     1       0.161  11.350  21.223  0.00  0.00    +0.000 A 
ATOM      6  C   UNL     1      -0.489  12.194  22.197  0.00  0.00    +0.000 A 
ATOM      7  C   UNL     1      -1.727  12.777  21.938  0.00  0.00    +0.000 A 
ATOM      8  C   UNL     1      -2.350  12.499  20.717  0.00  0.00    +0.000 A 
ATOM      9  C   UNL     1      -1.710  11.646  19.761  0.00  0.00    +0.000 A 
ATOM     10  N   UNL     1      -2.238  11.259  18.572  0.00  0.00    +0.000 N 
ENDROOT
BRANCH   3  11
ATOM     11  C   UNL     1       1.274   9.459  18.304  0.00  0.00    +0.000 C 
ATOM     12  O   UNL     1       2.016  10.443  18.082  0.00  0.00    +0.000 OA
BRANCH  11  13
ATOM     13  C   UNL     1       2.379   8.071  17.986  0.00  0.00    +0.000 A 
ATOM     14  C   UNL     1       1.762   7.177  18.882  0.00  0.00    +0.000 A 
ATOM     15  C   UNL     1       2.591   6.522  19.731  0.00  0.00    +0.000 A 
ATOM     16  C   UNL     1       2.839   5.418  19.058  0.00  0.00    +0.000 A 
ATOM     17  C   UNL     1       3.608   5.603  17.936  0.00  0.00    +0.000 A 
ATOM     18  C   UNL     1       4.352   4.456  17.633  0.00  0.00    +0.000 A 
ATOM     19  C   UNL     1       5.385   4.527  16.780  0.00  0.00    +0.000 A 
ATOM     20  C   UNL     1       5.635   5.749  16.180  0.00  0.00    +0.000 A 
ATOM     21  C   UNL     1       4.784   6.963  16.391  0.00  0.00    +0.000 A 
ATOM     22  C   UNL     1       3.602   7.013  17.340  0.00  0.00    +0.000 A 
BRANCH  16  23
ATOM     23  N   UNL     1       2.030   4.285  19.263  0.00  0.00    +0.000 N 
ATOM     24  H   UNL     1       1.126   4.478  19.722  0.00  0.00    +0.000 HD
ATOM     25  H   UNL     1       2.109   3.444  18.682  0.00  0.00    +0.000 HD
ENDBRANCH  16  23
ENDBRANCH  11  13
ENDBRANCH   3  11
BRANCH  10  26
ATOM     26  C   UNL     1      -3.545  11.811  18.139  0.00  0.00    +0.000 C 
BRANCH  26  27
ATOM     27  C   UNL     1      -4.675  10.815  17.985  0.00  0.00    +0.000 C 
BRANCH  27  28
ATOM     28  N   UNL     1      -5.625  11.043  19.083  0.00  0.00    +0.000 NA
ATOM     29  C   UNL     1      -5.880  12.435  19.503  0.00  0.00    +0.000 C 
ATOM     30  C   UNL     1      -6.530  12.358  20.896  0.00  0.00    +0.000 C 
ATOM     31  O   UNL     1      -7.722  11.583  20.864  0.00  0.00    +0.000 OA
ATOM     32  C   UNL     1      -7.455  10.272  20.387  0.00  0.00    +0.000 C 
ATOM     33  C   UNL     1      -6.890  10.323  18.972  0.00  0.00    +0.000 C 
ENDBRANCH  27  28
ENDBRANCH  26  27
ENDBRANCH  10  26
TORSDOF 6
ENDMDL
