MODEL 1
REMARK VINA RESULT:      -9.7      0.000      0.000
REMARK  Name = 
REMARK  6 active torsions:
REMARK  status: ('A' for Active; 'I' for Inactive)
REMARK    1  A    between atoms: C_2  and  C_5
REMARK    2  A    between atoms: N_3  and  O_4
REMARK    3  A    between atoms: C_5  and  S_6
REMARK    4  A    between atoms: S_6  and  C_9
REMARK    5  A    between atoms: C_12  and  O_13
REMARK    6  A    between atoms: O_13  and  C_14
REMARK                            x       y       z     vdW  Elec       q    Type
REMARK                         _______ _______ _______ _____ _____    ______ ____
ROOT
ATOM      1  S   UNL     1       3.864   5.301  18.606  0.00  0.00    +0.000 S 
ATOM      2  O   UNL     1       4.958   5.461  19.542  0.00  0.00    +0.000 OA
ATOM      3  O   UNL     1       4.157   5.099  17.190  0.00  0.00    +0.000 OA
ENDROOT
BRANCH   1   4
ATOM      4  C   UNL     1       2.850   3.908  19.138  0.00  0.00    +0.000 C 
ATOM      5  C   UNL     1       2.378   4.135  20.590  0.00  0.00    +0.000 C 
ATOM      6  C   UNL     1       1.355   3.108  21.059  0.00  0.00    +0.000 C 
ATOM      7  N   UNL     1       0.246   2.987  20.117  0.00  0.00    +0.000 NA
ATOM      8  C   UNL     1       0.710   2.608  18.789  0.00  0.00    +0.000 C 
ATOM      9  C   UNL     1       1.634   3.682  18.217  0.00  0.00    +0.000 C 
ATOM     10  H   UNL     1      -0.285   3.857  20.077  0.00  0.00    +0.000 HD
BRANCH   4  12
ATOM     11  O   UNL     1       3.919   2.039  17.985  0.00  0.00    +0.000 OA
ATOM     12  C   UNL     1       3.795   2.699  19.018  0.00  0.00    +0.000 C 
ATOM     13  N   UNL     1       4.570   2.433  20.128  0.00  0.00    +0.000 N 
ATOM     14  H   UNL     1       4.254   2.654  21.075  0.00  0.00    +0.000 HD
BRANCH  13  15
ATOM     15  O   UNL     1       5.403   1.296  20.028  0.00  0.00    +0.000 OA
ATOM     16  H   UNL     1       4.763   0.566  19.870  0.00  0.00    +0.000 HD
ENDBRANCH  13  15
ENDBRANCH   4  12
ENDBRANCH   1   4
BRANCH   1  17
ATOM     17  C   UNL     1       2.871   6.772  18.722  0.00  0.00    +0.000 A 
ATOM     18  C   UNL     1       2.190   7.051  19.914  0.00  0.00    +0.000 A 
ATOM     19  C   UNL     1       1.523   8.269  20.056  0.00  0.00    +0.000 A 
ATOM     20  C   UNL     1       1.567   9.205  19.017  0.00  0.00    +0.000 A 
ATOM     21  C   UNL     1       2.212   8.899  17.815  0.00  0.00    +0.000 A 
ATOM     22  C   UNL     1       2.894   7.693  17.679  0.00  0.00    +0.000 A 
BRANCH  20  23
ATOM     23  O   UNL     1       0.941  10.415  19.198  0.00  0.00    +0.000 OA
BRANCH  23  24
ATOM     24  C   UNL     1      -0.359  10.557  18.750  0.00  0.00    +0.000 A 
ATOM     25  C   UNL     1      -1.122  11.533  19.427  0.00  0.00    +0.000 A 
ATOM     26  C   UNL     1      -2.417  11.856  19.006  0.00  0.00    +0.000 A 
ATOM     27  C   UNL     1      -2.896  11.212  17.888  0.00  0.00    +0.000 A 
ATOM     28  C   UNL     1      -2.166  10.237  17.245  0.00  0.00    +0.000 A 
ATOM     29  C   UNL     1      -0.903   9.878  17.652  0.00  0.00    +0.000 A 
ATOM     30  O   UNL     1      -2.800   9.772  16.132  0.00  0.00    +0.000 OA
ATOM     31  C   UNL     1      -3.786  10.810  15.983  0.00  0.00    +0.000 C 
ATOM     32  O   UNL     1      -4.055  11.491  17.227  0.00  0.00    +0.000 OA
ENDBRANCH  23  24
ENDBRANCH  20  23
ENDBRANCH   1  17
TORSDOF 6
ENDMDL
MODEL 2
REMARK VINA RESULT:      -9.3      1.871      2.926
REMARK  Name = 
REMARK  6 active torsions:
REMARK  status: ('A' for Active; 'I' for Inactive)
REMARK    1  A    between atoms: C_2  and  C_5
REMARK    2  A    between atoms: N_3  and  O_4
REMARK    3  A    between atoms: C_5  and  S_6
REMARK    4  A    between atoms: S_6  and  C_9
REMARK    5  A    between atoms: C_12  and  O_13
REMARK    6  A    between atoms: O_13  and  C_14
REMARK                            x       y       z     vdW  Elec       q    Type
REMARK                         _______ _______ _______ _____ _____    ______ ____
ROOT
ATOM      1  S   UNL     1       2.594   4.721  19.333  0.00  0.00    +0.000 S 
ATOM      2  O   UNL     1       1.608   4.072  18.492  0.00  0.00    +0.000 OA
ATOM      3  O   UNL     1       2.666   4.374  20.749  0.00  0.00    +0.000 OA
ENDROOT
BRANCH   1   4
ATOM      4  C   UNL     1       4.229   4.428  18.634  0.00  0.00    +0.000 C 
ATOM      5  C   UNL     1       4.183   4.626  17.104  0.00  0.00    +0.000 C 
ATOM      6  C   UNL     1       5.559   4.593  16.449  0.00  0.00    +0.000 C 
ATOM      7  N   UNL     1       6.488   5.506  17.109  0.00  0.00    +0.000 NA
ATOM      8  C   UNL     1       6.638   5.189  18.523  0.00  0.00    +0.000 C 
ATOM      9  C   UNL     1       5.304   5.344  19.252  0.00  0.00    +0.000 C 
ATOM     10  H   UNL     1       6.184   6.474  16.989  0.00  0.00    +0.000 HD
BRANCH   4  12
ATOM     11  O   UNL     1       5.170   2.659  20.031  0.00  0.00    +0.000 OA
ATOM     12  C   UNL     1       4.538   2.970  19.021  0.00  0.00    +0.000 C 
ATOM     13  N   UNL     1       3.994   2.006  18.199  0.00  0.00    +0.000 N 
ATOM     14  H   UNL     1       3.826   2.171  17.204  0.00  0.00    +0.000 HD
BRANCH  13  15
ATOM     15  O   UNL     1       4.317   0.671  18.533  0.00  0.00    +0.000 OA
ATOM     16  H   UNL     1       3.795   0.515  19.353  0.00  0.00    +0.000 HD
ENDBRANCH  13  15
ENDBRANCH   4  12
ENDBRANCH   1   4
BRANCH   1  17
ATOM     17  C   UNL     1       2.270   6.467  19.246  0.00  0.00    +0.000 A 
ATOM     18  C   UNL     1       2.383   7.129  18.016  0.00  0.00    +0.000 A 
ATOM     19  C   UNL     1       1.998   8.467  17.917  0.00  0.00    +0.000 A 
ATOM     20  C   UNL     1       1.480   9.121  19.039  0.00  0.00    +0.000 A 
ATOM     21  C   UNL     1       1.412   8.465  20.272  0.00  0.00    +0.000 A 
ATOM     22  C   UNL     1       1.777   7.126  20.369  0.00  0.00    +0.000 A 
BRANCH  20  23
ATOM     23  O   UNL     1       1.064  10.424  18.905  0.00  0.00    +0.000 OA
BRANCH  23  24
ATOM     24  C   UNL     1      -0.285  10.670  18.736  0.00  0.00    +0.000 A 
ATOM     25  C   UNL     1      -0.815  11.691  19.555  0.00  0.00    +0.000 A 
ATOM     26  C   UNL     1      -2.141  12.117  19.410  0.00  0.00    +0.000 A 
ATOM     27  C   UNL     1      -2.888  11.527  18.417  0.00  0.00    +0.000 A 
ATOM     28  C   UNL     1      -2.384  10.508  17.638  0.00  0.00    +0.000 A 
ATOM     29  C   UNL     1      -1.094  10.050  17.775  0.00  0.00    +0.000 A 
ATOM     30  O   UNL     1      -3.267  10.109  16.681  0.00  0.00    +0.000 OA
ATOM     31  C   UNL     1      -4.180  11.221  16.738  0.00  0.00    +0.000 C 
ATOM     32  O   UNL     1      -4.133  11.902  18.010  0.00  0.00    +0.000 OA
ENDBRANCH  23  24
ENDBRANCH  20  23
ENDBRANCH   1  17
TORSDOF 6
ENDMDL
MODEL 3
REMARK VINA RESULT:      -9.2      0.602      1.298
REMARK  Name = 
REMARK  6 active torsions:
REMARK  status: ('A' for Active; 'I' for Inactive)
REMARK    1  A    between atoms: C_2  and  C_5
REMARK    2  A    between atoms: N_3  and  O_4
REMARK    3  A    between atoms: C_5  and  S_6
REMARK    4  A    between atoms: S_6  and  C_9
REMARK    5  A    between atoms: C_12  and  O_13
REMARK    6  A    between atoms: O_13  and  C_14
REMARK                            x       y       z     vdW  Elec       q    Type
REMARK                         _______ _______ _______ _____ _____    ______ ____
ROOT
ATOM      1  S   UNL     1       3.788   5.470  18.605  0.00  0.00    +0.000 S 
ATOM      2  O   UNL     1       4.889   5.629  19.533  0.00  0.00    +0.000 OA
ATOM      3  O   UNL     1       4.069   5.305  17.182  0.00  0.00    +0.000 OA
ENDROOT
BRANCH   1   4
ATOM      4  C   UNL     1       2.805   4.048  19.117  0.00  0.00    +0.000 C 
ATOM      5  C   UNL     1       2.335   4.239  20.575  0.00  0.00    +0.000 C 
ATOM      6  C   UNL     1       1.335   3.184  21.029  0.00  0.00    +0.000 C 
ATOM      7  N   UNL     1       0.224   3.058  20.091  0.00  0.00    +0.000 NA
ATOM      8  C   UNL     1       0.688   2.712  18.753  0.00  0.00    +0.000 C 
ATOM      9  C   UNL     1       1.589   3.814  18.197  0.00  0.00    +0.000 C 
ATOM     10  H   UNL     1      -0.325   3.919  20.068  0.00  0.00    +0.000 HD
BRANCH   4  12
ATOM     11  O   UNL     1       3.945   2.256  17.910  0.00  0.00    +0.000 OA
ATOM     12  C   UNL     1       3.773   2.860  18.970  0.00  0.00    +0.000 C 
ATOM     13  N   UNL     1       4.510   2.549  20.093  0.00  0.00    +0.000 N 
ATOM     14  H   UNL     1       4.157   2.715  21.038  0.00  0.00    +0.000 HD
BRANCH  13  15
ATOM     15  O   UNL     1       5.364   1.430  19.966  0.00  0.00    +0.000 OA
ATOM     16  H   UNL     1       6.238   1.839  19.776  0.00  0.00    +0.000 HD
ENDBRANCH  13  15
ENDBRANCH   4  12
ENDBRANCH   1   4
BRANCH   1  17
ATOM     17  C   UNL     1       2.772   6.920  18.765  0.00  0.00    +0.000 A 
ATOM     18  C   UNL     1       2.121   7.176  19.979  0.00  0.00    +0.000 A 
ATOM     19  C   UNL     1       1.436   8.380  20.152  0.00  0.00    +0.000 A 
ATOM     20  C   UNL     1       1.430   9.325  19.121  0.00  0.00    +0.000 A 
ATOM     21  C   UNL     1       2.044   9.042  17.898  0.00  0.00    +0.000 A 
ATOM     22  C   UNL     1       2.745   7.851  17.730  0.00  0.00    +0.000 A 
BRANCH  20  23
ATOM     23  O   UNL     1       0.788  10.521  19.332  0.00  0.00    +0.000 OA
BRANCH  23  24
ATOM     24  C   UNL     1      -0.465  10.702  18.776  0.00  0.00    +0.000 A 
ATOM     25  C   UNL     1      -0.759   9.863  17.679  0.00  0.00    +0.000 A 
ATOM     26  C   UNL     1      -2.030   9.864  17.091  0.00  0.00    +0.000 A 
ATOM     27  C   UNL     1      -2.982  10.687  17.648  0.00  0.00    +0.000 A 
ATOM     28  C   UNL     1      -2.688  11.531  18.697  0.00  0.00    +0.000 A 
ATOM     29  C   UNL     1      -1.442  11.571  19.278  0.00  0.00    +0.000 A 
ATOM     30  O   UNL     1      -3.785  12.212  19.130  0.00  0.00    +0.000 OA
ATOM     31  C   UNL     1      -4.807  11.428  18.486  0.00  0.00    +0.000 C 
ATOM     32  O   UNL     1      -4.307  10.721  17.331  0.00  0.00    +0.000 OA
ENDBRANCH  23  24
ENDBRANCH  20  23
ENDBRANCH   1  17
TORSDOF 6
ENDMDL
MODEL 4
REMARK VINA RESULT:      -9.2      0.466      1.012
REMARK  Name = 
REMARK  6 active torsions:
REMARK  status: ('A' for Active; 'I' for Inactive)
REMARK    1  A    between atoms: C_2  and  C_5
REMARK    2  A    between atoms: N_3  and  O_4
REMARK    3  A    between atoms: C_5  and  S_6
REMARK    4  A    between atoms: S_6  and  C_9
REMARK    5  A    between atoms: C_12  and  O_13
REMARK    6  A    between atoms: O_13  and  C_14
REMARK                            x       y       z     vdW  Elec       q    Type
REMARK                         _______ _______ _______ _____ _____    ______ ____
ROOT
ATOM      1  S   UNL     1       3.794   5.580  18.486  0.00  0.00    +0.000 S 
ATOM      2  O   UNL     1       5.018   5.627  19.259  0.00  0.00    +0.000 OA
ATOM      3  O   UNL     1       3.869   5.482  17.032  0.00  0.00    +0.000 OA
ENDROOT
BRANCH   1   4
ATOM      4  C   UNL     1       2.805   4.186  19.059  0.00  0.00    +0.000 C 
ATOM      5  C   UNL     1       2.372   4.422  20.521  0.00  0.00    +0.000 C 
ATOM      6  C   UNL     1       1.369   3.392  21.027  0.00  0.00    +0.000 C 
ATOM      7  N   UNL     1       0.235   3.255  20.117  0.00  0.00    +0.000 NA
ATOM      8  C   UNL     1       0.664   2.868  18.780  0.00  0.00    +0.000 C 
ATOM      9  C   UNL     1       1.566   3.943  18.174  0.00  0.00    +0.000 C 
ATOM     10  H   UNL     1      -0.303   4.122  20.084  0.00  0.00    +0.000 HD
BRANCH   4  12
ATOM     11  O   UNL     1       3.910   2.360  17.870  0.00  0.00    +0.000 OA
ATOM     12  C   UNL     1       3.755   2.982  18.922  0.00  0.00    +0.000 C 
ATOM     13  N   UNL     1       4.496   2.675  20.044  0.00  0.00    +0.000 N 
ATOM     14  H   UNL     1       4.152   2.861  20.989  0.00  0.00    +0.000 HD
BRANCH  13  15
ATOM     15  O   UNL     1       5.333   1.542  19.928  0.00  0.00    +0.000 OA
ATOM     16  H   UNL     1       4.694   0.810  19.774  0.00  0.00    +0.000 HD
ENDBRANCH  13  15
ENDBRANCH   4  12
ENDBRANCH   1   4
BRANCH   1  17
ATOM     17  C   UNL     1       2.898   7.071  18.857  0.00  0.00    +0.000 A 
ATOM     18  C   UNL     1       2.798   8.075  17.885  0.00  0.00    +0.000 A 
ATOM     19  C   UNL     1       1.983   9.183  18.122  0.00  0.00    +0.000 A 
ATOM     20  C   UNL     1       1.258   9.263  19.315  0.00  0.00    +0.000 A 
ATOM     21  C   UNL     1       1.399   8.279  20.297  0.00  0.00    +0.000 A 
ATOM     22  C   UNL     1       2.195   7.163  20.055  0.00  0.00    +0.000 A 
BRANCH  20  23
ATOM     23  O   UNL     1       0.427  10.342  19.506  0.00  0.00    +0.000 OA
BRANCH  23  24
ATOM     24  C   UNL     1      -0.730  10.422  18.755  0.00  0.00    +0.000 A 
ATOM     25  C   UNL     1      -1.678  11.363  19.214  0.00  0.00    +0.000 A 
ATOM     26  C   UNL     1      -2.845  11.624  18.486  0.00  0.00    +0.000 A 
ATOM     27  C   UNL     1      -3.009  10.955  17.295  0.00  0.00    +0.000 A 
ATOM     28  C   UNL     1      -2.102  10.012  16.861  0.00  0.00    +0.000 A 
ATOM     29  C   UNL     1      -0.960   9.715  17.568  0.00  0.00    +0.000 A 
ATOM     30  O   UNL     1      -2.425   9.515  15.635  0.00  0.00    +0.000 OA
ATOM     31  C   UNL     1      -3.391  10.506  15.237  0.00  0.00    +0.000 C 
ATOM     32  O   UNL     1      -3.984  11.178  16.369  0.00  0.00    +0.000 OA
ENDBRANCH  23  24
ENDBRANCH  20  23
ENDBRANCH   1  17
TORSDOF 6
ENDMDL
MODEL 5
REMARK VINA RESULT:      -9.1      1.990      3.280
REMARK  Name = 
REMARK  6 active torsions:
REMARK  status: ('A' for Active; 'I' for Inactive)
REMARK    1  A    between atoms: C_2  and  C_5
REMARK    2  A    between atoms: N_3  and  O_4
REMARK    3  A    between atoms: C_5  and  S_6
REMARK    4  A    between atoms: S_6  and  C_9
REMARK    5  A    between atoms: C_12  and  O_13
REMARK    6  A    between atoms: O_13  and  C_14
REMARK                            x       y       z     vdW  Elec       q    Type
REMARK                         _______ _______ _______ _____ _____    ______ ____
ROOT
ATOM      1  S   UNL     1       2.497   4.676  18.746  0.00  0.00    +0.000 S 
ATOM      2  O   UNL     1       1.782   4.354  17.529  0.00  0.00    +0.000 OA
ATOM      3  O   UNL     1       2.162   3.974  19.981  0.00  0.00    +0.000 OA
ENDROOT
BRANCH   1   4
ATOM      4  C   UNL     1       4.260   4.426  18.460  0.00  0.00    +0.000 C 
ATOM      5  C   UNL     1       4.574   4.610  16.960  0.00  0.00    +0.000 C 
ATOM      6  C   UNL     1       6.066   4.614  16.652  0.00  0.00    +0.000 C 
ATOM      7  N   UNL     1       6.786   5.560  17.500  0.00  0.00    +0.000 NA
ATOM      8  C   UNL     1       6.604   5.259  18.914  0.00  0.00    +0.000 C 
ATOM      9  C   UNL     1       5.131   5.380  19.303  0.00  0.00    +0.000 C 
ATOM     10  H   UNL     1       6.494   6.517  17.297  0.00  0.00    +0.000 HD
BRANCH   4  12
ATOM     11  O   UNL     1       5.076   2.705  19.988  0.00  0.00    +0.000 OA
ATOM     12  C   UNL     1       4.508   2.982  18.932  0.00  0.00    +0.000 C 
ATOM     13  N   UNL     1       3.981   1.993  18.128  0.00  0.00    +0.000 N 
ATOM     14  H   UNL     1       3.871   2.114  17.119  0.00  0.00    +0.000 HD
BRANCH  13  15
ATOM     15  O   UNL     1       4.249   0.668  18.542  0.00  0.00    +0.000 OA
ATOM     16  H   UNL     1       3.848   0.631  19.439  0.00  0.00    +0.000 HD
ENDBRANCH  13  15
ENDBRANCH   4  12
ENDBRANCH   1   4
BRANCH   1  17
ATOM     17  C   UNL     1       2.236   6.408  19.051  0.00  0.00    +0.000 A 
ATOM     18  C   UNL     1       2.367   7.321  17.996  0.00  0.00    +0.000 A 
ATOM     19  C   UNL     1       2.029   8.660  18.199  0.00  0.00    +0.000 A 
ATOM     20  C   UNL     1       1.539   9.067  19.445  0.00  0.00    +0.000 A 
ATOM     21  C   UNL     1       1.454   8.158  20.503  0.00  0.00    +0.000 A 
ATOM     22  C   UNL     1       1.771   6.818  20.297  0.00  0.00    +0.000 A 
BRANCH  20  23
ATOM     23  O   UNL     1       1.170  10.381  19.607  0.00  0.00    +0.000 OA
BRANCH  23  24
ATOM     24  C   UNL     1      -0.083  10.770  19.173  0.00  0.00    +0.000 A 
ATOM     25  C   UNL     1      -0.578  10.059  18.057  0.00  0.00    +0.000 A 
ATOM     26  C   UNL     1      -1.877  10.276  17.583  0.00  0.00    +0.000 A 
ATOM     27  C   UNL     1      -2.657  11.179  18.268  0.00  0.00    +0.000 A 
ATOM     28  C   UNL     1      -2.166  11.897  19.336  0.00  0.00    +0.000 A 
ATOM     29  C   UNL     1      -0.886  11.726  19.808  0.00  0.00    +0.000 A 
ATOM     30  O   UNL     1      -3.118  12.689  19.903  0.00  0.00    +0.000 OA
ATOM     31  C   UNL     1      -4.288  12.100  19.304  0.00  0.00    +0.000 C 
ATOM     32  O   UNL     1      -3.984  11.416  18.070  0.00  0.00    +0.000 OA
ENDBRANCH  23  24
ENDBRANCH  20  23
ENDBRANCH   1  17
TORSDOF 6
ENDMDL
MODEL 6
REMARK VINA RESULT:      -9.0      2.191      3.004
REMARK  Name = 
REMARK  6 active torsions:
REMARK  status: ('A' for Active; 'I' for Inactive)
REMARK    1  A    between atoms: C_2  and  C_5
REMARK    2  A    between atoms: N_3  and  O_4
REMARK    3  A    between atoms: C_5  and  S_6
REMARK    4  A    between atoms: S_6  and  C_9
REMARK    5  A    between atoms: C_12  and  O_13
REMARK    6  A    between atoms: O_13  and  C_14
REMARK                            x       y       z     vdW  Elec       q    Type
REMARK                         _______ _______ _______ _____ _____    ______ ____
ROOT
ATOM      1  S   UNL     1       4.193   4.915  18.809  0.00  0.00    +0.000 S 
ATOM      2  O   UNL     1       5.210   5.038  19.834  0.00  0.00    +0.000 OA
ATOM      3  O   UNL     1       4.592   4.620  17.437  0.00  0.00    +0.000 OA
ENDROOT
BRANCH   1   4
ATOM      4  C   UNL     1       3.027   3.632  19.307  0.00  0.00    +0.000 C 
ATOM      5  C   UNL     1       2.563   3.887  20.757  0.00  0.00    +0.000 C 
ATOM      6  C   UNL     1       1.428   2.970  21.197  0.00  0.00    +0.000 C 
ATOM      7  N   UNL     1       0.325   2.985  20.240  0.00  0.00    +0.000 NA
ATOM      8  C   UNL     1       0.763   2.577  18.911  0.00  0.00    +0.000 C 
ATOM      9  C   UNL     1       1.807   3.553  18.368  0.00  0.00    +0.000 C 
ATOM     10  H   UNL     1      -0.108   3.909  20.207  0.00  0.00    +0.000 HD
BRANCH   4  12
ATOM     11  O   UNL     1       3.721   1.554  18.229  0.00  0.00    +0.000 OA
ATOM     12  C   UNL     1       3.837   2.330  19.178  0.00  0.00    +0.000 C 
ATOM     13  N   UNL     1       4.776   2.110  20.165  0.00  0.00    +0.000 N 
ATOM     14  H   UNL     1       4.655   2.461  21.117  0.00  0.00    +0.000 HD
BRANCH  13  15
ATOM     15  O   UNL     1       5.485   0.891  20.066  0.00  0.00    +0.000 OA
ATOM     16  H   UNL     1       6.028   0.884  20.886  0.00  0.00    +0.000 HD
ENDBRANCH  13  15
ENDBRANCH   4  12
ENDBRANCH   1   4
BRANCH   1  17
ATOM     17  C   UNL     1       3.316   6.461  18.770  0.00  0.00    +0.000 A 
ATOM     18  C   UNL     1       3.360   7.249  17.612  0.00  0.00    +0.000 A 
ATOM     19  C   UNL     1       2.565   8.393  17.528  0.00  0.00    +0.000 A 
ATOM     20  C   UNL     1       1.716   8.723  18.590  0.00  0.00    +0.000 A 
ATOM     21  C   UNL     1       1.712   7.955  19.758  0.00  0.00    +0.000 A 
ATOM     22  C   UNL     1       2.489   6.803  19.836  0.00  0.00    +0.000 A 
BRANCH  20  23
ATOM     23  O   UNL     1       0.909   9.828  18.465  0.00  0.00    +0.000 OA
BRANCH  23  24
ATOM     24  C   UNL     1       0.704  10.622  19.578  0.00  0.00    +0.000 A 
ATOM     25  C   UNL     1       1.355  11.875  19.548  0.00  0.00    +0.000 A 
ATOM     26  C   UNL     1       1.147  12.820  20.559  0.00  0.00    +0.000 A 
ATOM     27  C   UNL     1       0.257  12.492  21.557  0.00  0.00    +0.000 A 
ATOM     28  C   UNL     1      -0.354  11.258  21.606  0.00  0.00    +0.000 A 
ATOM     29  C   UNL     1      -0.148  10.299  20.642  0.00  0.00    +0.000 A 
ATOM     30  O   UNL     1      -1.236  11.163  22.639  0.00  0.00    +0.000 OA
ATOM     31  C   UNL     1      -1.353  12.561  22.966  0.00  0.00    +0.000 C 
ATOM     32  O   UNL     1      -0.202  13.320  22.536  0.00  0.00    +0.000 OA
ENDBRANCH  23  24
ENDBRANCH  20  23
ENDBRANCH   1  17
TORSDOF 6
ENDMDL
MODEL 7
REMARK VINA RESULT:      -8.9      2.215      3.499
REMARK  Name = 
REMARK  6 active torsions:
REMARK  status: ('A' for Active; 'I' for Inactive)
REMARK    1  A    between atoms: C_2  and  C_5
REMARK    2  A    between atoms: N_3  and  O_4
REMARK    3  A    between atoms: C_5  and  S_6
REMARK    4  A    between atoms: S_6  and  C_9
REMARK    5  A    between atoms: C_12  and  O_13
REMARK    6  A    between atoms: O_13  and  C_14
REMARK                            x       y       z     vdW  Elec       q    Type
REMARK                         _______ _______ _______ _____ _____    ______ ____
ROOT
ATOM      1  S   UNL     1       4.056   5.198  18.738  0.00  0.00    +0.000 S 
ATOM      2  O   UNL     1       5.112   5.297  19.726  0.00  0.00    +0.000 OA
ATOM      3  O   UNL     1       4.405   4.980  17.338  0.00  0.00    +0.000 OA
ENDROOT
BRANCH   1   4
ATOM      4  C   UNL     1       2.943   3.865  19.219  0.00  0.00    +0.000 C 
ATOM      5  C   UNL     1       2.472   4.080  20.673  0.00  0.00    +0.000 C 
ATOM      6  C   UNL     1       1.375   3.113  21.101  0.00  0.00    +0.000 C 
ATOM      7  N   UNL     1       0.270   3.099  20.147  0.00  0.00    +0.000 NA
ATOM      8  C   UNL     1       0.720   2.729  18.811  0.00  0.00    +0.000 C 
ATOM      9  C   UNL     1       1.723   3.753  18.281  0.00  0.00    +0.000 C 
ATOM     10  H   UNL     1      -0.199   4.006  20.129  0.00  0.00    +0.000 HD
BRANCH   4  12
ATOM     11  O   UNL     1       3.811   1.904  18.050  0.00  0.00    +0.000 OA
ATOM     12  C   UNL     1       3.802   2.596  19.068  0.00  0.00    +0.000 C 
ATOM     13  N   UNL     1       4.636   2.311  20.129  0.00  0.00    +0.000 N 
ATOM     14  H   UNL     1       4.403   2.575  21.089  0.00  0.00    +0.000 HD
BRANCH  13  15
ATOM     15  O   UNL     1       5.390   1.122  20.005  0.00  0.00    +0.000 OA
ATOM     16  H   UNL     1       4.960   0.665  19.247  0.00  0.00    +0.000 HD
ENDBRANCH  13  15
ENDBRANCH   4  12
ENDBRANCH   1   4
BRANCH   1  17
ATOM     17  C   UNL     1       3.144   6.722  18.810  0.00  0.00    +0.000 A 
ATOM     18  C   UNL     1       3.063   7.533  17.670  0.00  0.00    +0.000 A 
ATOM     19  C   UNL     1       2.237   8.658  17.682  0.00  0.00    +0.000 A 
ATOM     20  C   UNL     1       1.481   8.946  18.823  0.00  0.00    +0.000 A 
ATOM     21  C   UNL     1       1.601   8.156  19.970  0.00  0.00    +0.000 A 
ATOM     22  C   UNL     1       2.409   7.023  19.954  0.00  0.00    +0.000 A 
BRANCH  20  23
ATOM     23  O   UNL     1       0.640  10.033  18.795  0.00  0.00    +0.000 OA
BRANCH  23  24
ATOM     24  C   UNL     1       1.161  11.276  19.099  0.00  0.00    +0.000 A 
ATOM     25  C   UNL     1       0.783  11.791  20.358  0.00  0.00    +0.000 A 
ATOM     26  C   UNL     1       1.325  12.989  20.839  0.00  0.00    +0.000 A 
ATOM     27  C   UNL     1       2.263  13.618  20.053  0.00  0.00    +0.000 A 
ATOM     28  C   UNL     1       2.609  13.135  18.810  0.00  0.00    +0.000 A 
ATOM     29  C   UNL     1       2.074  11.976  18.299  0.00  0.00    +0.000 A 
ATOM     30  O   UNL     1       3.593  13.875  18.227  0.00  0.00    +0.000 OA
ATOM     31  C   UNL     1       4.039  14.608  19.383  0.00  0.00    +0.000 C 
ATOM     32  O   UNL     1       3.019  14.697  20.401  0.00  0.00    +0.000 OA
ENDBRANCH  23  24
ENDBRANCH  20  23
ENDBRANCH   1  17
TORSDOF 6
ENDMDL
MODEL 8
REMARK VINA RESULT:      -8.9      2.327      3.638
REMARK  Name = 
REMARK  6 active torsions:
REMARK  status: ('A' for Active; 'I' for Inactive)
REMARK    1  A    between atoms: C_2  and  C_5
REMARK    2  A    between atoms: N_3  and  O_4
REMARK    3  A    between atoms: C_5  and  S_6
REMARK    4  A    between atoms: S_6  and  C_9
REMARK    5  A    between atoms: C_12  and  O_13
REMARK    6  A    between atoms: O_13  and  C_14
REMARK                            x       y       z     vdW  Elec       q    Type
REMARK                         _______ _______ _______ _____ _____    ______ ____
ROOT
ATOM      1  S   UNL     1       3.755   5.501  18.661  0.00  0.00    +0.000 S 
ATOM      2  O   UNL     1       4.804   5.709  19.639  0.00  0.00    +0.000 OA
ATOM      3  O   UNL     1       4.112   5.322  17.257  0.00  0.00    +0.000 OA
ENDROOT
BRANCH   1   4
ATOM      4  C   UNL     1       2.792   4.057  19.148  0.00  0.00    +0.000 C 
ATOM      5  C   UNL     1       2.305   4.225  20.603  0.00  0.00    +0.000 C 
ATOM      6  C   UNL     1       1.319   3.148  21.037  0.00  0.00    +0.000 C 
ATOM      7  N   UNL     1       0.219   3.013  20.086  0.00  0.00    +0.000 NA
ATOM      8  C   UNL     1       0.703   2.689  18.750  0.00  0.00    +0.000 C 
ATOM      9  C   UNL     1       1.589   3.812  18.215  0.00  0.00    +0.000 C 
ATOM     10  H   UNL     1      -0.344   3.864  20.067  0.00  0.00    +0.000 HD
BRANCH   4  12
ATOM     11  O   UNL     1       3.963   2.288  17.939  0.00  0.00    +0.000 OA
ATOM     12  C   UNL     1       3.782   2.888  18.999  0.00  0.00    +0.000 C 
ATOM     13  N   UNL     1       4.527   2.589  20.120  0.00  0.00    +0.000 N 
ATOM     14  H   UNL     1       4.173   2.749  21.066  0.00  0.00    +0.000 HD
BRANCH  13  15
ATOM     15  O   UNL     1       5.402   1.487  19.991  0.00  0.00    +0.000 OA
ATOM     16  H   UNL     1       5.759   1.379  20.901  0.00  0.00    +0.000 HD
ENDBRANCH  13  15
ENDBRANCH   4  12
ENDBRANCH   1   4
BRANCH   1  17
ATOM     17  C   UNL     1       2.689   6.921  18.745  0.00  0.00    +0.000 A 
ATOM     18  C   UNL     1       2.187   7.334  19.987  0.00  0.00    +0.000 A 
ATOM     19  C   UNL     1       1.463   8.524  20.075  0.00  0.00    +0.000 A 
ATOM     20  C   UNL     1       1.271   9.301  18.928  0.00  0.00    +0.000 A 
ATOM     21  C   UNL     1       1.737   8.859  17.687  0.00  0.00    +0.000 A 
ATOM     22  C   UNL     1       2.476   7.683  17.599  0.00  0.00    +0.000 A 
BRANCH  20  23
ATOM     23  O   UNL     1       0.595  10.492  19.049  0.00  0.00    +0.000 OA
BRANCH  23  24
ATOM     24  C   UNL     1       1.302  11.614  19.438  0.00  0.00    +0.000 A 
ATOM     25  C   UNL     1       2.104  12.195  18.431  0.00  0.00    +0.000 A 
ATOM     26  C   UNL     1       2.787  13.396  18.657  0.00  0.00    +0.000 A 
ATOM     27  C   UNL     1       2.615  13.999  19.882  0.00  0.00    +0.000 A 
ATOM     28  C   UNL     1       1.861  13.417  20.877  0.00  0.00    +0.000 A 
ATOM     29  C   UNL     1       1.200  12.225  20.694  0.00  0.00    +0.000 A 
ATOM     30  O   UNL     1       1.775  14.206  21.984  0.00  0.00    +0.000 OA
ATOM     31  C   UNL     1       2.240  15.445  21.415  0.00  0.00    +0.000 C 
ATOM     32  O   UNL     1       3.058  15.235  20.245  0.00  0.00    +0.000 OA
ENDBRANCH  23  24
ENDBRANCH  20  23
ENDBRANCH   1  17
TORSDOF 6
ENDMDL
MODEL 9
REMARK VINA RESULT:      -8.9      1.823      2.587
REMARK  Name = 
REMARK  6 active torsions:
REMARK  status: ('A' for Active; 'I' for Inactive)
REMARK    1  A    between atoms: C_2  and  C_5
REMARK    2  A    between atoms: N_3  and  O_4
REMARK    3  A    between atoms: C_5  and  S_6
REMARK    4  A    between atoms: S_6  and  C_9
REMARK    5  A    between atoms: C_12  and  O_13
REMARK    6  A    between atoms: O_13  and  C_14
REMARK                            x       y       z     vdW  Elec       q    Type
REMARK                         _______ _______ _______ _____ _____    ______ ____
ROOT
ATOM      1  S   UNL     1       4.413   4.633  18.881  0.00  0.00    +0.000 S 
ATOM      2  O   UNL     1       5.226   4.947  20.039  0.00  0.00    +0.000 OA
ATOM      3  O   UNL     1       5.053   4.103  17.681  0.00  0.00    +0.000 OA
ENDROOT
BRANCH   1   4
ATOM      4  C   UNL     1       3.148   3.446  19.372  0.00  0.00    +0.000 C 
ATOM      5  C   UNL     1       2.638   3.787  20.789  0.00  0.00    +0.000 C 
ATOM      6  C   UNL     1       1.429   2.960  21.210  0.00  0.00    +0.000 C 
ATOM      7  N   UNL     1       0.372   3.005  20.203  0.00  0.00    +0.000 NA
ATOM      8  C   UNL     1       0.841   2.518  18.912  0.00  0.00    +0.000 C 
ATOM      9  C   UNL     1       1.967   3.405  18.382  0.00  0.00    +0.000 C 
ATOM     10  H   UNL     1       0.001   3.952  20.117  0.00  0.00    +0.000 HD
BRANCH   4  12
ATOM     11  O   UNL     1       3.616   1.209  18.512  0.00  0.00    +0.000 OA
ATOM     12  C   UNL     1       3.878   2.092  19.329  0.00  0.00    +0.000 C 
ATOM     13  N   UNL     1       4.916   1.944  20.225  0.00  0.00    +0.000 N 
ATOM     14  H   UNL     1       4.925   2.421  21.129  0.00  0.00    +0.000 HD
BRANCH  13  15
ATOM     15  O   UNL     1       5.554   0.683  20.211  0.00  0.00    +0.000 OA
ATOM     16  H   UNL     1       5.022   0.172  19.561  0.00  0.00    +0.000 HD
ENDBRANCH  13  15
ENDBRANCH   4  12
ENDBRANCH   1   4
BRANCH   1  17
ATOM     17  C   UNL     1       3.594   6.138  18.408  0.00  0.00    +0.000 A 
ATOM     18  C   UNL     1       2.638   6.702  19.265  0.00  0.00    +0.000 A 
ATOM     19  C   UNL     1       2.095   7.951  18.961  0.00  0.00    +0.000 A 
ATOM     20  C   UNL     1       2.529   8.634  17.821  0.00  0.00    +0.000 A 
ATOM     21  C   UNL     1       3.450   8.044  16.949  0.00  0.00    +0.000 A 
ATOM     22  C   UNL     1       4.008   6.807  17.260  0.00  0.00    +0.000 A 
BRANCH  20  23
ATOM     23  O   UNL     1       2.013   9.882  17.568  0.00  0.00    +0.000 OA
BRANCH  23  24
ATOM     24  C   UNL     1       1.115  10.418  18.472  0.00  0.00    +0.000 A 
ATOM     25  C   UNL     1      -0.236  10.072  18.250  0.00  0.00    +0.000 A 
ATOM     26  C   UNL     1      -1.236  10.456  19.152  0.00  0.00    +0.000 A 
ATOM     27  C   UNL     1      -0.842  11.149  20.273  0.00  0.00    +0.000 A 
ATOM     28  C   UNL     1       0.470  11.516  20.475  0.00  0.00    +0.000 A 
ATOM     29  C   UNL     1       1.470  11.177  19.594  0.00  0.00    +0.000 A 
ATOM     30  O   UNL     1       0.650  12.142  21.671  0.00  0.00    +0.000 OA
ATOM     31  C   UNL     1      -0.595  11.786  22.302  0.00  0.00    +0.000 C 
ATOM     32  O   UNL     1      -1.625  11.474  21.340  0.00  0.00    +0.000 OA
ENDBRANCH  23  24
ENDBRANCH  20  23
ENDBRANCH   1  17
TORSDOF 6
ENDMDL
