MODEL 1
REMARK VINA RESULT:      -6.0      0.000      0.000
REMARK  Name = 
REMARK  8 active torsions:
REMARK  status: ('A' for Active; 'I' for Inactive)
REMARK    1  A    between atoms: C_1  and  C_2
REMARK    2  A    between atoms: C_2  and  O_3
REMARK    3  A    between atoms: O_3  and  C_4
REMARK    4  A    between atoms: C_4  and  C_6
REMARK    5  A    between atoms: C_7  and  C_8
REMARK    6  A    between atoms: C_10  and  O_11
REMARK    7  A    between atoms: O_11  and  C_12
REMARK    8  A    between atoms: C_14  and  O_15
REMARK                            x       y       z     vdW  Elec       q    Type
REMARK                         _______ _______ _______ _____ _____    ______ ____
ROOT
ATOM      1  C   UNL     1       4.365   5.423  17.155  0.00  0.00    +0.000 A 
ATOM      2  C   UNL     1       3.182   5.783  17.834  0.00  0.00    +0.000 A 
ATOM      3  C   UNL     1       2.721   7.195  18.068  0.00  0.00    +0.000 C 
ATOM      4  C   UNL     1       2.351   4.757  18.331  0.00  0.00    +0.000 A 
ATOM      5  C   UNL     1       2.669   3.406  18.171  0.00  0.00    +0.000 A 
ATOM      6  C   UNL     1       3.847   3.057  17.516  0.00  0.00    +0.000 A 
ATOM      7  C   UNL     1       4.678   4.058  17.001  0.00  0.00    +0.000 A 
ENDROOT
BRANCH   1   8
ATOM      8  C   UNL     1       5.208   6.445  16.480  0.00  0.00    +0.000 C 
ATOM      9  O   UNL     1       5.236   6.599  15.269  0.00  0.00    +0.000 OA
BRANCH   8  10
ATOM     10  O   UNL     1       5.982   7.104  17.382  0.00  0.00    +0.000 OA
BRANCH  10  12
ATOM     11  C   UNL     1       7.693   6.050  18.724  0.00  0.00    +0.000 C 
ATOM     12  C   UNL     1       7.359   6.705  17.392  0.00  0.00    +0.000 C 
ENDBRANCH  10  12
ENDBRANCH   8  10
ENDBRANCH   1   8
BRANCH   5  13
ATOM     13  O   UNL     1       1.750   2.532  18.680  0.00  0.00    +0.000 OA
ATOM     14  C   UNL     1       0.882   3.026  19.692  0.00  0.00    +0.000 C 
ENDBRANCH   5  13
BRANCH   7  15
ATOM     15  O   UNL     1       5.782   3.667  16.290  0.00  0.00    +0.000 OA
ATOM     16  H   UNL     1       6.590   3.988  16.722  0.00  0.00    +0.000 HD
ENDBRANCH   7  15
TORSDOF 5
ENDMDL
MODEL 2
REMARK VINA RESULT:      -6.0      1.832      2.593
REMARK  Name = 
REMARK  8 active torsions:
REMARK  status: ('A' for Active; 'I' for Inactive)
REMARK    1  A    between atoms: C_1  and  C_2
REMARK    2  A    between atoms: C_2  and  O_3
REMARK    3  A    between atoms: O_3  and  C_4
REMARK    4  A    between atoms: C_4  and  C_6
REMARK    5  A    between atoms: C_7  and  C_8
REMARK    6  A    between atoms: C_10  and  O_11
REMARK    7  A    between atoms: O_11  and  C_12
REMARK    8  A    between atoms: C_14  and  O_15
REMARK                            x       y       z     vdW  Elec       q    Type
REMARK                         _______ _______ _______ _____ _____    ______ ____
ROOT
ATOM      1  C   UNL     1       5.950   4.631  17.490  0.00  0.00    +0.000 A 
ATOM      2  C   UNL     1       5.017   4.232  16.511  0.00  0.00    +0.000 A 
ATOM      3  C   UNL     1       5.288   4.193  15.032  0.00  0.00    +0.000 C 
ATOM      4  C   UNL     1       3.731   3.828  16.928  0.00  0.00    +0.000 A 
ATOM      5  C   UNL     1       3.362   3.817  18.275  0.00  0.00    +0.000 A 
ATOM      6  C   UNL     1       4.281   4.228  19.236  0.00  0.00    +0.000 A 
ATOM      7  C   UNL     1       5.567   4.617  18.847  0.00  0.00    +0.000 A 
ENDROOT
BRANCH   1   8
ATOM      8  C   UNL     1       7.363   4.926  17.135  0.00  0.00    +0.000 C 
ATOM      9  O   UNL     1       8.300   4.213  17.459  0.00  0.00    +0.000 OA
BRANCH   8  10
ATOM     10  O   UNL     1       7.460   6.117  16.488  0.00  0.00    +0.000 OA
BRANCH  10  12
ATOM     11  C   UNL     1       8.137   7.617  18.257  0.00  0.00    +0.000 C 
ATOM     12  C   UNL     1       7.047   7.252  17.260  0.00  0.00    +0.000 C 
ENDBRANCH  10  12
ENDBRANCH   8  10
ENDBRANCH   1   8
BRANCH   5  13
ATOM     13  O   UNL     1       2.094   3.371  18.522  0.00  0.00    +0.000 OA
ATOM     14  C   UNL     1       1.780   3.036  19.868  0.00  0.00    +0.000 C 
ENDBRANCH   5  13
BRANCH   7  15
ATOM     15  O   UNL     1       6.465   4.932  19.832  0.00  0.00    +0.000 OA
ATOM     16  H   UNL     1       6.073   5.568  20.452  0.00  0.00    +0.000 HD
ENDBRANCH   7  15
TORSDOF 5
ENDMDL
MODEL 3
REMARK VINA RESULT:      -5.9      1.382      4.791
REMARK  Name = 
REMARK  8 active torsions:
REMARK  status: ('A' for Active; 'I' for Inactive)
REMARK    1  A    between atoms: C_1  and  C_2
REMARK    2  A    between atoms: C_2  and  O_3
REMARK    3  A    between atoms: O_3  and  C_4
REMARK    4  A    between atoms: C_4  and  C_6
REMARK    5  A    between atoms: C_7  and  C_8
REMARK    6  A    between atoms: C_10  and  O_11
REMARK    7  A    between atoms: O_11  and  C_12
REMARK    8  A    between atoms: C_14  and  O_15
REMARK                            x       y       z     vdW  Elec       q    Type
REMARK                         _______ _______ _______ _____ _____    ______ ____
ROOT
ATOM      1  C   UNL     1       3.416   5.066  17.700  0.00  0.00    +0.000 A 
ATOM      2  C   UNL     1       3.661   6.455  17.664  0.00  0.00    +0.000 A 
ATOM      3  C   UNL     1       2.647   7.516  17.994  0.00  0.00    +0.000 C 
ATOM      4  C   UNL     1       4.948   6.903  17.300  0.00  0.00    +0.000 A 
ATOM      5  C   UNL     1       5.976   6.014  16.976  0.00  0.00    +0.000 A 
ATOM      6  C   UNL     1       5.723   4.645  16.997  0.00  0.00    +0.000 A 
ATOM      7  C   UNL     1       4.458   4.178  17.370  0.00  0.00    +0.000 A 
ENDROOT
BRANCH   1   8
ATOM      8  C   UNL     1       2.131   4.524  18.215  0.00  0.00    +0.000 C 
ATOM      9  O   UNL     1       1.271   4.039  17.498  0.00  0.00    +0.000 OA
BRANCH   8  10
ATOM     10  O   UNL     1       2.026   4.721  19.556  0.00  0.00    +0.000 OA
BRANCH  10  12
ATOM     11  C   UNL     1       1.551   3.047  21.232  0.00  0.00    +0.000 C 
ATOM     12  C   UNL     1       0.969   3.987  20.188  0.00  0.00    +0.000 C 
ENDBRANCH  10  12
ENDBRANCH   8  10
ENDBRANCH   1   8
BRANCH   5  13
ATOM     13  O   UNL     1       7.173   6.600  16.675  0.00  0.00    +0.000 OA
ATOM     14  C   UNL     1       7.621   7.634  17.542  0.00  0.00    +0.000 C 
ENDBRANCH   5  13
BRANCH   7  15
ATOM     15  O   UNL     1       4.279   2.823  17.460  0.00  0.00    +0.000 OA
ATOM     16  H   UNL     1       3.564   2.619  18.083  0.00  0.00    +0.000 HD
ENDBRANCH   7  15
TORSDOF 5
ENDMDL
MODEL 4
REMARK VINA RESULT:      -5.8      1.041      2.235
REMARK  Name = 
REMARK  8 active torsions:
REMARK  status: ('A' for Active; 'I' for Inactive)
REMARK    1  A    between atoms: C_1  and  C_2
REMARK    2  A    between atoms: C_2  and  O_3
REMARK    3  A    between atoms: O_3  and  C_4
REMARK    4  A    between atoms: C_4  and  C_6
REMARK    5  A    between atoms: C_7  and  C_8
REMARK    6  A    between atoms: C_10  and  O_11
REMARK    7  A    between atoms: O_11  and  C_12
REMARK    8  A    between atoms: C_14  and  O_15
REMARK                            x       y       z     vdW  Elec       q    Type
REMARK                         _______ _______ _______ _____ _____    ______ ____
ROOT
ATOM      1  C   UNL     1       4.407   5.526  16.926  0.00  0.00    +0.000 A 
ATOM      2  C   UNL     1       4.739   4.178  16.680  0.00  0.00    +0.000 A 
ATOM      3  C   UNL     1       5.850   3.717  15.777  0.00  0.00    +0.000 C 
ATOM      4  C   UNL     1       3.990   3.170  17.324  0.00  0.00    +0.000 A 
ATOM      5  C   UNL     1       2.937   3.473  18.190  0.00  0.00    +0.000 A 
ATOM      6  C   UNL     1       2.602   4.806  18.416  0.00  0.00    +0.000 A 
ATOM      7  C   UNL     1       3.342   5.821  17.800  0.00  0.00    +0.000 A 
ENDROOT
BRANCH   1   8
ATOM      8  C   UNL     1       5.245   6.635  16.398  0.00  0.00    +0.000 C 
ATOM      9  O   UNL     1       5.290   6.939  15.216  0.00  0.00    +0.000 OA
BRANCH   8  10
ATOM     10  O   UNL     1       5.995   7.187  17.387  0.00  0.00    +0.000 OA
BRANCH  10  12
ATOM     11  C   UNL     1       7.674   6.022  18.677  0.00  0.00    +0.000 C 
ATOM     12  C   UNL     1       7.370   6.779  17.393  0.00  0.00    +0.000 C 
ENDBRANCH  10  12
ENDBRANCH   8  10
ENDBRANCH   1   8
BRANCH   5  13
ATOM     13  O   UNL     1       2.329   2.391  18.761  0.00  0.00    +0.000 OA
ATOM     14  C   UNL     1       0.923   2.472  18.961  0.00  0.00    +0.000 C 
ENDBRANCH   5  13
BRANCH   7  15
ATOM     15  O   UNL     1       3.033   7.118  18.117  0.00  0.00    +0.000 OA
ATOM     16  H   UNL     1       2.272   7.418  17.595  0.00  0.00    +0.000 HD
ENDBRANCH   7  15
TORSDOF 5
ENDMDL
MODEL 5
REMARK VINA RESULT:      -5.8      2.266      5.074
REMARK  Name = 
REMARK  8 active torsions:
REMARK  status: ('A' for Active; 'I' for Inactive)
REMARK    1  A    between atoms: C_1  and  C_2
REMARK    2  A    between atoms: C_2  and  O_3
REMARK    3  A    between atoms: O_3  and  C_4
REMARK    4  A    between atoms: C_4  and  C_6
REMARK    5  A    between atoms: C_7  and  C_8
REMARK    6  A    between atoms: C_10  and  O_11
REMARK    7  A    between atoms: O_11  and  C_12
REMARK    8  A    between atoms: C_14  and  O_15
REMARK                            x       y       z     vdW  Elec       q    Type
REMARK                         _______ _______ _______ _____ _____    ______ ____
ROOT
ATOM      1  C   UNL     1       4.919   4.388  18.444  0.00  0.00    +0.000 A 
ATOM      2  C   UNL     1       4.496   4.046  17.143  0.00  0.00    +0.000 A 
ATOM      3  C   UNL     1       3.117   3.561  16.788  0.00  0.00    +0.000 C 
ATOM      4  C   UNL     1       5.415   4.170  16.080  0.00  0.00    +0.000 A 
ATOM      5  C   UNL     1       6.723   4.615  16.283  0.00  0.00    +0.000 A 
ATOM      6  C   UNL     1       7.142   4.934  17.572  0.00  0.00    +0.000 A 
ATOM      7  C   UNL     1       6.242   4.835  18.639  0.00  0.00    +0.000 A 
ENDROOT
BRANCH   1   8
ATOM      8  C   UNL     1       3.963   4.422  19.582  0.00  0.00    +0.000 C 
ATOM      9  O   UNL     1       3.452   5.449  20.000  0.00  0.00    +0.000 OA
BRANCH   8  10
ATOM     10  O   UNL     1       3.815   3.185  20.125  0.00  0.00    +0.000 OA
BRANCH  10  12
ATOM     11  C   UNL     1       1.998   2.728  21.651  0.00  0.00    +0.000 C 
ATOM     12  C   UNL     1       2.459   2.724  20.201  0.00  0.00    +0.000 C 
ENDBRANCH  10  12
ENDBRANCH   8  10
ENDBRANCH   1   8
BRANCH   5  13
ATOM     13  O   UNL     1       7.483   4.710  15.152  0.00  0.00    +0.000 OA
ATOM     14  C   UNL     1       6.814   4.536  13.909  0.00  0.00    +0.000 C 
ENDBRANCH   5  13
BRANCH   7  15
ATOM     15  O   UNL     1       6.670   5.239  19.875  0.00  0.00    +0.000 OA
ATOM     16  H   UNL     1       5.911   5.457  20.439  0.00  0.00    +0.000 HD
ENDBRANCH   7  15
TORSDOF 5
ENDMDL
MODEL 6
REMARK VINA RESULT:      -5.7      1.400      4.780
REMARK  Name = 
REMARK  8 active torsions:
REMARK  status: ('A' for Active; 'I' for Inactive)
REMARK    1  A    between atoms: C_1  and  C_2
REMARK    2  A    between atoms: C_2  and  O_3
REMARK    3  A    between atoms: O_3  and  C_4
REMARK    4  A    between atoms: C_4  and  C_6
REMARK    5  A    between atoms: C_7  and  C_8
REMARK    6  A    between atoms: C_10  and  O_11
REMARK    7  A    between atoms: O_11  and  C_12
REMARK    8  A    between atoms: C_14  and  O_15
REMARK                            x       y       z     vdW  Elec       q    Type
REMARK                         _______ _______ _______ _____ _____    ______ ____
ROOT
ATOM      1  C   UNL     1       4.157   4.767  17.206  0.00  0.00    +0.000 A 
ATOM      2  C   UNL     1       4.205   6.138  17.535  0.00  0.00    +0.000 A 
ATOM      3  C   UNL     1       3.060   6.924  18.111  0.00  0.00    +0.000 C 
ATOM      4  C   UNL     1       5.410   6.840  17.323  0.00  0.00    +0.000 A 
ATOM      5  C   UNL     1       6.545   6.218  16.798  0.00  0.00    +0.000 A 
ATOM      6  C   UNL     1       6.486   4.869  16.458  0.00  0.00    +0.000 A 
ATOM      7  C   UNL     1       5.307   4.149  16.676  0.00  0.00    +0.000 A 
ENDROOT
BRANCH   1   8
ATOM      8  C   UNL     1       2.971   3.935  17.540  0.00  0.00    +0.000 C 
ATOM      9  O   UNL     1       2.176   3.532  16.705  0.00  0.00    +0.000 OA
BRANCH   8  10
ATOM     10  O   UNL     1       2.861   3.768  18.884  0.00  0.00    +0.000 OA
BRANCH  10  12
ATOM     11  C   UNL     1       1.261   4.340  20.602  0.00  0.00    +0.000 C 
ATOM     12  C   UNL     1       1.528   3.519  19.349  0.00  0.00    +0.000 C 
ENDBRANCH  10  12
ENDBRANCH   8  10
ENDBRANCH   1   8
BRANCH   5  13
ATOM     13  O   UNL     1       7.643   7.023  16.680  0.00  0.00    +0.000 OA
ATOM     14  C   UNL     1       7.754   8.100  17.602  0.00  0.00    +0.000 C 
ENDBRANCH   5  13
BRANCH   7  15
ATOM     15  O   UNL     1       5.320   2.806  16.407  0.00  0.00    +0.000 OA
ATOM     16  H   UNL     1       4.419   2.447  16.443  0.00  0.00    +0.000 HD
ENDBRANCH   7  15
TORSDOF 5
ENDMDL
MODEL 7
REMARK VINA RESULT:      -5.7      2.115      5.117
REMARK  Name = 
REMARK  8 active torsions:
REMARK  status: ('A' for Active; 'I' for Inactive)
REMARK    1  A    between atoms: C_1  and  C_2
REMARK    2  A    between atoms: C_2  and  O_3
REMARK    3  A    between atoms: O_3  and  C_4
REMARK    4  A    between atoms: C_4  and  C_6
REMARK    5  A    between atoms: C_7  and  C_8
REMARK    6  A    between atoms: C_10  and  O_11
REMARK    7  A    between atoms: O_11  and  C_12
REMARK    8  A    between atoms: C_14  and  O_15
REMARK                            x       y       z     vdW  Elec       q    Type
REMARK                         _______ _______ _______ _____ _____    ______ ____
ROOT
ATOM      1  C   UNL     1       4.904   4.009  18.506  0.00  0.00    +0.000 A 
ATOM      2  C   UNL     1       4.267   3.848  17.258  0.00  0.00    +0.000 A 
ATOM      3  C   UNL     1       2.984   3.094  17.039  0.00  0.00    +0.000 C 
ATOM      4  C   UNL     1       4.856   4.435  16.119  0.00  0.00    +0.000 A 
ATOM      5  C   UNL     1       6.046   5.164  16.195  0.00  0.00    +0.000 A 
ATOM      6  C   UNL     1       6.679   5.305  17.427  0.00  0.00    +0.000 A 
ATOM      7  C   UNL     1       6.104   4.745  18.573  0.00  0.00    +0.000 A 
ENDROOT
BRANCH   1   8
ATOM      8  C   UNL     1       4.264   3.544  19.764  0.00  0.00    +0.000 C 
ATOM      9  O   UNL     1       4.562   2.501  20.325  0.00  0.00    +0.000 OA
BRANCH   8  10
ATOM     10  O   UNL     1       3.267   4.388  20.139  0.00  0.00    +0.000 OA
BRANCH  10  12
ATOM     11  C   UNL     1       1.051   3.431  20.265  0.00  0.00    +0.000 C 
ATOM     12  C   UNL     1       2.305   3.816  21.036  0.00  0.00    +0.000 C 
ENDBRANCH  10  12
ENDBRANCH   8  10
ENDBRANCH   1   8
BRANCH   5  13
ATOM     13  O   UNL     1       6.474   5.696  15.012  0.00  0.00    +0.000 OA
ATOM     14  C   UNL     1       6.877   4.781  14.001  0.00  0.00    +0.000 C 
ENDBRANCH   5  13
BRANCH   7  15
ATOM     15  O   UNL     1       6.716   4.981  19.775  0.00  0.00    +0.000 OA
ATOM     16  H   UNL     1       7.372   5.691  19.684  0.00  0.00    +0.000 HD
ENDBRANCH   7  15
TORSDOF 5
ENDMDL
MODEL 8
REMARK VINA RESULT:      -5.6      1.285      1.367
REMARK  Name = 
REMARK  8 active torsions:
REMARK  status: ('A' for Active; 'I' for Inactive)
REMARK    1  A    between atoms: C_1  and  C_2
REMARK    2  A    between atoms: C_2  and  O_3
REMARK    3  A    between atoms: O_3  and  C_4
REMARK    4  A    between atoms: C_4  and  C_6
REMARK    5  A    between atoms: C_7  and  C_8
REMARK    6  A    between atoms: C_10  and  O_11
REMARK    7  A    between atoms: O_11  and  C_12
REMARK    8  A    between atoms: C_14  and  O_15
REMARK                            x       y       z     vdW  Elec       q    Type
REMARK                         _______ _______ _______ _____ _____    ______ ____
ROOT
ATOM      1  C   UNL     1       4.870   5.816  17.493  0.00  0.00    +0.000 A 
ATOM      2  C   UNL     1       3.687   6.355  18.040  0.00  0.00    +0.000 A 
ATOM      3  C   UNL     1       3.119   7.705  17.696  0.00  0.00    +0.000 C 
ATOM      4  C   UNL     1       2.963   5.585  18.975  0.00  0.00    +0.000 A 
ATOM      5  C   UNL     1       3.387   4.315  19.371  0.00  0.00    +0.000 A 
ATOM      6  C   UNL     1       4.565   3.794  18.841  0.00  0.00    +0.000 A 
ATOM      7  C   UNL     1       5.290   4.533  17.900  0.00  0.00    +0.000 A 
ENDROOT
BRANCH   1   8
ATOM      8  C   UNL     1       5.599   6.508  16.398  0.00  0.00    +0.000 C 
ATOM      9  O   UNL     1       5.641   6.092  15.251  0.00  0.00    +0.000 OA
BRANCH   8  10
ATOM     10  O   UNL     1       6.261   7.596  16.872  0.00  0.00    +0.000 OA
BRANCH  10  12
ATOM     11  C   UNL     1       8.172   8.598  17.959  0.00  0.00    +0.000 C 
ATOM     12  C   UNL     1       7.507   7.303  17.520  0.00  0.00    +0.000 C 
ENDBRANCH  10  12
ENDBRANCH   8  10
ENDBRANCH   1   8
BRANCH   5  13
ATOM     13  O   UNL     1       2.564   3.682  20.259  0.00  0.00    +0.000 OA
ATOM     14  C   UNL     1       1.378   4.368  20.641  0.00  0.00    +0.000 C 
ENDBRANCH   5  13
BRANCH   7  15
ATOM     15  O   UNL     1       6.395   3.948  17.342  0.00  0.00    +0.000 OA
ATOM     16  H   UNL     1       6.151   3.477  16.529  0.00  0.00    +0.000 HD
ENDBRANCH   7  15
TORSDOF 5
ENDMDL
MODEL 9
REMARK VINA RESULT:      -5.6      1.706      2.239
REMARK  Name = 
REMARK  8 active torsions:
REMARK  status: ('A' for Active; 'I' for Inactive)
REMARK    1  A    between atoms: C_1  and  C_2
REMARK    2  A    between atoms: C_2  and  O_3
REMARK    3  A    between atoms: O_3  and  C_4
REMARK    4  A    between atoms: C_4  and  C_6
REMARK    5  A    between atoms: C_7  and  C_8
REMARK    6  A    between atoms: C_10  and  O_11
REMARK    7  A    between atoms: O_11  and  C_12
REMARK    8  A    between atoms: C_14  and  O_15
REMARK                            x       y       z     vdW  Elec       q    Type
REMARK                         _______ _______ _______ _____ _____    ______ ____
ROOT
ATOM      1  C   UNL     1       5.232   5.873  17.821  0.00  0.00    +0.000 A 
ATOM      2  C   UNL     1       3.939   6.363  18.096  0.00  0.00    +0.000 A 
ATOM      3  C   UNL     1       3.354   7.619  17.510  0.00  0.00    +0.000 C 
ATOM      4  C   UNL     1       3.113   5.633  18.977  0.00  0.00    +0.000 A 
ATOM      5  C   UNL     1       3.543   4.449  19.580  0.00  0.00    +0.000 A 
ATOM      6  C   UNL     1       4.827   3.978  19.319  0.00  0.00    +0.000 A 
ATOM      7  C   UNL     1       5.657   4.678  18.436  0.00  0.00    +0.000 A 
ENDROOT
BRANCH   1   8
ATOM      8  C   UNL     1       6.096   6.510  16.793  0.00  0.00    +0.000 C 
ATOM      9  O   UNL     1       6.977   7.314  17.059  0.00  0.00    +0.000 OA
BRANCH   8  10
ATOM     10  O   UNL     1       5.714   6.140  15.543  0.00  0.00    +0.000 OA
BRANCH  10  12
ATOM     11  C   UNL     1       5.865   3.952  14.529  0.00  0.00    +0.000 C 
ATOM     12  C   UNL     1       6.608   5.230  14.889  0.00  0.00    +0.000 C 
ENDBRANCH  10  12
ENDBRANCH   8  10
ENDBRANCH   1   8
BRANCH   5  13
ATOM     13  O   UNL     1       2.619   3.841  20.383  0.00  0.00    +0.000 OA
ATOM     14  C   UNL     1       1.249   4.034  20.050  0.00  0.00    +0.000 C 
ENDBRANCH   5  13
BRANCH   7  15
ATOM     15  O   UNL     1       6.879   4.134  18.142  0.00  0.00    +0.000 OA
ATOM     16  H   UNL     1       6.816   3.573  17.353  0.00  0.00    +0.000 HD
ENDBRANCH   7  15
TORSDOF 5
ENDMDL
