MODEL 1
REMARK VINA RESULT:      -9.0      0.000      0.000
REMARK  Name = 
REMARK  8 active torsions:
REMARK  status: ('A' for Active; 'I' for Inactive)
REMARK    1  A    between atoms: C_1  and  C_2
REMARK    2  A    between atoms: C_2  and  C_3
REMARK    3  A    between atoms: C_2  and  C_4
REMARK    4  A    between atoms: C_2  and  C_5
REMARK    5  A    between atoms: C_8  and  C_9
REMARK    6  A    between atoms: C_14  and  N_15
REMARK    7  A    between atoms: N_15  and  S_16
REMARK    8  A    between atoms: S_16  and  C_17
REMARK                            x       y       z     vdW  Elec       q    Type
REMARK                         _______ _______ _______ _____ _____    ______ ____
ROOT
ATOM      1  C   UNL     1       7.942   8.333  18.050  0.00  0.00    +0.000 A 
ATOM      2  N   UNL     1       6.982   8.120  17.212  0.00  0.00    +0.000 NA
ATOM      3  C   UNL     1       6.443   6.838  17.189  0.00  0.00    +0.000 A 
ATOM      4  C   UNL     1       5.404   6.550  16.303  0.00  0.00    +0.000 A 
ATOM      5  C   UNL     1       4.832   5.277  16.279  0.00  0.00    +0.000 A 
ATOM      6  C   UNL     1       5.285   4.292  17.156  0.00  0.00    +0.000 A 
ATOM      7  C   UNL     1       6.314   4.568  18.051  0.00  0.00    +0.000 A 
ATOM      8  C   UNL     1       6.886   5.846  18.053  0.00  0.00    +0.000 A 
ATOM      9  C   UNL     1       7.974   6.185  18.973  0.00  0.00    +0.000 A 
ATOM     10  O   UNL     1       8.379   5.375  19.798  0.00  0.00    +0.000 OA
ATOM     11  O   UNL     1       8.500   7.425  18.879  0.00  0.00    +0.000 OA
ENDROOT
BRANCH   1  15
ATOM     12  C   UNL     1       9.568  12.264  18.795  0.00  0.00    +0.000 A 
ATOM     13  C   UNL     1       9.935  11.161  19.581  0.00  0.00    +0.000 A 
ATOM     14  C   UNL     1       9.445   9.881  19.317  0.00  0.00    +0.000 A 
ATOM     15  C   UNL     1       8.556   9.666  18.262  0.00  0.00    +0.000 A 
ATOM     16  C   UNL     1       8.177  10.747  17.462  0.00  0.00    +0.000 A 
ATOM     17  C   UNL     1       8.676  12.029  17.731  0.00  0.00    +0.000 A 
BRANCH  12  19
ATOM     18  C   UNL     1       9.064  14.651  19.619  0.00  0.00    +0.000 C 
ATOM     19  C   UNL     1      10.125  13.673  19.061  0.00  0.00    +0.000 C 
ATOM     20  C   UNL     1      10.678  14.291  17.761  0.00  0.00    +0.000 C 
ATOM     21  C   UNL     1      11.261  13.587  20.102  0.00  0.00    +0.000 C 
ENDBRANCH  12  19
ENDBRANCH   1  15
BRANCH   6  22
ATOM     22  N   UNL     1       4.724   2.987  17.068  0.00  0.00    +0.000 N 
ATOM     23  H   UNL     1       4.680   2.586  16.128  0.00  0.00    +0.000 HD
BRANCH  22  24
ATOM     24  S   UNL     1       3.234   2.743  17.844  0.00  0.00    +0.000 S 
ATOM     25  C   UNL     1       3.374   3.850  19.230  0.00  0.00    +0.000 C 
ATOM     26  O   UNL     1       2.156   3.181  16.988  0.00  0.00    +0.000 OA
ATOM     27  O   UNL     1       3.289   1.388  18.353  0.00  0.00    +0.000 OA
ENDBRANCH  22  24
ENDBRANCH   6  22
TORSDOF 4
ENDMDL
MODEL 2
REMARK VINA RESULT:      -8.9      0.848      1.017
REMARK  Name = 
REMARK  8 active torsions:
REMARK  status: ('A' for Active; 'I' for Inactive)
REMARK    1  A    between atoms: C_1  and  C_2
REMARK    2  A    between atoms: C_2  and  C_3
REMARK    3  A    between atoms: C_2  and  C_4
REMARK    4  A    between atoms: C_2  and  C_5
REMARK    5  A    between atoms: C_8  and  C_9
REMARK    6  A    between atoms: C_14  and  N_15
REMARK    7  A    between atoms: N_15  and  S_16
REMARK    8  A    between atoms: S_16  and  C_17
REMARK                            x       y       z     vdW  Elec       q    Type
REMARK                         _______ _______ _______ _____ _____    ______ ____
ROOT
ATOM      1  C   UNL     1       8.027   8.441  18.103  0.00  0.00    +0.000 A 
ATOM      2  N   UNL     1       7.070   8.261  17.254  0.00  0.00    +0.000 NA
ATOM      3  C   UNL     1       6.499   6.995  17.211  0.00  0.00    +0.000 A 
ATOM      4  C   UNL     1       5.462   6.743  16.313  0.00  0.00    +0.000 A 
ATOM      5  C   UNL     1       4.857   5.485  16.268  0.00  0.00    +0.000 A 
ATOM      6  C   UNL     1       5.277   4.480  17.139  0.00  0.00    +0.000 A 
ATOM      7  C   UNL     1       6.303   4.719  18.047  0.00  0.00    +0.000 A 
ATOM      8  C   UNL     1       6.907   5.982  18.068  0.00  0.00    +0.000 A 
ATOM      9  C   UNL     1       7.995   6.283  19.002  0.00  0.00    +0.000 A 
ATOM     10  O   UNL     1       8.371   5.453  19.823  0.00  0.00    +0.000 OA
ATOM     11  O   UNL     1       8.553   7.510  18.928  0.00  0.00    +0.000 OA
ENDROOT
BRANCH   1  15
ATOM     12  C   UNL     1       9.745  12.320  18.908  0.00  0.00    +0.000 A 
ATOM     13  C   UNL     1      10.075  11.200  19.687  0.00  0.00    +0.000 A 
ATOM     14  C   UNL     1       9.554   9.936  19.404  0.00  0.00    +0.000 A 
ATOM     15  C   UNL     1       8.673   9.755  18.336  0.00  0.00    +0.000 A 
ATOM     16  C   UNL     1       8.332  10.853  17.543  0.00  0.00    +0.000 A 
ATOM     17  C   UNL     1       8.860  12.119  17.831  0.00  0.00    +0.000 A 
BRANCH  12  19
ATOM     18  C   UNL     1       9.789  14.810  18.252  0.00  0.00    +0.000 C 
ATOM     19  C   UNL     1      10.336  13.712  19.195  0.00  0.00    +0.000 C 
ATOM     20  C   UNL     1      11.870  13.693  19.034  0.00  0.00    +0.000 C 
ATOM     21  C   UNL     1       9.985  14.130  20.638  0.00  0.00    +0.000 C 
ENDBRANCH  12  19
ENDBRANCH   1  15
BRANCH   6  22
ATOM     22  N   UNL     1       4.683   3.191  17.031  0.00  0.00    +0.000 N 
ATOM     23  H   UNL     1       4.535   2.849  16.078  0.00  0.00    +0.000 HD
BRANCH  22  24
ATOM     24  S   UNL     1       3.275   2.920  17.940  0.00  0.00    +0.000 S 
ATOM     25  C   UNL     1       3.562   1.273  18.549  0.00  0.00    +0.000 C 
ATOM     26  O   UNL     1       3.224   3.840  19.053  0.00  0.00    +0.000 OA
ATOM     27  O   UNL     1       2.203   2.851  16.969  0.00  0.00    +0.000 OA
ENDBRANCH  22  24
ENDBRANCH   6  22
TORSDOF 4
ENDMDL
MODEL 3
REMARK VINA RESULT:      -8.8      0.832      1.337
REMARK  Name = 
REMARK  8 active torsions:
REMARK  status: ('A' for Active; 'I' for Inactive)
REMARK    1  A    between atoms: C_1  and  C_2
REMARK    2  A    between atoms: C_2  and  C_3
REMARK    3  A    between atoms: C_2  and  C_4
REMARK    4  A    between atoms: C_2  and  C_5
REMARK    5  A    between atoms: C_8  and  C_9
REMARK    6  A    between atoms: C_14  and  N_15
REMARK    7  A    between atoms: N_15  and  S_16
REMARK    8  A    between atoms: S_16  and  C_17
REMARK                            x       y       z     vdW  Elec       q    Type
REMARK                         _______ _______ _______ _____ _____    ______ ____
ROOT
ATOM      1  C   UNL     1       7.960   8.452  18.089  0.00  0.00    +0.000 A 
ATOM      2  N   UNL     1       6.985   8.262  17.263  0.00  0.00    +0.000 NA
ATOM      3  C   UNL     1       6.436   6.985  17.224  0.00  0.00    +0.000 A 
ATOM      4  C   UNL     1       5.381   6.722  16.350  0.00  0.00    +0.000 A 
ATOM      5  C   UNL     1       4.798   5.453  16.311  0.00  0.00    +0.000 A 
ATOM      6  C   UNL     1       5.259   4.449  17.162  0.00  0.00    +0.000 A 
ATOM      7  C   UNL     1       6.304   4.700  18.046  0.00  0.00    +0.000 A 
ATOM      8  C   UNL     1       6.885   5.973  18.062  0.00  0.00    +0.000 A 
ATOM      9  C   UNL     1       7.991   6.286  18.970  0.00  0.00    +0.000 A 
ATOM     10  O   UNL     1       8.403   5.458  19.773  0.00  0.00    +0.000 OA
ATOM     11  O   UNL     1       8.525   7.524  18.891  0.00  0.00    +0.000 OA
ENDROOT
BRANCH   1  15
ATOM     12  C   UNL     1       9.942  12.253  18.611  0.00  0.00    +0.000 A 
ATOM     13  C   UNL     1       8.929  12.083  17.654  0.00  0.00    +0.000 A 
ATOM     14  C   UNL     1       8.257  10.868  17.511  0.00  0.00    +0.000 A 
ATOM     15  C   UNL     1       8.588   9.776  18.316  0.00  0.00    +0.000 A 
ATOM     16  C   UNL     1       9.590   9.920  19.278  0.00  0.00    +0.000 A 
ATOM     17  C   UNL     1      10.259  11.144  19.419  0.00  0.00    +0.000 A 
BRANCH  12  19
ATOM     18  C   UNL     1       9.809  14.815  18.386  0.00  0.00    +0.000 C 
ATOM     19  C   UNL     1      10.669  13.596  18.795  0.00  0.00    +0.000 C 
ATOM     20  C   UNL     1      11.955  13.637  17.944  0.00  0.00    +0.000 C 
ATOM     21  C   UNL     1      11.042  13.777  20.282  0.00  0.00    +0.000 C 
ENDBRANCH  12  19
ENDBRANCH   1  15
BRANCH   6  22
ATOM     22  N   UNL     1       4.686   3.150  17.059  0.00  0.00    +0.000 N 
ATOM     23  H   UNL     1       4.546   2.801  16.107  0.00  0.00    +0.000 HD
BRANCH  22  24
ATOM     24  S   UNL     1       3.280   2.860  17.966  0.00  0.00    +0.000 S 
ATOM     25  C   UNL     1       3.602   1.229  18.601  0.00  0.00    +0.000 C 
ATOM     26  O   UNL     1       3.203   3.795  19.065  0.00  0.00    +0.000 OA
ATOM     27  O   UNL     1       2.215   2.752  16.991  0.00  0.00    +0.000 OA
ENDBRANCH  22  24
ENDBRANCH   6  22
TORSDOF 4
ENDMDL
MODEL 4
REMARK VINA RESULT:      -8.6      0.833      1.357
REMARK  Name = 
REMARK  8 active torsions:
REMARK  status: ('A' for Active; 'I' for Inactive)
REMARK    1  A    between atoms: C_1  and  C_2
REMARK    2  A    between atoms: C_2  and  C_3
REMARK    3  A    between atoms: C_2  and  C_4
REMARK    4  A    between atoms: C_2  and  C_5
REMARK    5  A    between atoms: C_8  and  C_9
REMARK    6  A    between atoms: C_14  and  N_15
REMARK    7  A    between atoms: N_15  and  S_16
REMARK    8  A    between atoms: S_16  and  C_17
REMARK                            x       y       z     vdW  Elec       q    Type
REMARK                         _______ _______ _______ _____ _____    ______ ____
ROOT
ATOM      1  C   UNL     1       7.973   8.407  18.125  0.00  0.00    +0.000 A 
ATOM      2  N   UNL     1       7.008   8.210  17.290  0.00  0.00    +0.000 NA
ATOM      3  C   UNL     1       6.475   6.927  17.237  0.00  0.00    +0.000 A 
ATOM      4  C   UNL     1       5.432   6.657  16.352  0.00  0.00    +0.000 A 
ATOM      5  C   UNL     1       4.865   5.381  16.299  0.00  0.00    +0.000 A 
ATOM      6  C   UNL     1       5.330   4.377  17.148  0.00  0.00    +0.000 A 
ATOM      7  C   UNL     1       6.364   4.635  18.042  0.00  0.00    +0.000 A 
ATOM      8  C   UNL     1       6.929   5.915  18.072  0.00  0.00    +0.000 A 
ATOM      9  C   UNL     1       8.023   6.236  18.993  0.00  0.00    +0.000 A 
ATOM     10  O   UNL     1       8.438   5.408  19.795  0.00  0.00    +0.000 OA
ATOM     11  O   UNL     1       8.542   7.481  18.927  0.00  0.00    +0.000 OA
ENDROOT
BRANCH   1  15
ATOM     12  C   UNL     1       9.907  12.226  18.697  0.00  0.00    +0.000 A 
ATOM     13  C   UNL     1       8.936  12.041  17.700  0.00  0.00    +0.000 A 
ATOM     14  C   UNL     1       8.278  10.820  17.540  0.00  0.00    +0.000 A 
ATOM     15  C   UNL     1       8.583   9.737  18.367  0.00  0.00    +0.000 A 
ATOM     16  C   UNL     1       9.543   9.896  19.368  0.00  0.00    +0.000 A 
ATOM     17  C   UNL     1      10.198  11.126  19.526  0.00  0.00    +0.000 A 
BRANCH  12  19
ATOM     18  C   UNL     1      10.322  14.218  20.276  0.00  0.00    +0.000 C 
ATOM     19  C   UNL     1      10.617  13.576  18.899  0.00  0.00    +0.000 C 
ATOM     20  C   UNL     1      10.179  14.586  17.819  0.00  0.00    +0.000 C 
ATOM     21  C   UNL     1      12.144  13.370  18.807  0.00  0.00    +0.000 C 
ENDBRANCH  12  19
ENDBRANCH   1  15
BRANCH   6  22
ATOM     22  N   UNL     1       4.775   3.072  17.031  0.00  0.00    +0.000 N 
ATOM     23  H   UNL     1       4.390   2.835  16.113  0.00  0.00    +0.000 HD
BRANCH  22  24
ATOM     24  S   UNL     1       3.672   2.600  18.232  0.00  0.00    +0.000 S 
ATOM     25  C   UNL     1       2.135   3.174  17.543  0.00  0.00    +0.000 C 
ATOM     26  O   UNL     1       3.643   1.159  18.335  0.00  0.00    +0.000 OA
ATOM     27  O   UNL     1       3.980   3.432  19.378  0.00  0.00    +0.000 OA
ENDBRANCH  22  24
ENDBRANCH   6  22
TORSDOF 4
ENDMDL
MODEL 5
REMARK VINA RESULT:      -8.6      8.304     10.497
REMARK  Name = 
REMARK  8 active torsions:
REMARK  status: ('A' for Active; 'I' for Inactive)
REMARK    1  A    between atoms: C_1  and  C_2
REMARK    2  A    between atoms: C_2  and  C_3
REMARK    3  A    between atoms: C_2  and  C_4
REMARK    4  A    between atoms: C_2  and  C_5
REMARK    5  A    between atoms: C_8  and  C_9
REMARK    6  A    between atoms: C_14  and  N_15
REMARK    7  A    between atoms: N_15  and  S_16
REMARK    8  A    between atoms: S_16  and  C_17
REMARK                            x       y       z     vdW  Elec       q    Type
REMARK                         _______ _______ _______ _____ _____    ______ ____
ROOT
ATOM      1  C   UNL     1       0.881   8.949  20.466  0.00  0.00    +0.000 A 
ATOM      2  N   UNL     1       0.168   9.823  19.836  0.00  0.00    +0.000 NA
ATOM      3  C   UNL     1      -0.583  10.699  20.612  0.00  0.00    +0.000 A 
ATOM      4  C   UNL     1      -1.372  11.663  19.985  0.00  0.00    +0.000 A 
ATOM      5  C   UNL     1      -2.116  12.568  20.746  0.00  0.00    +0.000 A 
ATOM      6  C   UNL     1      -2.056  12.522  22.138  0.00  0.00    +0.000 A 
ATOM      7  C   UNL     1      -1.265  11.572  22.777  0.00  0.00    +0.000 A 
ATOM      8  C   UNL     1      -0.537  10.664  22.000  0.00  0.00    +0.000 A 
ATOM      9  C   UNL     1       0.307   9.642  22.624  0.00  0.00    +0.000 A 
ATOM     10  O   UNL     1       0.436   9.587  23.841  0.00  0.00    +0.000 OA
ATOM     11  O   UNL     1       0.941   8.777  21.804  0.00  0.00    +0.000 OA
ENDROOT
BRANCH   1  15
ATOM     12  C   UNL     1       3.403   6.119  18.398  0.00  0.00    +0.000 A 
ATOM     13  C   UNL     1       3.086   7.364  17.833  0.00  0.00    +0.000 A 
ATOM     14  C   UNL     1       2.306   8.298  18.516  0.00  0.00    +0.000 A 
ATOM     15  C   UNL     1       1.805   8.010  19.787  0.00  0.00    +0.000 A 
ATOM     16  C   UNL     1       2.109   6.779  20.373  0.00  0.00    +0.000 A 
ATOM     17  C   UNL     1       2.895   5.846  19.684  0.00  0.00    +0.000 A 
BRANCH  12  19
ATOM     18  C   UNL     1       3.496   3.861  17.162  0.00  0.00    +0.000 C 
ATOM     19  C   UNL     1       4.285   5.094  17.665  0.00  0.00    +0.000 C 
ATOM     20  C   UNL     1       5.400   4.574  18.596  0.00  0.00    +0.000 C 
ATOM     21  C   UNL     1       4.929   5.761  16.431  0.00  0.00    +0.000 C 
ENDBRANCH  12  19
ENDBRANCH   1  15
BRANCH   6  22
ATOM     22  N   UNL     1      -2.869  13.418  22.887  0.00  0.00    +0.000 N 
ATOM     23  H   UNL     1      -2.434  13.822  23.720  0.00  0.00    +0.000 HD
BRANCH  22  24
ATOM     24  S   UNL     1      -4.431  12.883  23.283  0.00  0.00    +0.000 S 
ATOM     25  C   UNL     1      -5.224  14.412  23.727  0.00  0.00    +0.000 C 
ATOM     26  O   UNL     1      -5.074  12.333  22.112  0.00  0.00    +0.000 OA
ATOM     27  O   UNL     1      -4.269  12.101  24.492  0.00  0.00    +0.000 OA
ENDBRANCH  22  24
ENDBRANCH   6  22
TORSDOF 4
ENDMDL
MODEL 6
REMARK VINA RESULT:      -8.4      8.226     10.250
REMARK  Name = 
REMARK  8 active torsions:
REMARK  status: ('A' for Active; 'I' for Inactive)
REMARK    1  A    between atoms: C_1  and  C_2
REMARK    2  A    between atoms: C_2  and  C_3
REMARK    3  A    between atoms: C_2  and  C_4
REMARK    4  A    between atoms: C_2  and  C_5
REMARK    5  A    between atoms: C_8  and  C_9
REMARK    6  A    between atoms: C_14  and  N_15
REMARK    7  A    between atoms: N_15  and  S_16
REMARK    8  A    between atoms: S_16  and  C_17
REMARK                            x       y       z     vdW  Elec       q    Type
REMARK                         _______ _______ _______ _____ _____    ______ ____
ROOT
ATOM      1  C   UNL     1       0.929   8.989  20.204  0.00  0.00    +0.000 A 
ATOM      2  N   UNL     1       0.175   9.860  19.622  0.00  0.00    +0.000 NA
ATOM      3  C   UNL     1      -0.541  10.722  20.446  0.00  0.00    +0.000 A 
ATOM      4  C   UNL     1      -1.372  11.683  19.871  0.00  0.00    +0.000 A 
ATOM      5  C   UNL     1      -2.082  12.575  20.679  0.00  0.00    +0.000 A 
ATOM      6  C   UNL     1      -1.945  12.519  22.065  0.00  0.00    +0.000 A 
ATOM      7  C   UNL     1      -1.111  11.572  22.652  0.00  0.00    +0.000 A 
ATOM      8  C   UNL     1      -0.418  10.677  21.828  0.00  0.00    +0.000 A 
ATOM      9  C   UNL     1       0.468   9.659  22.397  0.00  0.00    +0.000 A 
ATOM     10  O   UNL     1       0.665   9.595  23.604  0.00  0.00    +0.000 OA
ATOM     11  O   UNL     1       1.065   8.806  21.536  0.00  0.00    +0.000 OA
ENDROOT
BRANCH   1  15
ATOM     12  C   UNL     1       3.702   6.394  18.148  0.00  0.00    +0.000 A 
ATOM     13  C   UNL     1       3.159   6.042  19.393  0.00  0.00    +0.000 A 
ATOM     14  C   UNL     1       2.230   6.858  20.041  0.00  0.00    +0.000 A 
ATOM     15  C   UNL     1       1.824   8.064  19.467  0.00  0.00    +0.000 A 
ATOM     16  C   UNL     1       2.347   8.436  18.227  0.00  0.00    +0.000 A 
ATOM     17  C   UNL     1       3.277   7.611  17.579  0.00  0.00    +0.000 A 
BRANCH  12  19
ATOM     18  C   UNL     1       5.185   6.079  16.066  0.00  0.00    +0.000 C 
ATOM     19  C   UNL     1       4.705   5.488  17.413  0.00  0.00    +0.000 C 
ATOM     20  C   UNL     1       4.072   4.114  17.109  0.00  0.00    +0.000 C 
ATOM     21  C   UNL     1       5.954   5.283  18.296  0.00  0.00    +0.000 C 
ENDBRANCH  12  19
ENDBRANCH   1  15
BRANCH   6  22
ATOM     22  N   UNL     1      -2.725  13.401  22.865  0.00  0.00    +0.000 N 
ATOM     23  H   UNL     1      -2.263  13.764  23.703  0.00  0.00    +0.000 HD
BRANCH  22  24
ATOM     24  S   UNL     1      -4.287  12.879  23.276  0.00  0.00    +0.000 S 
ATOM     25  C   UNL     1      -5.041  14.405  23.797  0.00  0.00    +0.000 C 
ATOM     26  O   UNL     1      -4.966  12.387  22.100  0.00  0.00    +0.000 OA
ATOM     27  O   UNL     1      -4.113  12.049  24.450  0.00  0.00    +0.000 OA
ENDBRANCH  22  24
ENDBRANCH   6  22
TORSDOF 4
ENDMDL
MODEL 7
REMARK VINA RESULT:      -8.3      8.076     10.327
REMARK  Name = 
REMARK  8 active torsions:
REMARK  status: ('A' for Active; 'I' for Inactive)
REMARK    1  A    between atoms: C_1  and  C_2
REMARK    2  A    between atoms: C_2  and  C_3
REMARK    3  A    between atoms: C_2  and  C_4
REMARK    4  A    between atoms: C_2  and  C_5
REMARK    5  A    between atoms: C_8  and  C_9
REMARK    6  A    between atoms: C_14  and  N_15
REMARK    7  A    between atoms: N_15  and  S_16
REMARK    8  A    between atoms: S_16  and  C_17
REMARK                            x       y       z     vdW  Elec       q    Type
REMARK                         _______ _______ _______ _____ _____    ______ ____
ROOT
ATOM      1  C   UNL     1       1.187   9.150  19.835  0.00  0.00    +0.000 A 
ATOM      2  N   UNL     1       0.757   9.064  21.051  0.00  0.00    +0.000 NA
ATOM      3  C   UNL     1      -0.067  10.091  21.499  0.00  0.00    +0.000 A 
ATOM      4  C   UNL     1      -0.560  10.051  22.803  0.00  0.00    +0.000 A 
ATOM      5  C   UNL     1      -1.408  11.060  23.266  0.00  0.00    +0.000 A 
ATOM      6  C   UNL     1      -1.780  12.102  22.418  0.00  0.00    +0.000 A 
ATOM      7  C   UNL     1      -1.303  12.149  21.111  0.00  0.00    +0.000 A 
ATOM      8  C   UNL     1      -0.444  11.138  20.668  0.00  0.00    +0.000 A 
ATOM      9  C   UNL     1       0.089  11.145  19.303  0.00  0.00    +0.000 A 
ATOM     10  O   UNL     1      -0.243  12.008  18.499  0.00  0.00    +0.000 OA
ATOM     11  O   UNL     1       0.947  10.157  18.968  0.00  0.00    +0.000 OA
ENDROOT
BRANCH   1  15
ATOM     12  C   UNL     1       3.713   6.157  18.016  0.00  0.00    +0.000 A 
ATOM     13  C   UNL     1       3.121   5.947  19.272  0.00  0.00    +0.000 A 
ATOM     14  C   UNL     1       2.270   6.895  19.844  0.00  0.00    +0.000 A 
ATOM     15  C   UNL     1       1.994   8.092  19.181  0.00  0.00    +0.000 A 
ATOM     16  C   UNL     1       2.568   8.324  17.929  0.00  0.00    +0.000 A 
ATOM     17  C   UNL     1       3.420   7.367  17.358  0.00  0.00    +0.000 A 
BRANCH  12  19
ATOM     18  C   UNL     1       5.802   4.674  18.276  0.00  0.00    +0.000 C 
ATOM     19  C   UNL     1       4.630   5.107  17.365  0.00  0.00    +0.000 C 
ATOM     20  C   UNL     1       5.243   5.658  16.061  0.00  0.00    +0.000 C 
ATOM     21  C   UNL     1       3.809   3.841  17.040  0.00  0.00    +0.000 C 
ENDBRANCH  12  19
ENDBRANCH   1  15
BRANCH   6  22
ATOM     22  N   UNL     1      -2.597  13.146  22.935  0.00  0.00    +0.000 N 
ATOM     23  H   UNL     1      -2.252  13.600  23.785  0.00  0.00    +0.000 HD
BRANCH  22  24
ATOM     24  S   UNL     1      -4.249  12.801  23.125  0.00  0.00    +0.000 S 
ATOM     25  C   UNL     1      -4.915  14.424  23.422  0.00  0.00    +0.000 C 
ATOM     26  O   UNL     1      -4.788  12.281  21.890  0.00  0.00    +0.000 OA
ATOM     27  O   UNL     1      -4.340  12.052  24.362  0.00  0.00    +0.000 OA
ENDBRANCH  22  24
ENDBRANCH   6  22
TORSDOF 4
ENDMDL
MODEL 8
REMARK VINA RESULT:      -8.2      8.366     10.606
REMARK  Name = 
REMARK  8 active torsions:
REMARK  status: ('A' for Active; 'I' for Inactive)
REMARK    1  A    between atoms: C_1  and  C_2
REMARK    2  A    between atoms: C_2  and  C_3
REMARK    3  A    between atoms: C_2  and  C_4
REMARK    4  A    between atoms: C_2  and  C_5
REMARK    5  A    between atoms: C_8  and  C_9
REMARK    6  A    between atoms: C_14  and  N_15
REMARK    7  A    between atoms: N_15  and  S_16
REMARK    8  A    between atoms: S_16  and  C_17
REMARK                            x       y       z     vdW  Elec       q    Type
REMARK                         _______ _______ _______ _____ _____    ______ ____
ROOT
ATOM      1  C   UNL     1       0.809   9.009  20.544  0.00  0.00    +0.000 A 
ATOM      2  N   UNL     1       0.165   9.931  19.907  0.00  0.00    +0.000 NA
ATOM      3  C   UNL     1      -0.559  10.836  20.676  0.00  0.00    +0.000 A 
ATOM      4  C   UNL     1      -1.274  11.851  20.042  0.00  0.00    +0.000 A 
ATOM      5  C   UNL     1      -1.989  12.786  20.795  0.00  0.00    +0.000 A 
ATOM      6  C   UNL     1      -1.973  12.717  22.188  0.00  0.00    +0.000 A 
ATOM      7  C   UNL     1      -1.255  11.714  22.834  0.00  0.00    +0.000 A 
ATOM      8  C   UNL     1      -0.556  10.779  22.063  0.00  0.00    +0.000 A 
ATOM      9  C   UNL     1       0.210   9.702  22.695  0.00  0.00    +0.000 A 
ATOM     10  O   UNL     1       0.300   9.622  23.915  0.00  0.00    +0.000 OA
ATOM     11  O   UNL     1       0.819   8.814  21.880  0.00  0.00    +0.000 OA
ENDROOT
BRANCH   1  15
ATOM     12  C   UNL     1       3.229   6.065  18.512  0.00  0.00    +0.000 A 
ATOM     13  C   UNL     1       2.954   7.312  17.930  0.00  0.00    +0.000 A 
ATOM     14  C   UNL     1       2.207   8.283  18.601  0.00  0.00    +0.000 A 
ATOM     15  C   UNL     1       1.699   8.029  19.876  0.00  0.00    +0.000 A 
ATOM     16  C   UNL     1       1.961   6.797  20.480  0.00  0.00    +0.000 A 
ATOM     17  C   UNL     1       2.714   5.828  19.802  0.00  0.00    +0.000 A 
BRANCH  12  19
ATOM     18  C   UNL     1       5.167   4.379  18.694  0.00  0.00    +0.000 C 
ATOM     19  C   UNL     1       4.074   5.001  17.792  0.00  0.00    +0.000 C 
ATOM     20  C   UNL     1       4.785   5.611  16.567  0.00  0.00    +0.000 C 
ATOM     21  C   UNL     1       3.158   3.850  17.323  0.00  0.00    +0.000 C 
ENDBRANCH  12  19
ENDBRANCH   1  15
BRANCH   6  22
ATOM     22  N   UNL     1      -2.757  13.646  22.927  0.00  0.00    +0.000 N 
ATOM     23  H   UNL     1      -2.364  13.943  23.824  0.00  0.00    +0.000 HD
BRANCH  22  24
ATOM     24  S   UNL     1      -4.397  13.262  23.141  0.00  0.00    +0.000 S 
ATOM     25  C   UNL     1      -4.363  12.445  24.721  0.00  0.00    +0.000 C 
ATOM     26  O   UNL     1      -5.176  14.474  23.246  0.00  0.00    +0.000 OA
ATOM     27  O   UNL     1      -4.688  12.263  22.133  0.00  0.00    +0.000 OA
ENDBRANCH  22  24
ENDBRANCH   6  22
TORSDOF 4
ENDMDL
MODEL 9
REMARK VINA RESULT:      -8.2      8.262     10.612
REMARK  Name = 
REMARK  8 active torsions:
REMARK  status: ('A' for Active; 'I' for Inactive)
REMARK    1  A    between atoms: C_1  and  C_2
REMARK    2  A    between atoms: C_2  and  C_3
REMARK    3  A    between atoms: C_2  and  C_4
REMARK    4  A    between atoms: C_2  and  C_5
REMARK    5  A    between atoms: C_8  and  C_9
REMARK    6  A    between atoms: C_14  and  N_15
REMARK    7  A    between atoms: N_15  and  S_16
REMARK    8  A    between atoms: S_16  and  C_17
REMARK                            x       y       z     vdW  Elec       q    Type
REMARK                         _______ _______ _______ _____ _____    ______ ____
ROOT
ATOM      1  C   UNL     1       0.994   9.272  19.977  0.00  0.00    +0.000 A 
ATOM      2  N   UNL     1       0.628   9.321  21.215  0.00  0.00    +0.000 NA
ATOM      3  C   UNL     1      -0.270  10.323  21.566  0.00  0.00    +0.000 A 
ATOM      4  C   UNL     1      -0.699  10.423  22.889  0.00  0.00    +0.000 A 
ATOM      5  C   UNL     1      -1.619  11.407  23.259  0.00  0.00    +0.000 A 
ATOM      6  C   UNL     1      -2.127  12.282  22.299  0.00  0.00    +0.000 A 
ATOM      7  C   UNL     1      -1.715  12.187  20.973  0.00  0.00    +0.000 A 
ATOM      8  C   UNL     1      -0.782  11.204  20.623  0.00  0.00    +0.000 A 
ATOM      9  C   UNL     1      -0.313  11.067  19.242  0.00  0.00    +0.000 A 
ATOM     10  O   UNL     1      -0.761  11.775  18.349  0.00  0.00    +0.000 OA
ATOM     11  O   UNL     1       0.620  10.122  18.996  0.00  0.00    +0.000 OA
ENDROOT
BRANCH   1  15
ATOM     12  C   UNL     1       3.372   6.088  18.287  0.00  0.00    +0.000 A 
ATOM     13  C   UNL     1       3.187   7.302  17.606  0.00  0.00    +0.000 A 
ATOM     14  C   UNL     1       2.454   8.349  18.168  0.00  0.00    +0.000 A 
ATOM     15  C   UNL     1       1.870   8.209  19.428  0.00  0.00    +0.000 A 
ATOM     16  C   UNL     1       2.042   7.013  20.128  0.00  0.00    +0.000 A 
ATOM     17  C   UNL     1       2.781   5.966  19.560  0.00  0.00    +0.000 A 
BRANCH  12  19
ATOM     18  C   UNL     1       5.237   4.356  18.680  0.00  0.00    +0.000 C 
ATOM     19  C   UNL     1       4.201   4.939  17.689  0.00  0.00    +0.000 C 
ATOM     20  C   UNL     1       4.978   5.421  16.447  0.00  0.00    +0.000 C 
ATOM     21  C   UNL     1       3.260   3.787  17.280  0.00  0.00    +0.000 C 
ENDBRANCH  12  19
ENDBRANCH   1  15
BRANCH   6  22
ATOM     22  N   UNL     1      -3.017  13.311  22.715  0.00  0.00    +0.000 N 
ATOM     23  H   UNL     1      -2.701  13.877  23.507  0.00  0.00    +0.000 HD
BRANCH  22  24
ATOM     24  S   UNL     1      -4.637  12.867  22.963  0.00  0.00    +0.000 S 
ATOM     25  C   UNL     1      -5.404  14.454  23.200  0.00  0.00    +0.000 C 
ATOM     26  O   UNL     1      -5.166  12.252  21.768  0.00  0.00    +0.000 OA
ATOM     27  O   UNL     1      -4.650  12.176  24.236  0.00  0.00    +0.000 OA
ENDBRANCH  22  24
ENDBRANCH   6  22
TORSDOF 4
ENDMDL
