MODEL 1
REMARK VINA RESULT:      -7.7      0.000      0.000
REMARK  Name = 
REMARK  4 active torsions:
REMARK  status: ('A' for Active; 'I' for Inactive)
REMARK    1  A    between atoms: C_7  and  C_8
REMARK    2  A    between atoms: N_13  and  C_14
REMARK    3  A    between atoms: C_14  and  C_15
REMARK    4  A    between atoms: C_18  and  N_19
REMARK                            x       y       z     vdW  Elec       q    Type
REMARK                         _______ _______ _______ _____ _____    ______ ____
ROOT
ATOM      1  C   UNL     1      -2.360  14.120  20.638  0.00  0.00    +0.000 C 
ATOM      2  O   UNL     1      -1.845  12.775  20.800  0.00  0.00    +0.000 OA
ATOM      3  C   UNL     1      -0.545  12.641  20.158  0.00  0.00    +0.000 C 
ATOM      4  C   UNL     1      -0.733  11.794  18.891  0.00  0.00    +0.000 C 
ATOM      5  C   UNL     1      -0.986  10.329  19.244  0.00  0.00    +0.000 C 
ATOM      6  N   UNL     1       0.053   9.737  20.104  0.00  0.00    +0.000 NA
ATOM      7  C   UNL     1       0.124  10.500  21.362  0.00  0.00    +0.000 C 
ATOM      8  C   UNL     1       0.412  11.994  21.166  0.00  0.00    +0.000 C 
ATOM      9  C   UNL     1      -0.157  14.052  19.821  0.00  0.00    +0.000 A 
ATOM     10  C   UNL     1       1.050  14.551  19.347  0.00  0.00    +0.000 A 
ATOM     11  C   UNL     1       1.163  15.933  19.141  0.00  0.00    +0.000 A 
ATOM     12  C   UNL     1       0.078  16.781  19.382  0.00  0.00    +0.000 A 
ATOM     13  C   UNL     1      -1.134  16.269  19.841  0.00  0.00    +0.000 A 
ATOM     14  C   UNL     1      -1.225  14.901  20.073  0.00  0.00    +0.000 A 
ENDROOT
BRANCH   1  21
ATOM     15 CL   UNL     1      -6.258  15.362  23.885  0.00  0.00    +0.000 Cl
ATOM     16  C   UNL     1      -4.581  15.151  23.560  0.00  0.00    +0.000 A 
ATOM     17  C   UNL     1      -3.651  15.343  24.581  0.00  0.00    +0.000 A 
ATOM     18  C   UNL     1      -2.300  15.169  24.310  0.00  0.00    +0.000 A 
ATOM     19 CL   UNL     1      -1.140  15.403  25.554  0.00  0.00    +0.000 Cl
ATOM     20  C   UNL     1      -1.879  14.796  23.037  0.00  0.00    +0.000 A 
ATOM     21  C   UNL     1      -2.811  14.586  22.003  0.00  0.00    +0.000 A 
ATOM     22  C   UNL     1      -4.173  14.782  22.274  0.00  0.00    +0.000 A 
ENDBRANCH   1  21
BRANCH   6  23
ATOM     23  C   UNL     1       1.382   9.659  19.459  0.00  0.00    +0.000 C 
BRANCH  23  24
ATOM     24  C   UNL     1       1.929   8.263  19.232  0.00  0.00    +0.000 A 
ATOM     25  C   UNL     1       2.546   7.925  18.036  0.00  0.00    +0.000 A 
ATOM     26  C   UNL     1       2.973   6.605  17.847  0.00  0.00    +0.000 A 
ATOM     27  C   UNL     1       2.795   5.626  18.831  0.00  0.00    +0.000 A 
ATOM     28  C   UNL     1       2.170   6.091  19.992  0.00  0.00    +0.000 A 
ATOM     29  N   UNL     1       1.739   7.360  20.221  0.00  0.00    +0.000 NA
BRANCH  27  30
ATOM     30  N   UNL     1       3.206   4.325  18.652  0.00  0.00    +0.000 N 
ATOM     31  C   UNL     1       3.040   3.560  17.421  0.00  0.00    +0.000 C 
ATOM     32  C   UNL     1       2.906   2.124  17.913  0.00  0.00    +0.000 C 
ATOM     33  C   UNL     1       3.808   2.084  19.133  0.00  0.00    +0.000 C 
ATOM     34  C   UNL     1       3.660   3.474  19.750  0.00  0.00    +0.000 C 
ENDBRANCH  27  30
ENDBRANCH  23  24
ENDBRANCH   6  23
TORSDOF 4
ENDMDL
MODEL 2
REMARK VINA RESULT:      -7.5      2.306      3.499
REMARK  Name = 
REMARK  4 active torsions:
REMARK  status: ('A' for Active; 'I' for Inactive)
REMARK    1  A    between atoms: C_7  and  C_8
REMARK    2  A    between atoms: N_13  and  C_14
REMARK    3  A    between atoms: C_14  and  C_15
REMARK    4  A    between atoms: C_18  and  N_19
REMARK                            x       y       z     vdW  Elec       q    Type
REMARK                         _______ _______ _______ _____ _____    ______ ____
ROOT
ATOM      1  C   UNL     1      -1.535  14.014  23.853  0.00  0.00    +0.000 C 
ATOM      2  O   UNL     1      -0.494  13.197  23.259  0.00  0.00    +0.000 OA
ATOM      3  C   UNL     1      -1.010  12.455  22.118  0.00  0.00    +0.000 C 
ATOM      4  C   UNL     1      -1.126  10.981  22.532  0.00  0.00    +0.000 C 
ATOM      5  C   UNL     1       0.254  10.333  22.644  0.00  0.00    +0.000 C 
ATOM      6  N   UNL     1       1.070  10.459  21.425  0.00  0.00    +0.000 NA
ATOM      7  C   UNL     1       1.263  11.887  21.124  0.00  0.00    +0.000 C 
ATOM      8  C   UNL     1      -0.046  12.666  20.945  0.00  0.00    +0.000 C 
ATOM      9  C   UNL     1      -2.361  13.061  21.868  0.00  0.00    +0.000 A 
ATOM     10  C   UNL     1      -3.239  12.865  20.810  0.00  0.00    +0.000 A 
ATOM     11  C   UNL     1      -4.440  13.588  20.801  0.00  0.00    +0.000 A 
ATOM     12  C   UNL     1      -4.755  14.463  21.845  0.00  0.00    +0.000 A 
ATOM     13  C   UNL     1      -3.875  14.638  22.912  0.00  0.00    +0.000 A 
ATOM     14  C   UNL     1      -2.672  13.941  22.894  0.00  0.00    +0.000 A 
ENDROOT
BRANCH   1  21
ATOM     15 CL   UNL     1      -0.878  18.247  26.840  0.00  0.00    +0.000 Cl
ATOM     16  C   UNL     1      -0.604  17.381  25.378  0.00  0.00    +0.000 A 
ATOM     17  C   UNL     1       0.207  17.936  24.389  0.00  0.00    +0.000 A 
ATOM     18  C   UNL     1       0.423  17.230  23.213  0.00  0.00    +0.000 A 
ATOM     19 CL   UNL     1       1.417  17.899  21.983  0.00  0.00    +0.000 Cl
ATOM     20  C   UNL     1      -0.152  15.976  23.028  0.00  0.00    +0.000 A 
ATOM     21  C   UNL     1      -0.961  15.401  24.026  0.00  0.00    +0.000 A 
ATOM     22  C   UNL     1      -1.194  16.125  25.204  0.00  0.00    +0.000 A 
ENDBRANCH   1  21
BRANCH   6  23
ATOM     23  C   UNL     1       0.504   9.745  20.258  0.00  0.00    +0.000 C 
BRANCH  23  24
ATOM     24  C   UNL     1       1.435   8.776  19.556  0.00  0.00    +0.000 A 
ATOM     25  C   UNL     1       1.827   8.989  18.243  0.00  0.00    +0.000 A 
ATOM     26  C   UNL     1       2.632   8.030  17.615  0.00  0.00    +0.000 A 
ATOM     27  C   UNL     1       3.049   6.872  18.279  0.00  0.00    +0.000 A 
ATOM     28  C   UNL     1       2.597   6.775  19.598  0.00  0.00    +0.000 A 
ATOM     29  N   UNL     1       1.816   7.678  20.248  0.00  0.00    +0.000 NA
BRANCH  27  30
ATOM     30  N   UNL     1       3.835   5.921  17.668  0.00  0.00    +0.000 N 
ATOM     31  C   UNL     1       5.067   6.201  16.937  0.00  0.00    +0.000 C 
ATOM     32  C   UNL     1       5.112   5.100  15.885  0.00  0.00    +0.000 C 
ATOM     33  C   UNL     1       4.484   3.912  16.592  0.00  0.00    +0.000 C 
ATOM     34  C   UNL     1       3.412   4.534  17.485  0.00  0.00    +0.000 C 
ENDBRANCH  27  30
ENDBRANCH  23  24
ENDBRANCH   6  23
TORSDOF 4
ENDMDL
MODEL 3
REMARK VINA RESULT:      -7.4      4.898      7.920
REMARK  Name = 
REMARK  4 active torsions:
REMARK  status: ('A' for Active; 'I' for Inactive)
REMARK    1  A    between atoms: C_7  and  C_8
REMARK    2  A    between atoms: N_13  and  C_14
REMARK    3  A    between atoms: C_14  and  C_15
REMARK    4  A    between atoms: C_18  and  N_19
REMARK                            x       y       z     vdW  Elec       q    Type
REMARK                         _______ _______ _______ _____ _____    ______ ____
ROOT
ATOM      1  C   UNL     1      -0.155  12.534  21.712  0.00  0.00    +0.000 C 
ATOM      2  O   UNL     1       0.264  13.765  21.070  0.00  0.00    +0.000 OA
ATOM      3  C   UNL     1       1.124  13.484  19.929  0.00  0.00    +0.000 C 
ATOM      4  C   UNL     1       2.557  13.878  20.315  0.00  0.00    +0.000 C 
ATOM      5  C   UNL     1       2.712  15.398  20.373  0.00  0.00    +0.000 C 
ATOM      6  N   UNL     1       2.310  16.082  19.132  0.00  0.00    +0.000 NA
ATOM      7  C   UNL     1       0.896  15.781  18.856  0.00  0.00    +0.000 C 
ATOM      8  C   UNL     1       0.593  14.282  18.733  0.00  0.00    +0.000 C 
ATOM      9  C   UNL     1       0.998  12.001  19.733  0.00  0.00    +0.000 A 
ATOM     10  C   UNL     1       1.463  11.201  18.698  0.00  0.00    +0.000 A 
ATOM     11  C   UNL     1       1.179   9.829  18.739  0.00  0.00    +0.000 A 
ATOM     12  C   UNL     1       0.470   9.279  19.811  0.00  0.00    +0.000 A 
ATOM     13  C   UNL     1       0.023  10.088  20.854  0.00  0.00    +0.000 A 
ATOM     14  C   UNL     1       0.281  11.452  20.786  0.00  0.00    +0.000 A 
ENDROOT
BRANCH   1  21
ATOM     15 CL   UNL     1      -4.910  12.987  19.600  0.00  0.00    +0.000 Cl
ATOM     16  C   UNL     1      -3.884  12.805  20.970  0.00  0.00    +0.000 A 
ATOM     17  C   UNL     1      -4.446  12.668  22.239  0.00  0.00    +0.000 A 
ATOM     18  C   UNL     1      -3.610  12.521  23.338  0.00  0.00    +0.000 A 
ATOM     19 CL   UNL     1      -4.283  12.352  24.909  0.00  0.00    +0.000 Cl
ATOM     20  C   UNL     1      -2.228  12.497  23.175  0.00  0.00    +0.000 A 
ATOM     21  C   UNL     1      -1.652  12.622  21.897  0.00  0.00    +0.000 A 
ATOM     22  C   UNL     1      -2.497  12.791  20.791  0.00  0.00    +0.000 A 
ENDBRANCH   1  21
BRANCH   6  23
ATOM     23  C   UNL     1       3.159  15.744  17.968  0.00  0.00    +0.000 C 
BRANCH  23  24
ATOM     24  C   UNL     1       4.656  15.853  18.184  0.00  0.00    +0.000 A 
ATOM     25  C   UNL     1       5.485  14.758  17.988  0.00  0.00    +0.000 A 
ATOM     26  C   UNL     1       6.852  14.889  18.267  0.00  0.00    +0.000 A 
ATOM     27  C   UNL     1       7.396  16.091  18.733  0.00  0.00    +0.000 A 
ATOM     28  C   UNL     1       6.462  17.120  18.881  0.00  0.00    +0.000 A 
ATOM     29  N   UNL     1       5.129  17.041  18.624  0.00  0.00    +0.000 NA
BRANCH  27  30
ATOM     30  N   UNL     1       8.736  16.226  19.015  0.00  0.00    +0.000 N 
ATOM     31  C   UNL     1       9.757  16.614  18.048  0.00  0.00    +0.000 C 
ATOM     32  C   UNL     1      11.009  15.908  18.553  0.00  0.00    +0.000 C 
ATOM     33  C   UNL     1      10.842  15.931  20.062  0.00  0.00    +0.000 C 
ATOM     34  C   UNL     1       9.335  15.779  20.271  0.00  0.00    +0.000 C 
ENDBRANCH  27  30
ENDBRANCH  23  24
ENDBRANCH   6  23
TORSDOF 4
ENDMDL
MODEL 4
REMARK VINA RESULT:      -7.3      4.849      7.917
REMARK  Name = 
REMARK  4 active torsions:
REMARK  status: ('A' for Active; 'I' for Inactive)
REMARK    1  A    between atoms: C_7  and  C_8
REMARK    2  A    between atoms: N_13  and  C_14
REMARK    3  A    between atoms: C_14  and  C_15
REMARK    4  A    between atoms: C_18  and  N_19
REMARK                            x       y       z     vdW  Elec       q    Type
REMARK                         _______ _______ _______ _____ _____    ______ ____
ROOT
ATOM      1  C   UNL     1      -0.125  12.346  21.653  0.00  0.00    +0.000 C 
ATOM      2  O   UNL     1       0.294  13.595  21.048  0.00  0.00    +0.000 OA
ATOM      3  C   UNL     1       1.145  13.346  19.892  0.00  0.00    +0.000 C 
ATOM      4  C   UNL     1       2.582  13.722  20.279  0.00  0.00    +0.000 C 
ATOM      5  C   UNL     1       2.744  15.238  20.383  0.00  0.00    +0.000 C 
ATOM      6  N   UNL     1       2.336  15.963  19.168  0.00  0.00    +0.000 NA
ATOM      7  C   UNL     1       0.918  15.677  18.894  0.00  0.00    +0.000 C 
ATOM      8  C   UNL     1       0.608  14.184  18.725  0.00  0.00    +0.000 C 
ATOM      9  C   UNL     1       1.010  11.870  19.650  0.00  0.00    +0.000 A 
ATOM     10  C   UNL     1       1.464  11.102  18.586  0.00  0.00    +0.000 A 
ATOM     11  C   UNL     1       1.174   9.730  18.586  0.00  0.00    +0.000 A 
ATOM     12  C   UNL     1       0.470   9.150  19.645  0.00  0.00    +0.000 A 
ATOM     13  C   UNL     1       0.035   9.927  20.717  0.00  0.00    +0.000 A 
ATOM     14  C   UNL     1       0.299  11.292  20.690  0.00  0.00    +0.000 A 
ENDROOT
BRANCH   1  21
ATOM     15 CL   UNL     1      -4.206  12.512  24.909  0.00  0.00    +0.000 Cl
ATOM     16  C   UNL     1      -3.549  12.539  23.318  0.00  0.00    +0.000 A 
ATOM     17  C   UNL     1      -4.397  12.715  22.224  0.00  0.00    +0.000 A 
ATOM     18  C   UNL     1      -3.857  12.737  20.945  0.00  0.00    +0.000 A 
ATOM     19 CL   UNL     1      -4.886  12.950  19.586  0.00  0.00    +0.000 Cl
ATOM     20  C   UNL     1      -2.486  12.598  20.756  0.00  0.00    +0.000 A 
ATOM     21  C   UNL     1      -1.620  12.434  21.853  0.00  0.00    +0.000 A 
ATOM     22  C   UNL     1      -2.170  12.392  23.143  0.00  0.00    +0.000 A 
ENDBRANCH   1  21
BRANCH   6  23
ATOM     23  C   UNL     1       3.175  15.659  17.988  0.00  0.00    +0.000 C 
BRANCH  23  24
ATOM     24  C   UNL     1       4.674  15.712  18.206  0.00  0.00    +0.000 A 
ATOM     25  C   UNL     1       5.286  16.868  18.667  0.00  0.00    +0.000 A 
ATOM     26  C   UNL     1       6.681  16.891  18.786  0.00  0.00    +0.000 A 
ATOM     27  C   UNL     1       7.466  15.781  18.455  0.00  0.00    +0.000 A 
ATOM     28  C   UNL     1       6.734  14.676  18.010  0.00  0.00    +0.000 A 
ATOM     29  N   UNL     1       5.383  14.607  17.879  0.00  0.00    +0.000 NA
BRANCH  27  30
ATOM     30  N   UNL     1       8.838  15.796  18.563  0.00  0.00    +0.000 N 
ATOM     31  C   UNL     1       9.656  17.002  18.633  0.00  0.00    +0.000 C 
ATOM     32  C   UNL     1      10.969  16.577  17.987  0.00  0.00    +0.000 C 
ATOM     33  C   UNL     1      11.103  15.119  18.389  0.00  0.00    +0.000 C 
ATOM     34  C   UNL     1       9.664  14.602  18.396  0.00  0.00    +0.000 C 
ENDBRANCH  27  30
ENDBRANCH  23  24
ENDBRANCH   6  23
TORSDOF 4
ENDMDL
MODEL 5
REMARK VINA RESULT:      -7.3      1.414      1.872
REMARK  Name = 
REMARK  4 active torsions:
REMARK  status: ('A' for Active; 'I' for Inactive)
REMARK    1  A    between atoms: C_7  and  C_8
REMARK    2  A    between atoms: N_13  and  C_14
REMARK    3  A    between atoms: C_14  and  C_15
REMARK    4  A    between atoms: C_18  and  N_19
REMARK                            x       y       z     vdW  Elec       q    Type
REMARK                         _______ _______ _______ _____ _____    ______ ____
ROOT
ATOM      1  C   UNL     1      -1.908  14.222  20.526  0.00  0.00    +0.000 C 
ATOM      2  O   UNL     1      -1.685  12.801  20.345  0.00  0.00    +0.000 OA
ATOM      3  C   UNL     1      -0.262  12.494  20.391  0.00  0.00    +0.000 C 
ATOM      4  C   UNL     1       0.191  12.158  18.963  0.00  0.00    +0.000 C 
ATOM      5  C   UNL     1      -0.342  10.795  18.524  0.00  0.00    +0.000 C 
ATOM      6  N   UNL     1       0.008   9.697  19.443  0.00  0.00    +0.000 NA
ATOM      7  C   UNL     1      -0.546   9.993  20.774  0.00  0.00    +0.000 C 
ATOM      8  C   UNL     1      -0.066  11.325  21.365  0.00  0.00    +0.000 C 
ATOM      9  C   UNL     1       0.371  13.764  20.882  0.00  0.00    +0.000 A 
ATOM     10  C   UNL     1       1.680  14.008  21.275  0.00  0.00    +0.000 A 
ATOM     11  C   UNL     1       2.008  15.293  21.729  0.00  0.00    +0.000 A 
ATOM     12  C   UNL     1       1.047  16.307  21.760  0.00  0.00    +0.000 A 
ATOM     13  C   UNL     1      -0.260  16.056  21.347  0.00  0.00    +0.000 A 
ATOM     14  C   UNL     1      -0.583  14.770  20.929  0.00  0.00    +0.000 A 
ENDROOT
BRANCH   1  21
ATOM     15 CL   UNL     1      -4.314  12.336  24.762  0.00  0.00    +0.000 Cl
ATOM     16  C   UNL     1      -4.119  13.552  23.558  0.00  0.00    +0.000 A 
ATOM     17  C   UNL     1      -4.908  14.701  23.605  0.00  0.00    +0.000 A 
ATOM     18  C   UNL     1      -4.743  15.677  22.631  0.00  0.00    +0.000 A 
ATOM     19 CL   UNL     1      -5.708  17.097  22.671  0.00  0.00    +0.000 Cl
ATOM     20  C   UNL     1      -3.793  15.517  21.627  0.00  0.00    +0.000 A 
ATOM     21  C   UNL     1      -2.983  14.368  21.579  0.00  0.00    +0.000 A 
ATOM     22  C   UNL     1      -3.165  13.374  22.552  0.00  0.00    +0.000 A 
ENDBRANCH   1  21
BRANCH   6  23
ATOM     23  C   UNL     1       1.461   9.433  19.522  0.00  0.00    +0.000 C 
BRANCH  23  24
ATOM     24  C   UNL     1       1.881   7.982  19.390  0.00  0.00    +0.000 A 
ATOM     25  C   UNL     1       2.404   7.497  18.201  0.00  0.00    +0.000 A 
ATOM     26  C   UNL     1       2.712   6.134  18.106  0.00  0.00    +0.000 A 
ATOM     27  C   UNL     1       2.508   5.257  19.177  0.00  0.00    +0.000 A 
ATOM     28  C   UNL     1       1.985   5.866  20.321  0.00  0.00    +0.000 A 
ATOM     29  N   UNL     1       1.672   7.182  20.460  0.00  0.00    +0.000 NA
BRANCH  27  30
ATOM     30  N   UNL     1       2.802   3.915  19.090  0.00  0.00    +0.000 N 
ATOM     31  C   UNL     1       3.355   3.111  20.175  0.00  0.00    +0.000 C 
ATOM     32  C   UNL     1       4.174   2.052  19.448  0.00  0.00    +0.000 C 
ATOM     33  C   UNL     1       3.384   1.809  18.174  0.00  0.00    +0.000 C 
ATOM     34  C   UNL     1       2.807   3.180  17.827  0.00  0.00    +0.000 C 
ENDBRANCH  27  30
ENDBRANCH  23  24
ENDBRANCH   6  23
TORSDOF 4
ENDMDL
MODEL 6
REMARK VINA RESULT:      -7.3      0.885      1.914
REMARK  Name = 
REMARK  4 active torsions:
REMARK  status: ('A' for Active; 'I' for Inactive)
REMARK    1  A    between atoms: C_7  and  C_8
REMARK    2  A    between atoms: N_13  and  C_14
REMARK    3  A    between atoms: C_14  and  C_15
REMARK    4  A    between atoms: C_18  and  N_19
REMARK                            x       y       z     vdW  Elec       q    Type
REMARK                         _______ _______ _______ _____ _____    ______ ____
ROOT
ATOM      1  C   UNL     1      -1.604  14.318  20.295  0.00  0.00    +0.000 C 
ATOM      2  O   UNL     1      -1.218  12.944  20.550  0.00  0.00    +0.000 OA
ATOM      3  C   UNL     1       0.002  12.610  19.828  0.00  0.00    +0.000 C 
ATOM      4  C   UNL     1      -0.380  11.678  18.669  0.00  0.00    +0.000 C 
ATOM      5  C   UNL     1      -0.752  10.287  19.182  0.00  0.00    +0.000 C 
ATOM      6  N   UNL     1       0.289   9.665  20.017  0.00  0.00    +0.000 NA
ATOM      7  C   UNL     1       0.545  10.525  21.184  0.00  0.00    +0.000 C 
ATOM      8  C   UNL     1       0.969  11.954  20.821  0.00  0.00    +0.000 C 
ATOM      9  C   UNL     1       0.503  13.933  19.325  0.00  0.00    +0.000 A 
ATOM     10  C   UNL     1       1.709  14.250  18.715  0.00  0.00    +0.000 A 
ATOM     11  C   UNL     1       1.946  15.587  18.367  0.00  0.00    +0.000 A 
ATOM     12  C   UNL     1       0.980  16.568  18.603  0.00  0.00    +0.000 A 
ATOM     13  C   UNL     1      -0.236  16.237  19.200  0.00  0.00    +0.000 A 
ATOM     14  C   UNL     1      -0.446  14.913  19.572  0.00  0.00    +0.000 A 
ENDROOT
BRANCH   1  21
ATOM     15 CL   UNL     1       0.161  16.826  24.523  0.00  0.00    +0.000 Cl
ATOM     16  C   UNL     1      -1.126  16.138  23.610  0.00  0.00    +0.000 A 
ATOM     17  C   UNL     1      -2.436  16.235  24.082  0.00  0.00    +0.000 A 
ATOM     18  C   UNL     1      -3.467  15.678  23.338  0.00  0.00    +0.000 A 
ATOM     19 CL   UNL     1      -5.085  15.785  23.905  0.00  0.00    +0.000 Cl
ATOM     20  C   UNL     1      -3.202  15.043  22.129  0.00  0.00    +0.000 A 
ATOM     21  C   UNL     1      -1.887  14.952  21.637  0.00  0.00    +0.000 A 
ATOM     22  C   UNL     1      -0.844  15.497  22.400  0.00  0.00    +0.000 A 
ENDBRANCH   1  21
BRANCH   6  23
ATOM     23  C   UNL     1       1.544   9.382  19.284  0.00  0.00    +0.000 C 
BRANCH  23  24
ATOM     24  C   UNL     1       1.956   7.924  19.211  0.00  0.00    +0.000 A 
ATOM     25  C   UNL     1       2.427   7.376  18.027  0.00  0.00    +0.000 A 
ATOM     26  C   UNL     1       2.729   6.009  17.990  0.00  0.00    +0.000 A 
ATOM     27  C   UNL     1       2.570   5.190  19.113  0.00  0.00    +0.000 A 
ATOM     28  C   UNL     1       2.097   5.859  20.245  0.00  0.00    +0.000 A 
ATOM     29  N   UNL     1       1.791   7.181  20.329  0.00  0.00    +0.000 NA
BRANCH  27  30
ATOM     30  N   UNL     1       2.859   3.845  19.084  0.00  0.00    +0.000 N 
ATOM     31  C   UNL     1       3.288   3.058  20.235  0.00  0.00    +0.000 C 
ATOM     32  C   UNL     1       4.168   1.978  19.619  0.00  0.00    +0.000 C 
ATOM     33  C   UNL     1       3.512   1.715  18.275  0.00  0.00    +0.000 C 
ATOM     34  C   UNL     1       2.987   3.084  17.842  0.00  0.00    +0.000 C 
ENDBRANCH  27  30
ENDBRANCH  23  24
ENDBRANCH   6  23
TORSDOF 4
ENDMDL
MODEL 7
REMARK VINA RESULT:      -7.3      2.061      3.050
REMARK  Name = 
REMARK  4 active torsions:
REMARK  status: ('A' for Active; 'I' for Inactive)
REMARK    1  A    between atoms: C_7  and  C_8
REMARK    2  A    between atoms: N_13  and  C_14
REMARK    3  A    between atoms: C_14  and  C_15
REMARK    4  A    between atoms: C_18  and  N_19
REMARK                            x       y       z     vdW  Elec       q    Type
REMARK                         _______ _______ _______ _____ _____    ______ ____
ROOT
ATOM      1  C   UNL     1      -3.557  12.524  20.551  0.00  0.00    +0.000 C 
ATOM      2  O   UNL     1      -2.127  12.287  20.539  0.00  0.00    +0.000 OA
ATOM      3  C   UNL     1      -1.731  11.587  19.325  0.00  0.00    +0.000 C 
ATOM      4  C   UNL     1      -1.381  10.142  19.711  0.00  0.00    +0.000 C 
ATOM      5  C   UNL     1      -0.057  10.083  20.473  0.00  0.00    +0.000 C 
ATOM      6  N   UNL     1       1.068  10.708  19.757  0.00  0.00    +0.000 NA
ATOM      7  C   UNL     1       0.751  12.124  19.509  0.00  0.00    +0.000 C 
ATOM      8  C   UNL     1      -0.543  12.340  18.714  0.00  0.00    +0.000 C 
ATOM      9  C   UNL     1      -2.954  11.640  18.456  0.00  0.00    +0.000 A 
ATOM     10  C   UNL     1      -3.112  11.280  17.125  0.00  0.00    +0.000 A 
ATOM     11  C   UNL     1      -4.370  11.462  16.532  0.00  0.00    +0.000 A 
ATOM     12  C   UNL     1      -5.441  11.968  17.273  0.00  0.00    +0.000 A 
ATOM     13  C   UNL     1      -5.277  12.310  18.614  0.00  0.00    +0.000 A 
ATOM     14  C   UNL     1      -4.017  12.156  19.183  0.00  0.00    +0.000 A 
ENDROOT
BRANCH   1  21
ATOM     15 CL   UNL     1      -6.636  16.284  22.463  0.00  0.00    +0.000 Cl
ATOM     16  C   UNL     1      -5.137  15.759  21.801  0.00  0.00    +0.000 A 
ATOM     17  C   UNL     1      -4.090  16.671  21.657  0.00  0.00    +0.000 A 
ATOM     18  C   UNL     1      -2.884  16.239  21.122  0.00  0.00    +0.000 A 
ATOM     19 CL   UNL     1      -1.585  17.347  20.935  0.00  0.00    +0.000 Cl
ATOM     20  C   UNL     1      -2.715  14.910  20.746  0.00  0.00    +0.000 A 
ATOM     21  C   UNL     1      -3.760  13.980  20.900  0.00  0.00    +0.000 A 
ATOM     22  C   UNL     1      -4.984  14.423  21.421  0.00  0.00    +0.000 A 
ENDBRANCH   1  21
BRANCH   6  23
ATOM     23  C   UNL     1       1.424  10.018  18.497  0.00  0.00    +0.000 C 
BRANCH  23  24
ATOM     24  C   UNL     1       2.030   8.636  18.644  0.00  0.00    +0.000 A 
ATOM     25  C   UNL     1       2.725   8.048  17.598  0.00  0.00    +0.000 A 
ATOM     26  C   UNL     1       3.207   6.743  17.757  0.00  0.00    +0.000 A 
ATOM     27  C   UNL     1       3.006   6.024  18.940  0.00  0.00    +0.000 A 
ATOM     28  C   UNL     1       2.299   6.726  19.921  0.00  0.00    +0.000 A 
ATOM     29  N   UNL     1       1.813   7.991  19.813  0.00  0.00    +0.000 NA
BRANCH  27  30
ATOM     30  N   UNL     1       3.470   4.739  19.104  0.00  0.00    +0.000 N 
ATOM     31  C   UNL     1       4.217   3.988  18.100  0.00  0.00    +0.000 C 
ATOM     32  C   UNL     1       3.829   2.541  18.380  0.00  0.00    +0.000 C 
ATOM     33  C   UNL     1       3.651   2.509  19.888  0.00  0.00    +0.000 C 
ATOM     34  C   UNL     1       3.076   3.885  20.223  0.00  0.00    +0.000 C 
ENDBRANCH  27  30
ENDBRANCH  23  24
ENDBRANCH   6  23
TORSDOF 4
ENDMDL
MODEL 8
REMARK VINA RESULT:      -7.3      4.923      7.902
REMARK  Name = 
REMARK  4 active torsions:
REMARK  status: ('A' for Active; 'I' for Inactive)
REMARK    1  A    between atoms: C_7  and  C_8
REMARK    2  A    between atoms: N_13  and  C_14
REMARK    3  A    between atoms: C_14  and  C_15
REMARK    4  A    between atoms: C_18  and  N_19
REMARK                            x       y       z     vdW  Elec       q    Type
REMARK                         _______ _______ _______ _____ _____    ______ ____
ROOT
ATOM      1  C   UNL     1      -0.076  12.441  21.626  0.00  0.00    +0.000 C 
ATOM      2  O   UNL     1       0.375  13.684  21.031  0.00  0.00    +0.000 OA
ATOM      3  C   UNL     1       1.227  13.424  19.879  0.00  0.00    +0.000 C 
ATOM      4  C   UNL     1       2.670  13.765  20.278  0.00  0.00    +0.000 C 
ATOM      5  C   UNL     1       2.866  15.276  20.393  0.00  0.00    +0.000 C 
ATOM      6  N   UNL     1       2.482  16.018  19.180  0.00  0.00    +0.000 NA
ATOM      7  C   UNL     1       1.060  15.765  18.894  0.00  0.00    +0.000 C 
ATOM      8  C   UNL     1       0.717  14.281  18.714  0.00  0.00    +0.000 C 
ATOM      9  C   UNL     1       1.062  11.953  19.626  0.00  0.00    +0.000 A 
ATOM     10  C   UNL     1       1.505  11.181  18.561  0.00  0.00    +0.000 A 
ATOM     11  C   UNL     1       1.185   9.817  18.550  0.00  0.00    +0.000 A 
ATOM     12  C   UNL     1       0.461   9.245  19.600  0.00  0.00    +0.000 A 
ATOM     13  C   UNL     1       0.037  10.025  20.675  0.00  0.00    +0.000 A 
ATOM     14  C   UNL     1       0.331  11.384  20.659  0.00  0.00    +0.000 A 
ENDROOT
BRANCH   1  21
ATOM     15 CL   UNL     1      -4.841  12.841  19.525  0.00  0.00    +0.000 Cl
ATOM     16  C   UNL     1      -3.806  12.724  20.895  0.00  0.00    +0.000 A 
ATOM     17  C   UNL     1      -4.360  12.667  22.175  0.00  0.00    +0.000 A 
ATOM     18  C   UNL     1      -3.518  12.571  23.274  0.00  0.00    +0.000 A 
ATOM     19 CL   UNL     1      -4.181  12.503  24.857  0.00  0.00    +0.000 Cl
ATOM     20  C   UNL     1      -2.138  12.519  23.103  0.00  0.00    +0.000 A 
ATOM     21  C   UNL     1      -1.570  12.561  21.816  0.00  0.00    +0.000 A 
ATOM     22  C   UNL     1      -2.422  12.679  20.708  0.00  0.00    +0.000 A 
ENDBRANCH   1  21
BRANCH   6  23
ATOM     23  C   UNL     1       3.321  15.703  18.003  0.00  0.00    +0.000 C 
BRANCH  23  24
ATOM     24  C   UNL     1       4.820  15.736  18.227  0.00  0.00    +0.000 A 
ATOM     25  C   UNL     1       5.441  16.872  18.723  0.00  0.00    +0.000 A 
ATOM     26  C   UNL     1       6.836  16.879  18.847  0.00  0.00    +0.000 A 
ATOM     27  C   UNL     1       7.612  15.771  18.488  0.00  0.00    +0.000 A 
ATOM     28  C   UNL     1       6.871  14.687  18.010  0.00  0.00    +0.000 A 
ATOM     29  N   UNL     1       5.519  14.634  17.872  0.00  0.00    +0.000 NA
BRANCH  27  30
ATOM     30  N   UNL     1       8.984  15.771  18.601  0.00  0.00    +0.000 N 
ATOM     31  C   UNL     1       9.787  16.916  19.015  0.00  0.00    +0.000 C 
ATOM     32  C   UNL     1      11.105  16.708  18.280  0.00  0.00    +0.000 C 
ATOM     33  C   UNL     1      11.256  15.197  18.248  0.00  0.00    +0.000 C 
ATOM     34  C   UNL     1       9.824  14.684  18.102  0.00  0.00    +0.000 C 
ENDBRANCH  27  30
ENDBRANCH  23  24
ENDBRANCH   6  23
TORSDOF 4
ENDMDL
MODEL 9
REMARK VINA RESULT:      -7.3      0.697      1.729
REMARK  Name = 
REMARK  4 active torsions:
REMARK  status: ('A' for Active; 'I' for Inactive)
REMARK    1  A    between atoms: C_7  and  C_8
REMARK    2  A    between atoms: N_13  and  C_14
REMARK    3  A    between atoms: C_14  and  C_15
REMARK    4  A    between atoms: C_18  and  N_19
REMARK                            x       y       z     vdW  Elec       q    Type
REMARK                         _______ _______ _______ _____ _____    ______ ____
ROOT
ATOM      1  C   UNL     1      -2.400  14.291  20.535  0.00  0.00    +0.000 C 
ATOM      2  O   UNL     1      -2.002  12.917  20.768  0.00  0.00    +0.000 OA
ATOM      3  C   UNL     1      -0.608  12.714  20.399  0.00  0.00    +0.000 C 
ATOM      4  C   UNL     1      -0.581  11.893  19.102  0.00  0.00    +0.000 C 
ATOM      5  C   UNL     1      -0.981  10.441  19.364  0.00  0.00    +0.000 C 
ATOM      6  N   UNL     1      -0.173   9.781  20.403  0.00  0.00    +0.000 NA
ATOM      7  C   UNL     1      -0.317  10.525  21.666  0.00  0.00    +0.000 C 
ATOM      8  C   UNL     1       0.087  12.002  21.566  0.00  0.00    +0.000 C 
ATOM      9  C   UNL     1      -0.083  14.104  20.179  0.00  0.00    +0.000 A 
ATOM     10  C   UNL     1       1.220  14.536  19.969  0.00  0.00    +0.000 A 
ATOM     11  C   UNL     1       1.447  15.911  19.821  0.00  0.00    +0.000 A 
ATOM     12  C   UNL     1       0.385  16.819  19.857  0.00  0.00    +0.000 A 
ATOM     13  C   UNL     1      -0.921  16.373  20.049  0.00  0.00    +0.000 A 
ATOM     14  C   UNL     1      -1.132  15.010  20.228  0.00  0.00    +0.000 A 
ENDROOT
BRANCH   1  21
ATOM     15 CL   UNL     1      -2.221  15.210  25.673  0.00  0.00    +0.000 Cl
ATOM     16  C   UNL     1      -3.057  15.237  24.169  0.00  0.00    +0.000 A 
ATOM     17  C   UNL     1      -4.346  15.767  24.105  0.00  0.00    +0.000 A 
ATOM     18  C   UNL     1      -5.012  15.785  22.887  0.00  0.00    +0.000 A 
ATOM     19 CL   UNL     1      -6.600  16.431  22.789  0.00  0.00    +0.000 Cl
ATOM     20  C   UNL     1      -4.397  15.293  21.740  0.00  0.00    +0.000 A 
ATOM     21  C   UNL     1      -3.092  14.768  21.791  0.00  0.00    +0.000 A 
ATOM     22  C   UNL     1      -2.429  14.732  23.026  0.00  0.00    +0.000 A 
ENDBRANCH   1  21
BRANCH   6  23
ATOM     23  C   UNL     1       1.254   9.632  20.038  0.00  0.00    +0.000 C 
BRANCH  23  24
ATOM     24  C   UNL     1       1.706   8.229  19.684  0.00  0.00    +0.000 A 
ATOM     25  C   UNL     1       2.175   7.931  18.414  0.00  0.00    +0.000 A 
ATOM     26  C   UNL     1       2.516   6.606  18.114  0.00  0.00    +0.000 A 
ATOM     27  C   UNL     1       2.397   5.584  19.062  0.00  0.00    +0.000 A 
ATOM     28  C   UNL     1       1.921   6.010  20.305  0.00  0.00    +0.000 A 
ATOM     29  N   UNL     1       1.579   7.282  20.642  0.00  0.00    +0.000 NA
BRANCH  27  30
ATOM     30  N   UNL     1       2.724   4.278  18.775  0.00  0.00    +0.000 N 
ATOM     31  C   UNL     1       4.072   3.724  18.826  0.00  0.00    +0.000 C 
ATOM     32  C   UNL     1       4.047   2.630  17.767  0.00  0.00    +0.000 C 
ATOM     33  C   UNL     1       2.625   2.102  17.840  0.00  0.00    +0.000 C 
ATOM     34  C   UNL     1       1.786   3.338  18.163  0.00  0.00    +0.000 C 
ENDBRANCH  27  30
ENDBRANCH  23  24
ENDBRANCH   6  23
TORSDOF 4
ENDMDL
