MODEL 1
REMARK VINA RESULT:      -8.1      0.000      0.000
REMARK  Name = 
REMARK  4 active torsions:
REMARK  status: ('A' for Active; 'I' for Inactive)
REMARK    1  A    between atoms: C_2  and  C_16
REMARK    2  A    between atoms: N_3  and  C_4
REMARK    3  A    between atoms: C_7  and  N_8
REMARK    4  A    between atoms: C_19  and  C_20
REMARK                            x       y       z     vdW  Elec       q    Type
REMARK                         _______ _______ _______ _____ _____    ______ ____
ROOT
ATOM      1  O   UNL     1       2.223   5.385  18.292  0.00  0.00    +0.000 OA
ATOM      2  C   UNL     1       3.210   6.068  18.013  0.00  0.00    +0.000 C 
ATOM      3  N   UNL     1       3.266   7.450  18.167  0.00  0.00    +0.000 N 
ATOM      4  H   UNL     1       4.052   7.922  17.739  0.00  0.00    +0.000 HD
ENDROOT
BRANCH   3   5
ATOM      5  C   UNL     1       2.213   8.240  18.701  0.00  0.00    +0.000 A 
ATOM      6  C   UNL     1       1.510   9.171  17.938  0.00  0.00    +0.000 A 
ATOM      7  C   UNL     1       0.528   9.991  18.509  0.00  0.00    +0.000 A 
ATOM      8  C   UNL     1       0.191   9.908  19.862  0.00  0.00    +0.000 A 
ATOM      9  C   UNL     1       0.868   8.933  20.610  0.00  0.00    +0.000 A 
ATOM     10  C   UNL     1       1.859   8.102  20.043  0.00  0.00    +0.000 A 
BRANCH   8  11
ATOM     11  N   UNL     1      -0.777  10.734  20.394  0.00  0.00    +0.000 N 
ATOM     12  C   UNL     1      -0.827  11.093  21.816  0.00  0.00    +0.000 C 
ATOM     13  C   UNL     1      -0.594  12.606  22.004  0.00  0.00    +0.000 C 
ATOM     14  N   UNL     1      -1.522  13.439  21.212  0.00  0.00    +0.000 NA
ATOM     15  C   UNL     1      -1.419  13.058  19.789  0.00  0.00    +0.000 C 
ATOM     16  C   UNL     1      -1.650  11.548  19.526  0.00  0.00    +0.000 C 
ATOM     17  H   UNL     1      -1.259  14.419  21.314  0.00  0.00    +0.000 HD
ENDBRANCH   8  11
ENDBRANCH   3   5
BRANCH   2  18
ATOM     18  C   UNL     1       4.375   5.423  17.437  0.00  0.00    +0.000 A 
ATOM     19  C   UNL     1       5.449   4.872  18.112  0.00  0.00    +0.000 A 
ATOM     20  C   UNL     1       6.360   4.420  17.143  0.00  0.00    +0.000 A 
ATOM     21  C   UNL     1       5.804   4.707  15.912  0.00  0.00    +0.000 A 
ATOM     22  O   UNL     1       4.575   5.305  16.086  0.00  0.00    +0.000 OA
BRANCH  21  23
ATOM     23  C   UNL     1       6.267   4.501  14.540  0.00  0.00    +0.000 A 
ATOM     24  C   UNL     1       7.354   5.243  14.038  0.00  0.00    +0.000 A 
ATOM     25  C   UNL     1       7.820   5.051  12.734  0.00  0.00    +0.000 A 
ATOM     26  C   UNL     1       7.204   4.114  11.910  0.00  0.00    +0.000 A 
ATOM     27  C   UNL     1       6.124   3.379  12.394  0.00  0.00    +0.000 A 
ATOM     28 CL   UNL     1       5.365   2.215  11.379  0.00  0.00    +0.000 Cl
ATOM     29  C   UNL     1       5.654   3.569  13.695  0.00  0.00    +0.000 A 
ENDBRANCH  21  23
ENDBRANCH   2  18
TORSDOF 4
ENDMDL
MODEL 2
REMARK VINA RESULT:      -8.0      2.339      3.615
REMARK  Name = 
REMARK  4 active torsions:
REMARK  status: ('A' for Active; 'I' for Inactive)
REMARK    1  A    between atoms: C_2  and  C_16
REMARK    2  A    between atoms: N_3  and  C_4
REMARK    3  A    between atoms: C_7  and  N_8
REMARK    4  A    between atoms: C_19  and  C_20
REMARK                            x       y       z     vdW  Elec       q    Type
REMARK                         _______ _______ _______ _____ _____    ______ ____
ROOT
ATOM      1  O   UNL     1       1.452   8.704  18.984  0.00  0.00    +0.000 OA
ATOM      2  C   UNL     1       1.692   7.943  19.922  0.00  0.00    +0.000 C 
ATOM      3  N   UNL     1       1.325   8.196  21.240  0.00  0.00    +0.000 N 
ATOM      4  H   UNL     1       1.731   7.596  21.947  0.00  0.00    +0.000 HD
ENDROOT
BRANCH   3   5
ATOM      5  C   UNL     1       0.595   9.339  21.663  0.00  0.00    +0.000 A 
ATOM      6  C   UNL     1       0.781  10.602  21.101  0.00  0.00    +0.000 A 
ATOM      7  C   UNL     1       0.103  11.726  21.589  0.00  0.00    +0.000 A 
ATOM      8  C   UNL     1      -0.804  11.639  22.648  0.00  0.00    +0.000 A 
ATOM      9  C   UNL     1      -1.024  10.357  23.173  0.00  0.00    +0.000 A 
ATOM     10  C   UNL     1      -0.344   9.218  22.687  0.00  0.00    +0.000 A 
BRANCH   8  11
ATOM     11  N   UNL     1      -1.452  12.767  23.108  0.00  0.00    +0.000 N 
ATOM     12  C   UNL     1      -0.875  14.113  23.014  0.00  0.00    +0.000 C 
ATOM     13  C   UNL     1      -1.722  15.004  22.082  0.00  0.00    +0.000 C 
ATOM     14  N   UNL     1      -3.145  15.062  22.470  0.00  0.00    +0.000 NA
ATOM     15  C   UNL     1      -3.686  13.689  22.529  0.00  0.00    +0.000 C 
ATOM     16  C   UNL     1      -2.886  12.739  23.455  0.00  0.00    +0.000 C 
ATOM     17  H   UNL     1      -3.660  15.593  21.768  0.00  0.00    +0.000 HD
ENDBRANCH   8  11
ENDBRANCH   3   5
BRANCH   2  18
ATOM     18  C   UNL     1       2.449   6.731  19.671  0.00  0.00    +0.000 A 
ATOM     19  C   UNL     1       2.329   5.517  20.324  0.00  0.00    +0.000 A 
ATOM     20  C   UNL     1       3.305   4.660  19.788  0.00  0.00    +0.000 A 
ATOM     21  C   UNL     1       3.979   5.383  18.823  0.00  0.00    +0.000 A 
ATOM     22  O   UNL     1       3.444   6.649  18.734  0.00  0.00    +0.000 OA
BRANCH  21  23
ATOM     23  C   UNL     1       5.096   5.056  17.937  0.00  0.00    +0.000 A 
ATOM     24  C   UNL     1       6.411   5.004  18.440  0.00  0.00    +0.000 A 
ATOM     25  C   UNL     1       7.489   4.681  17.613  0.00  0.00    +0.000 A 
ATOM     26  C   UNL     1       7.271   4.406  16.266  0.00  0.00    +0.000 A 
ATOM     27  C   UNL     1       5.976   4.461  15.756  0.00  0.00    +0.000 A 
ATOM     28 CL   UNL     1       5.702   4.115  14.092  0.00  0.00    +0.000 Cl
ATOM     29  C   UNL     1       4.895   4.785  16.579  0.00  0.00    +0.000 A 
ENDBRANCH  21  23
ENDBRANCH   2  18
TORSDOF 4
ENDMDL
MODEL 3
REMARK VINA RESULT:      -7.9      4.723     11.355
REMARK  Name = 
REMARK  4 active torsions:
REMARK  status: ('A' for Active; 'I' for Inactive)
REMARK    1  A    between atoms: C_2  and  C_16
REMARK    2  A    between atoms: N_3  and  C_4
REMARK    3  A    between atoms: C_7  and  N_8
REMARK    4  A    between atoms: C_19  and  C_20
REMARK                            x       y       z     vdW  Elec       q    Type
REMARK                         _______ _______ _______ _____ _____    ______ ____
ROOT
ATOM      1  O   UNL     1       1.421   8.819  21.399  0.00  0.00    +0.000 OA
ATOM      2  C   UNL     1       0.921   9.259  20.363  0.00  0.00    +0.000 C 
ATOM      3  N   UNL     1       1.277   8.832  19.087  0.00  0.00    +0.000 N 
ATOM      4  H   UNL     1       0.936   9.386  18.312  0.00  0.00    +0.000 HD
ENDROOT
BRANCH   3   5
ATOM      5  C   UNL     1       2.230   7.812  18.820  0.00  0.00    +0.000 A 
ATOM      6  C   UNL     1       2.356   6.674  19.616  0.00  0.00    +0.000 A 
ATOM      7  C   UNL     1       3.354   5.721  19.374  0.00  0.00    +0.000 A 
ATOM      8  C   UNL     1       4.260   5.852  18.319  0.00  0.00    +0.000 A 
ATOM      9  C   UNL     1       4.093   6.973  17.493  0.00  0.00    +0.000 A 
ATOM     10  C   UNL     1       3.089   7.939  17.730  0.00  0.00    +0.000 A 
BRANCH   8  11
ATOM     11  N   UNL     1       5.235   4.898  18.112  0.00  0.00    +0.000 N 
ATOM     12  C   UNL     1       5.321   4.097  16.886  0.00  0.00    +0.000 C 
ATOM     13  C   UNL     1       6.621   4.412  16.119  0.00  0.00    +0.000 C 
ATOM     14  N   UNL     1       7.835   4.253  16.944  0.00  0.00    +0.000 NA
ATOM     15  C   UNL     1       7.713   5.093  18.152  0.00  0.00    +0.000 C 
ATOM     16  C   UNL     1       6.428   4.822  18.976  0.00  0.00    +0.000 C 
ATOM     17  H   UNL     1       8.646   4.558  16.406  0.00  0.00    +0.000 HD
ENDBRANCH   8  11
ENDBRANCH   3   5
BRANCH   2  18
ATOM     18  C   UNL     1      -0.062  10.323  20.450  0.00  0.00    +0.000 A 
ATOM     19  C   UNL     1      -0.664  10.996  19.402  0.00  0.00    +0.000 A 
ATOM     20  C   UNL     1      -1.494  11.980  19.964  0.00  0.00    +0.000 A 
ATOM     21  C   UNL     1      -1.373  11.864  21.335  0.00  0.00    +0.000 A 
ATOM     22  O   UNL     1      -0.508  10.835  21.639  0.00  0.00    +0.000 OA
BRANCH  21  23
ATOM     23  C   UNL     1      -1.962  12.604  22.451  0.00  0.00    +0.000 A 
ATOM     24  C   UNL     1      -1.227  13.612  23.104  0.00  0.00    +0.000 A 
ATOM     25  C   UNL     1      -1.779  14.338  24.163  0.00  0.00    +0.000 A 
ATOM     26  C   UNL     1      -3.076  14.066  24.587  0.00  0.00    +0.000 A 
ATOM     27  C   UNL     1      -3.811  13.068  23.953  0.00  0.00    +0.000 A 
ATOM     28 CL   UNL     1      -5.417  12.734  24.471  0.00  0.00    +0.000 Cl
ATOM     29  C   UNL     1      -3.263  12.338  22.896  0.00  0.00    +0.000 A 
ENDBRANCH  21  23
ENDBRANCH   2  18
TORSDOF 4
ENDMDL
MODEL 4
REMARK VINA RESULT:      -7.8      4.257      6.012
REMARK  Name = 
REMARK  4 active torsions:
REMARK  status: ('A' for Active; 'I' for Inactive)
REMARK    1  A    between atoms: C_2  and  C_16
REMARK    2  A    between atoms: N_3  and  C_4
REMARK    3  A    between atoms: C_7  and  N_8
REMARK    4  A    between atoms: C_19  and  C_20
REMARK                            x       y       z     vdW  Elec       q    Type
REMARK                         _______ _______ _______ _____ _____    ______ ____
ROOT
ATOM      1  O   UNL     1      -0.230  10.250  18.762  0.00  0.00    +0.000 OA
ATOM      2  C   UNL     1       0.720   9.903  19.465  0.00  0.00    +0.000 C 
ATOM      3  N   UNL     1       1.044  10.496  20.681  0.00  0.00    +0.000 N 
ATOM      4  H   UNL     1       1.943  10.254  21.078  0.00  0.00    +0.000 HD
ENDROOT
BRANCH   3   5
ATOM      5  C   UNL     1       0.299  11.545  21.284  0.00  0.00    +0.000 A 
ATOM      6  C   UNL     1       0.495  12.888  20.964  0.00  0.00    +0.000 A 
ATOM      7  C   UNL     1      -0.200  13.906  21.629  0.00  0.00    +0.000 A 
ATOM      8  C   UNL     1      -1.133  13.631  22.631  0.00  0.00    +0.000 A 
ATOM      9  C   UNL     1      -1.361  12.275  22.911  0.00  0.00    +0.000 A 
ATOM     10  C   UNL     1      -0.665  11.242  22.245  0.00  0.00    +0.000 A 
BRANCH   8  11
ATOM     11  N   UNL     1      -1.796  14.658  23.270  0.00  0.00    +0.000 N 
ATOM     12  C   UNL     1      -3.033  15.254  22.753  0.00  0.00    +0.000 C 
ATOM     13  C   UNL     1      -4.209  14.992  23.716  0.00  0.00    +0.000 C 
ATOM     14  N   UNL     1      -3.940  15.440  25.097  0.00  0.00    +0.000 NA
ATOM     15  C   UNL     1      -2.702  14.797  25.581  0.00  0.00    +0.000 C 
ATOM     16  C   UNL     1      -1.475  15.028  24.663  0.00  0.00    +0.000 C 
ATOM     17  H   UNL     1      -4.717  15.160  25.695  0.00  0.00    +0.000 HD
ENDBRANCH   8  11
ENDBRANCH   3   5
BRANCH   2  18
ATOM     18  C   UNL     1       1.601   8.852  18.991  0.00  0.00    +0.000 A 
ATOM     19  C   UNL     1       2.358   8.851  17.833  0.00  0.00    +0.000 A 
ATOM     20  C   UNL     1       3.001   7.603  17.759  0.00  0.00    +0.000 A 
ATOM     21  C   UNL     1       2.616   6.893  18.880  0.00  0.00    +0.000 A 
ATOM     22  O   UNL     1       1.771   7.663  19.650  0.00  0.00    +0.000 OA
BRANCH  21  23
ATOM     23  C   UNL     1       2.929   5.547  19.358  0.00  0.00    +0.000 A 
ATOM     24  C   UNL     1       4.135   4.923  18.988  0.00  0.00    +0.000 A 
ATOM     25  C   UNL     1       4.457   3.642  19.445  0.00  0.00    +0.000 A 
ATOM     26  C   UNL     1       3.575   2.964  20.281  0.00  0.00    +0.000 A 
ATOM     27  C   UNL     1       2.376   3.568  20.649  0.00  0.00    +0.000 A 
ATOM     28 CL   UNL     1       1.286   2.734  21.687  0.00  0.00    +0.000 Cl
ATOM     29  C   UNL     1       2.049   4.847  20.192  0.00  0.00    +0.000 A 
ENDBRANCH  21  23
ENDBRANCH   2  18
TORSDOF 4
ENDMDL
MODEL 5
REMARK VINA RESULT:      -7.8      4.535     10.559
REMARK  Name = 
REMARK  4 active torsions:
REMARK  status: ('A' for Active; 'I' for Inactive)
REMARK    1  A    between atoms: C_2  and  C_16
REMARK    2  A    between atoms: N_3  and  C_4
REMARK    3  A    between atoms: C_7  and  N_8
REMARK    4  A    between atoms: C_19  and  C_20
REMARK                            x       y       z     vdW  Elec       q    Type
REMARK                         _______ _______ _______ _____ _____    ______ ____
ROOT
ATOM      1  O   UNL     1       2.240  10.733  18.110  0.00  0.00    +0.000 OA
ATOM      2  C   UNL     1       1.287  10.229  18.706  0.00  0.00    +0.000 C 
ATOM      3  N   UNL     1       1.207   8.881  19.041  0.00  0.00    +0.000 N 
ATOM      4  H   UNL     1       0.308   8.546  19.363  0.00  0.00    +0.000 HD
ENDROOT
BRANCH   3   5
ATOM      5  C   UNL     1       2.227   7.927  18.777  0.00  0.00    +0.000 A 
ATOM      6  C   UNL     1       3.040   7.989  17.646  0.00  0.00    +0.000 A 
ATOM      7  C   UNL     1       3.986   6.994  17.372  0.00  0.00    +0.000 A 
ATOM      8  C   UNL     1       4.178   5.902  18.222  0.00  0.00    +0.000 A 
ATOM      9  C   UNL     1       3.392   5.876  19.384  0.00  0.00    +0.000 A 
ATOM     10  C   UNL     1       2.435   6.875  19.668  0.00  0.00    +0.000 A 
BRANCH   8  11
ATOM     11  N   UNL     1       5.115   4.936  17.920  0.00  0.00    +0.000 N 
ATOM     12  C   UNL     1       5.214   4.304  16.599  0.00  0.00    +0.000 C 
ATOM     13  C   UNL     1       6.557   4.654  15.927  0.00  0.00    +0.000 C 
ATOM     14  N   UNL     1       7.728   4.323  16.763  0.00  0.00    +0.000 NA
ATOM     15  C   UNL     1       7.596   4.998  18.069  0.00  0.00    +0.000 C 
ATOM     16  C   UNL     1       6.268   4.684  18.805  0.00  0.00    +0.000 C 
ATOM     17  H   UNL     1       8.573   4.657  16.299  0.00  0.00    +0.000 HD
ENDBRANCH   8  11
ENDBRANCH   3   5
BRANCH   2  18
ATOM     18  C   UNL     1       0.144  11.058  19.040  0.00  0.00    +0.000 A 
ATOM     19  C   UNL     1       0.084  12.060  19.991  0.00  0.00    +0.000 A 
ATOM     20  C   UNL     1      -1.237  12.541  20.004  0.00  0.00    +0.000 A 
ATOM     21  C   UNL     1      -1.931  11.817  19.054  0.00  0.00    +0.000 A 
ATOM     22  O   UNL     1      -1.083  10.917  18.445  0.00  0.00    +0.000 OA
BRANCH  21  23
ATOM     23  C   UNL     1      -3.325  11.836  18.614  0.00  0.00    +0.000 A 
ATOM     24  C   UNL     1      -3.666  11.425  17.311  0.00  0.00    +0.000 A 
ATOM     25  C   UNL     1      -4.994  11.424  16.876  0.00  0.00    +0.000 A 
ATOM     26  C   UNL     1      -6.005  11.835  17.740  0.00  0.00    +0.000 A 
ATOM     27  C   UNL     1      -5.680  12.249  19.029  0.00  0.00    +0.000 A 
ATOM     28 CL   UNL     1      -6.929  12.753  20.101  0.00  0.00    +0.000 Cl
ATOM     29  C   UNL     1      -4.354  12.254  19.467  0.00  0.00    +0.000 A 
ENDBRANCH  21  23
ENDBRANCH   2  18
TORSDOF 4
ENDMDL
MODEL 6
REMARK VINA RESULT:      -7.8      3.268      5.673
REMARK  Name = 
REMARK  4 active torsions:
REMARK  status: ('A' for Active; 'I' for Inactive)
REMARK    1  A    between atoms: C_2  and  C_16
REMARK    2  A    between atoms: N_3  and  C_4
REMARK    3  A    between atoms: C_7  and  N_8
REMARK    4  A    between atoms: C_19  and  C_20
REMARK                            x       y       z     vdW  Elec       q    Type
REMARK                         _______ _______ _______ _____ _____    ______ ____
ROOT
ATOM      1  O   UNL     1      -0.129   8.744  21.255  0.00  0.00    +0.000 OA
ATOM      2  C   UNL     1       0.321   9.502  20.395  0.00  0.00    +0.000 C 
ATOM      3  N   UNL     1      -0.040  10.840  20.275  0.00  0.00    +0.000 N 
ATOM      4  H   UNL     1       0.251  11.314  19.429  0.00  0.00    +0.000 HD
ENDROOT
BRANCH   3   5
ATOM      5  C   UNL     1      -0.939  11.510  21.148  0.00  0.00    +0.000 A 
ATOM      6  C   UNL     1      -0.783  11.507  22.534  0.00  0.00    +0.000 A 
ATOM      7  C   UNL     1      -1.726  12.111  23.375  0.00  0.00    +0.000 A 
ATOM      8  C   UNL     1      -2.857  12.760  22.873  0.00  0.00    +0.000 A 
ATOM      9  C   UNL     1      -2.977  12.803  21.476  0.00  0.00    +0.000 A 
ATOM     10  C   UNL     1      -2.032  12.196  20.620  0.00  0.00    +0.000 A 
BRANCH   8  11
ATOM     11  N   UNL     1      -3.768  13.340  23.730  0.00  0.00    +0.000 N 
ATOM     12  C   UNL     1      -4.150  14.755  23.652  0.00  0.00    +0.000 C 
ATOM     13  C   UNL     1      -5.641  14.897  23.282  0.00  0.00    +0.000 C 
ATOM     14  N   UNL     1      -6.538  14.154  24.190  0.00  0.00    +0.000 NA
ATOM     15  C   UNL     1      -6.129  12.736  24.218  0.00  0.00    +0.000 C 
ATOM     16  C   UNL     1      -4.641  12.518  24.591  0.00  0.00    +0.000 C 
ATOM     17  H   UNL     1      -7.493  14.219  23.841  0.00  0.00    +0.000 HD
ENDBRANCH   8  11
ENDBRANCH   3   5
BRANCH   2  18
ATOM     18  C   UNL     1       1.243   8.978  19.405  0.00  0.00    +0.000 A 
ATOM     19  C   UNL     1       1.749   9.636  18.299  0.00  0.00    +0.000 A 
ATOM     20  C   UNL     1       2.549   8.716  17.599  0.00  0.00    +0.000 A 
ATOM     21  C   UNL     1       2.506   7.533  18.311  0.00  0.00    +0.000 A 
ATOM     22  O   UNL     1       1.720   7.694  19.431  0.00  0.00    +0.000 OA
BRANCH  21  23
ATOM     23  C   UNL     1       3.109   6.219  18.091  0.00  0.00    +0.000 A 
ATOM     24  C   UNL     1       2.297   5.078  17.951  0.00  0.00    +0.000 A 
ATOM     25  C   UNL     1       2.854   3.816  17.726  0.00  0.00    +0.000 A 
ATOM     26  C   UNL     1       4.236   3.675  17.640  0.00  0.00    +0.000 A 
ATOM     27  C   UNL     1       5.050   4.796  17.783  0.00  0.00    +0.000 A 
ATOM     28 CL   UNL     1       6.759   4.626  17.671  0.00  0.00    +0.000 Cl
ATOM     29  C   UNL     1       4.498   6.058  18.010  0.00  0.00    +0.000 A 
ENDBRANCH  21  23
ENDBRANCH   2  18
TORSDOF 4
ENDMDL
MODEL 7
REMARK VINA RESULT:      -7.7      2.440      4.045
REMARK  Name = 
REMARK  4 active torsions:
REMARK  status: ('A' for Active; 'I' for Inactive)
REMARK    1  A    between atoms: C_2  and  C_16
REMARK    2  A    between atoms: N_3  and  C_4
REMARK    3  A    between atoms: C_7  and  N_8
REMARK    4  A    between atoms: C_19  and  C_20
REMARK                            x       y       z     vdW  Elec       q    Type
REMARK                         _______ _______ _______ _____ _____    ______ ____
ROOT
ATOM      1  O   UNL     1       1.405   8.956  19.003  0.00  0.00    +0.000 OA
ATOM      2  C   UNL     1       1.515   8.195  19.965  0.00  0.00    +0.000 C 
ATOM      3  N   UNL     1       0.992   8.459  21.227  0.00  0.00    +0.000 N 
ATOM      4  H   UNL     1       1.297   7.854  21.980  0.00  0.00    +0.000 HD
ENDROOT
BRANCH   3   5
ATOM      5  C   UNL     1       0.233   9.614  21.555  0.00  0.00    +0.000 A 
ATOM      6  C   UNL     1       0.179  10.737  20.730  0.00  0.00    +0.000 A 
ATOM      7  C   UNL     1      -0.516  11.892  21.113  0.00  0.00    +0.000 A 
ATOM      8  C   UNL     1      -1.201  11.973  22.328  0.00  0.00    +0.000 A 
ATOM      9  C   UNL     1      -1.184  10.820  23.127  0.00  0.00    +0.000 A 
ATOM     10  C   UNL     1      -0.486   9.652  22.748  0.00  0.00    +0.000 A 
BRANCH   8  11
ATOM     11  N   UNL     1      -1.871  13.127  22.677  0.00  0.00    +0.000 N 
ATOM     12  C   UNL     1      -3.315  13.165  22.937  0.00  0.00    +0.000 C 
ATOM     13  C   UNL     1      -3.594  13.532  24.409  0.00  0.00    +0.000 C 
ATOM     14  N   UNL     1      -2.945  14.791  24.827  0.00  0.00    +0.000 NA
ATOM     15  C   UNL     1      -1.495  14.696  24.568  0.00  0.00    +0.000 C 
ATOM     16  C   UNL     1      -1.141  14.337  23.102  0.00  0.00    +0.000 C 
ATOM     17  H   UNL     1      -3.098  14.929  25.825  0.00  0.00    +0.000 HD
ENDBRANCH   8  11
ENDBRANCH   3   5
BRANCH   2  18
ATOM     18  C   UNL     1       2.277   6.970  19.812  0.00  0.00    +0.000 A 
ATOM     19  C   UNL     1       2.078   5.770  20.470  0.00  0.00    +0.000 A 
ATOM     20  C   UNL     1       3.092   4.893  20.049  0.00  0.00    +0.000 A 
ATOM     21  C   UNL     1       3.868   5.590  19.144  0.00  0.00    +0.000 A 
ATOM     22  O   UNL     1       3.361   6.861  18.980  0.00  0.00    +0.000 OA
BRANCH  21  23
ATOM     23  C   UNL     1       5.063   5.236  18.381  0.00  0.00    +0.000 A 
ATOM     24  C   UNL     1       6.341   5.369  18.958  0.00  0.00    +0.000 A 
ATOM     25  C   UNL     1       7.495   5.023  18.249  0.00  0.00    +0.000 A 
ATOM     26  C   UNL     1       7.389   4.538  16.948  0.00  0.00    +0.000 A 
ATOM     27  C   UNL     1       6.131   4.408  16.365  0.00  0.00    +0.000 A 
ATOM     28 CL   UNL     1       5.996   3.803  14.759  0.00  0.00    +0.000 Cl
ATOM     29  C   UNL     1       4.976   4.755  17.069  0.00  0.00    +0.000 A 
ENDBRANCH  21  23
ENDBRANCH   2  18
TORSDOF 4
ENDMDL
MODEL 8
REMARK VINA RESULT:      -7.7      3.764      4.910
REMARK  Name = 
REMARK  4 active torsions:
REMARK  status: ('A' for Active; 'I' for Inactive)
REMARK    1  A    between atoms: C_2  and  C_16
REMARK    2  A    between atoms: N_3  and  C_4
REMARK    3  A    between atoms: C_7  and  N_8
REMARK    4  A    between atoms: C_19  and  C_20
REMARK                            x       y       z     vdW  Elec       q    Type
REMARK                         _______ _______ _______ _____ _____    ______ ____
ROOT
ATOM      1  O   UNL     1       0.797   9.662  18.379  0.00  0.00    +0.000 OA
ATOM      2  C   UNL     1       1.376   8.906  19.160  0.00  0.00    +0.000 C 
ATOM      3  N   UNL     1       1.277   8.997  20.544  0.00  0.00    +0.000 N 
ATOM      4  H   UNL     1       1.933   8.445  21.083  0.00  0.00    +0.000 HD
ENDROOT
BRANCH   3   5
ATOM      5  C   UNL     1       0.469   9.943  21.230  0.00  0.00    +0.000 A 
ATOM      6  C   UNL     1       0.387  11.281  20.846  0.00  0.00    +0.000 A 
ATOM      7  C   UNL     1      -0.357  12.209  21.585  0.00  0.00    +0.000 A 
ATOM      8  C   UNL     1      -1.068  11.842  22.730  0.00  0.00    +0.000 A 
ATOM      9  C   UNL     1      -1.022  10.484  23.079  0.00  0.00    +0.000 A 
ATOM     10  C   UNL     1      -0.273   9.542  22.340  0.00  0.00    +0.000 A 
BRANCH   8  11
ATOM     11  N   UNL     1      -1.787  12.782  23.438  0.00  0.00    +0.000 N 
ATOM     12  C   UNL     1      -1.313  14.154  23.654  0.00  0.00    +0.000 C 
ATOM     13  C   UNL     1      -2.241  15.167  22.954  0.00  0.00    +0.000 C 
ATOM     14  N   UNL     1      -3.658  15.026  23.348  0.00  0.00    +0.000 NA
ATOM     15  C   UNL     1      -4.095  13.639  23.091  0.00  0.00    +0.000 C 
ATOM     16  C   UNL     1      -3.208  12.566  23.773  0.00  0.00    +0.000 C 
ATOM     17  H   UNL     1      -4.224  15.663  22.788  0.00  0.00    +0.000 HD
ENDBRANCH   8  11
ENDBRANCH   3   5
BRANCH   2  18
ATOM     18  C   UNL     1       2.261   7.886  18.629  0.00  0.00    +0.000 A 
ATOM     19  C   UNL     1       3.288   8.057  17.719  0.00  0.00    +0.000 A 
ATOM     20  C   UNL     1       3.824   6.785  17.455  0.00  0.00    +0.000 A 
ATOM     21  C   UNL     1       3.107   5.887  18.220  0.00  0.00    +0.000 A 
ATOM     22  O   UNL     1       2.158   6.559  18.958  0.00  0.00    +0.000 OA
BRANCH  21  23
ATOM     23  C   UNL     1       3.175   4.434  18.369  0.00  0.00    +0.000 A 
ATOM     24  C   UNL     1       2.505   3.593  17.460  0.00  0.00    +0.000 A 
ATOM     25  C   UNL     1       2.569   2.202  17.578  0.00  0.00    +0.000 A 
ATOM     26  C   UNL     1       3.304   1.628  18.611  0.00  0.00    +0.000 A 
ATOM     27  C   UNL     1       3.966   2.449  19.521  0.00  0.00    +0.000 A 
ATOM     28 CL   UNL     1       4.881   1.743  20.796  0.00  0.00    +0.000 Cl
ATOM     29  C   UNL     1       3.903   3.840  19.407  0.00  0.00    +0.000 A 
ENDBRANCH  21  23
ENDBRANCH   2  18
TORSDOF 4
ENDMDL
MODEL 9
REMARK VINA RESULT:      -7.7      7.045      8.629
REMARK  Name = 
REMARK  4 active torsions:
REMARK  status: ('A' for Active; 'I' for Inactive)
REMARK    1  A    between atoms: C_2  and  C_16
REMARK    2  A    between atoms: N_3  and  C_4
REMARK    3  A    between atoms: C_7  and  N_8
REMARK    4  A    between atoms: C_19  and  C_20
REMARK                            x       y       z     vdW  Elec       q    Type
REMARK                         _______ _______ _______ _____ _____    ______ ____
ROOT
ATOM      1  O   UNL     1       7.226   9.044  17.087  0.00  0.00    +0.000 OA
ATOM      2  C   UNL     1       7.648   8.278  17.954  0.00  0.00    +0.000 C 
ATOM      3  N   UNL     1       8.636   8.615  18.874  0.00  0.00    +0.000 N 
ATOM      4  H   UNL     1       9.029   7.857  19.416  0.00  0.00    +0.000 HD
ENDROOT
BRANCH   3   5
ATOM      5  C   UNL     1       9.252   9.893  18.955  0.00  0.00    +0.000 A 
ATOM      6  C   UNL     1       9.702  10.584  17.830  0.00  0.00    +0.000 A 
ATOM      7  C   UNL     1      10.374  11.808  17.946  0.00  0.00    +0.000 A 
ATOM      8  C   UNL     1      10.613  12.406  19.186  0.00  0.00    +0.000 A 
ATOM      9  C   UNL     1      10.111  11.728  20.307  0.00  0.00    +0.000 A 
ATOM     10  C   UNL     1       9.433  10.495  20.200  0.00  0.00    +0.000 A 
BRANCH   8  11
ATOM     11  N   UNL     1      11.283  13.608  19.264  0.00  0.00    +0.000 N 
ATOM     12  C   UNL     1      12.230  14.064  18.240  0.00  0.00    +0.000 C 
ATOM     13  C   UNL     1      11.708  15.335  17.541  0.00  0.00    +0.000 C 
ATOM     14  N   UNL     1      11.381  16.424  18.484  0.00  0.00    +0.000 NA
ATOM     15  C   UNL     1      10.410  15.926  19.479  0.00  0.00    +0.000 C 
ATOM     16  C   UNL     1      10.876  14.651  20.226  0.00  0.00    +0.000 C 
ATOM     17  H   UNL     1      10.963  17.197  17.968  0.00  0.00    +0.000 HD
ENDBRANCH   8  11
ENDBRANCH   3   5
BRANCH   2  18
ATOM     18  C   UNL     1       7.138   6.920  18.005  0.00  0.00    +0.000 A 
ATOM     19  C   UNL     1       7.867   5.748  17.926  0.00  0.00    +0.000 A 
ATOM     20  C   UNL     1       6.947   4.685  17.957  0.00  0.00    +0.000 A 
ATOM     21  C   UNL     1       5.692   5.252  18.061  0.00  0.00    +0.000 A 
ATOM     22  O   UNL     1       5.805   6.624  18.110  0.00  0.00    +0.000 OA
BRANCH  21  23
ATOM     23  C   UNL     1       4.347   4.681  18.120  0.00  0.00    +0.000 A 
ATOM     24  C   UNL     1       3.880   3.853  17.081  0.00  0.00    +0.000 A 
ATOM     25  C   UNL     1       2.602   3.287  17.126  0.00  0.00    +0.000 A 
ATOM     26  C   UNL     1       1.770   3.543  18.211  0.00  0.00    +0.000 A 
ATOM     27  C   UNL     1       2.218   4.366  19.241  0.00  0.00    +0.000 A 
ATOM     28 CL   UNL     1       1.192   4.680  20.587  0.00  0.00    +0.000 Cl
ATOM     29  C   UNL     1       3.493   4.935  19.199  0.00  0.00    +0.000 A 
ENDBRANCH  21  23
ENDBRANCH   2  18
TORSDOF 4
ENDMDL
