MODEL 1
REMARK VINA RESULT:      -8.7      0.000      0.000
REMARK  Name = 
REMARK  4 active torsions:
REMARK  status: ('A' for Active; 'I' for Inactive)
REMARK    1  A    between atoms: C_2  and  C_13
REMARK    2  A    between atoms: N_3  and  C_4
REMARK    3  A    between atoms: C_4  and  C_5
REMARK    4  A    between atoms: C_5  and  C_6
REMARK                            x       y       z     vdW  Elec       q    Type
REMARK                         _______ _______ _______ _____ _____    ______ ____
ROOT
ATOM      1  O   UNL     1       7.602   6.542  16.198  0.00  0.00    +0.000 OA
ATOM      2  C   UNL     1       7.117   6.668  17.320  0.00  0.00    +0.000 C 
ATOM      3  N   UNL     1       7.340   7.779  18.098  0.00  0.00    +0.000 N 
ATOM      4  H   UNL     1       6.906   7.827  19.020  0.00  0.00    +0.000 HD
ENDROOT
BRANCH   2   5
ATOM      5  C   UNL     1       6.251   5.604  17.929  0.00  0.00    +0.000 A 
ATOM      6  C   UNL     1       5.210   5.164  17.199  0.00  0.00    +0.000 A 
ATOM      7  C   UNL     1       4.337   4.112  17.702  0.00  0.00    +0.000 A 
ATOM      8  C   UNL     1       3.222   3.653  16.994  0.00  0.00    +0.000 A 
ATOM      9  C   UNL     1       2.435   2.621  17.518  0.00  0.00    +0.000 A 
ATOM     10  C   UNL     1       2.760   2.038  18.747  0.00  0.00    +0.000 A 
ATOM     11  C   UNL     1       3.866   2.494  19.459  0.00  0.00    +0.000 A 
ATOM     12  C   UNL     1       4.632   3.529  18.929  0.00  0.00    +0.000 A 
ATOM     13  O   UNL     1       5.719   3.980  19.695  0.00  0.00    +0.000 OA
ATOM     14  C   UNL     1       6.515   5.038  19.272  0.00  0.00    +0.000 A 
ATOM     15  O   UNL     1       7.412   5.468  19.994  0.00  0.00    +0.000 OA
ENDBRANCH   2   5
BRANCH   3  16
ATOM     16  C   UNL     1       8.183   8.880  17.665  0.00  0.00    +0.000 C 
BRANCH  16  17
ATOM     17  C   UNL     1       8.947   9.507  18.834  0.00  0.00    +0.000 C 
BRANCH  17  18
ATOM     18  C   UNL     1       9.441  10.899  18.530  0.00  0.00    +0.000 A 
ATOM     19  C   UNL     1       8.625  11.810  17.843  0.00  0.00    +0.000 A 
ATOM     20  C   UNL     1       9.081  13.101  17.568  0.00  0.00    +0.000 A 
ATOM     21  C   UNL     1      10.354  13.480  17.975  0.00  0.00    +0.000 A 
ATOM     22  F   UNL     1      10.790  14.719  17.715  0.00  0.00    +0.000 F 
ATOM     23  C   UNL     1      11.183  12.591  18.648  0.00  0.00    +0.000 A 
ATOM     24  C   UNL     1      10.729  11.299  18.924  0.00  0.00    +0.000 A 
ENDBRANCH  17  18
ENDBRANCH  16  17
ENDBRANCH   3  16
TORSDOF 4
ENDMDL
MODEL 2
REMARK VINA RESULT:      -8.6      1.691      2.442
REMARK  Name = 
REMARK  4 active torsions:
REMARK  status: ('A' for Active; 'I' for Inactive)
REMARK    1  A    between atoms: C_2  and  C_13
REMARK    2  A    between atoms: N_3  and  C_4
REMARK    3  A    between atoms: C_4  and  C_5
REMARK    4  A    between atoms: C_5  and  C_6
REMARK                            x       y       z     vdW  Elec       q    Type
REMARK                         _______ _______ _______ _____ _____    ______ ____
ROOT
ATOM      1  O   UNL     1       7.478   5.548  20.044  0.00  0.00    +0.000 OA
ATOM      2  C   UNL     1       6.815   5.808  19.043  0.00  0.00    +0.000 C 
ATOM      3  N   UNL     1       7.162   6.809  18.168  0.00  0.00    +0.000 N 
ATOM      4  H   UNL     1       6.572   6.974  17.353  0.00  0.00    +0.000 HD
ENDROOT
BRANCH   2   5
ATOM      5  C   UNL     1       5.562   5.051  18.710  0.00  0.00    +0.000 A 
ATOM      6  C   UNL     1       4.575   5.059  19.624  0.00  0.00    +0.000 A 
ATOM      7  C   UNL     1       3.315   4.375  19.369  0.00  0.00    +0.000 A 
ATOM      8  C   UNL     1       2.279   4.325  20.306  0.00  0.00    +0.000 A 
ATOM      9  C   UNL     1       1.081   3.673  19.993  0.00  0.00    +0.000 A 
ATOM     10  C   UNL     1       0.908   3.075  18.741  0.00  0.00    +0.000 A 
ATOM     11  C   UNL     1       1.937   3.117  17.805  0.00  0.00    +0.000 A 
ATOM     12  C   UNL     1       3.128   3.759  18.136  0.00  0.00    +0.000 A 
ATOM     13  O   UNL     1       4.151   3.750  17.176  0.00  0.00    +0.000 OA
ATOM     14  C   UNL     1       5.390   4.325  17.430  0.00  0.00    +0.000 A 
ATOM     15  O   UNL     1       6.298   4.236  16.606  0.00  0.00    +0.000 OA
ENDBRANCH   2   5
BRANCH   3  16
ATOM     16  C   UNL     1       8.327   7.653  18.370  0.00  0.00    +0.000 C 
BRANCH  16  17
ATOM     17  C   UNL     1       8.075   9.092  17.910  0.00  0.00    +0.000 C 
BRANCH  17  18
ATOM     18  C   UNL     1       9.015  10.083  18.549  0.00  0.00    +0.000 A 
ATOM     19  C   UNL     1       9.876  10.860  17.758  0.00  0.00    +0.000 A 
ATOM     20  C   UNL     1      10.742  11.782  18.350  0.00  0.00    +0.000 A 
ATOM     21  C   UNL     1      10.752  11.924  19.732  0.00  0.00    +0.000 A 
ATOM     22  F   UNL     1      11.579  12.812  20.299  0.00  0.00    +0.000 F 
ATOM     23  C   UNL     1       9.914  11.159  20.534  0.00  0.00    +0.000 A 
ATOM     24  C   UNL     1       9.047  10.237  19.944  0.00  0.00    +0.000 A 
ENDBRANCH  17  18
ENDBRANCH  16  17
ENDBRANCH   3  16
TORSDOF 4
ENDMDL
MODEL 3
REMARK VINA RESULT:      -8.5      0.948      1.381
REMARK  Name = 
REMARK  4 active torsions:
REMARK  status: ('A' for Active; 'I' for Inactive)
REMARK    1  A    between atoms: C_2  and  C_13
REMARK    2  A    between atoms: N_3  and  C_4
REMARK    3  A    between atoms: C_4  and  C_5
REMARK    4  A    between atoms: C_5  and  C_6
REMARK                            x       y       z     vdW  Elec       q    Type
REMARK                         _______ _______ _______ _____ _____    ______ ____
ROOT
ATOM      1  O   UNL     1       6.134   6.843  15.998  0.00  0.00    +0.000 OA
ATOM      2  C   UNL     1       6.189   6.657  17.211  0.00  0.00    +0.000 C 
ATOM      3  N   UNL     1       6.984   7.415  18.037  0.00  0.00    +0.000 N 
ATOM      4  H   UNL     1       6.984   7.213  19.037  0.00  0.00    +0.000 HD
ENDROOT
BRANCH   2   5
ATOM      5  C   UNL     1       5.396   5.572  17.879  0.00  0.00    +0.000 A 
ATOM      6  C   UNL     1       4.110   5.432  17.511  0.00  0.00    +0.000 A 
ATOM      7  C   UNL     1       3.277   4.385  18.087  0.00  0.00    +0.000 A 
ATOM      8  C   UNL     1       1.926   4.230  17.761  0.00  0.00    +0.000 A 
ATOM      9  C   UNL     1       1.183   3.188  18.330  0.00  0.00    +0.000 A 
ATOM     10  C   UNL     1       1.786   2.293  19.218  0.00  0.00    +0.000 A 
ATOM     11  C   UNL     1       3.129   2.445  19.550  0.00  0.00    +0.000 A 
ATOM     12  C   UNL     1       3.852   3.494  18.985  0.00  0.00    +0.000 A 
ATOM     13  O   UNL     1       5.194   3.630  19.372  0.00  0.00    +0.000 OA
ATOM     14  C   UNL     1       5.984   4.671  18.898  0.00  0.00    +0.000 A 
ATOM     15  O   UNL     1       7.132   4.817  19.311  0.00  0.00    +0.000 OA
ENDBRANCH   2   5
BRANCH   3  16
ATOM     16  C   UNL     1       7.837   8.479  17.539  0.00  0.00    +0.000 C 
BRANCH  16  17
ATOM     17  C   UNL     1       8.770   9.019  18.627  0.00  0.00    +0.000 C 
BRANCH  17  18
ATOM     18  C   UNL     1       9.074  10.487  18.461  0.00  0.00    +0.000 A 
ATOM     19  C   UNL     1      10.205  11.053  19.069  0.00  0.00    +0.000 A 
ATOM     20  C   UNL     1      10.489  12.411  18.909  0.00  0.00    +0.000 A 
ATOM     21  C   UNL     1       9.641  13.205  18.146  0.00  0.00    +0.000 A 
ATOM     22  F   UNL     1       9.915  14.506  17.989  0.00  0.00    +0.000 F 
ATOM     23  C   UNL     1       8.511  12.666  17.543  0.00  0.00    +0.000 A 
ATOM     24  C   UNL     1       8.225  11.308  17.701  0.00  0.00    +0.000 A 
ENDBRANCH  17  18
ENDBRANCH  16  17
ENDBRANCH   3  16
TORSDOF 4
ENDMDL
MODEL 4
REMARK VINA RESULT:      -8.4      5.204      8.055
REMARK  Name = 
REMARK  4 active torsions:
REMARK  status: ('A' for Active; 'I' for Inactive)
REMARK    1  A    between atoms: C_2  and  C_13
REMARK    2  A    between atoms: N_3  and  C_4
REMARK    3  A    between atoms: C_4  and  C_5
REMARK    4  A    between atoms: C_5  and  C_6
REMARK                            x       y       z     vdW  Elec       q    Type
REMARK                         _______ _______ _______ _____ _____    ______ ____
ROOT
ATOM      1  O   UNL     1       5.535   5.587  19.176  0.00  0.00    +0.000 OA
ATOM      2  C   UNL     1       5.048   5.835  18.075  0.00  0.00    +0.000 C 
ATOM      3  N   UNL     1       3.793   6.377  17.930  0.00  0.00    +0.000 N 
ATOM      4  H   UNL     1       3.446   6.564  16.989  0.00  0.00    +0.000 HD
ENDROOT
BRANCH   2   5
ATOM      5  C   UNL     1       5.791   5.551  16.803  0.00  0.00    +0.000 A 
ATOM      6  C   UNL     1       5.170   4.791  15.883  0.00  0.00    +0.000 A 
ATOM      7  C   UNL     1       5.808   4.491  14.608  0.00  0.00    +0.000 A 
ATOM      8  C   UNL     1       5.215   3.674  13.641  0.00  0.00    +0.000 A 
ATOM      9  C   UNL     1       5.866   3.442  12.424  0.00  0.00    +0.000 A 
ATOM     10  C   UNL     1       7.107   4.030  12.163  0.00  0.00    +0.000 A 
ATOM     11  C   UNL     1       7.705   4.842  13.123  0.00  0.00    +0.000 A 
ATOM     12  C   UNL     1       7.049   5.052  14.334  0.00  0.00    +0.000 A 
ATOM     13  O   UNL     1       7.702   5.850  15.288  0.00  0.00    +0.000 OA
ATOM     14  C   UNL     1       7.149   6.081  16.541  0.00  0.00    +0.000 A 
ATOM     15  O   UNL     1       7.774   6.716  17.388  0.00  0.00    +0.000 OA
ENDBRANCH   2   5
BRANCH   3  16
ATOM     16  C   UNL     1       2.936   6.678  19.064  0.00  0.00    +0.000 C 
BRANCH  16  17
ATOM     17  C   UNL     1       1.879   5.592  19.282  0.00  0.00    +0.000 C 
BRANCH  17  18
ATOM     18  C   UNL     1       2.413   4.200  19.049  0.00  0.00    +0.000 A 
ATOM     19  C   UNL     1       2.179   3.543  17.831  0.00  0.00    +0.000 A 
ATOM     20  C   UNL     1       2.680   2.257  17.614  0.00  0.00    +0.000 A 
ATOM     21  C   UNL     1       3.409   1.627  18.615  0.00  0.00    +0.000 A 
ATOM     22  F   UNL     1       3.892   0.396  18.406  0.00  0.00    +0.000 F 
ATOM     23  C   UNL     1       3.644   2.256  19.832  0.00  0.00    +0.000 A 
ATOM     24  C   UNL     1       3.144   3.542  20.051  0.00  0.00    +0.000 A 
ENDBRANCH  17  18
ENDBRANCH  16  17
ENDBRANCH   3  16
TORSDOF 4
ENDMDL
MODEL 5
REMARK VINA RESULT:      -8.4      5.259      8.104
REMARK  Name = 
REMARK  4 active torsions:
REMARK  status: ('A' for Active; 'I' for Inactive)
REMARK    1  A    between atoms: C_2  and  C_13
REMARK    2  A    between atoms: N_3  and  C_4
REMARK    3  A    between atoms: C_4  and  C_5
REMARK    4  A    between atoms: C_5  and  C_6
REMARK                            x       y       z     vdW  Elec       q    Type
REMARK                         _______ _______ _______ _____ _____    ______ ____
ROOT
ATOM      1  O   UNL     1       5.585   5.711  18.880  0.00  0.00    +0.000 OA
ATOM      2  C   UNL     1       5.073   5.897  17.779  0.00  0.00    +0.000 C 
ATOM      3  N   UNL     1       3.811   6.420  17.632  0.00  0.00    +0.000 N 
ATOM      4  H   UNL     1       3.442   6.553  16.690  0.00  0.00    +0.000 HD
ENDROOT
BRANCH   2   5
ATOM      5  C   UNL     1       5.792   5.551  16.508  0.00  0.00    +0.000 A 
ATOM      6  C   UNL     1       5.147   4.764  15.628  0.00  0.00    +0.000 A 
ATOM      7  C   UNL     1       5.760   4.405  14.357  0.00  0.00    +0.000 A 
ATOM      8  C   UNL     1       5.142   3.558  13.432  0.00  0.00    +0.000 A 
ATOM      9  C   UNL     1       5.771   3.269  12.216  0.00  0.00    +0.000 A 
ATOM     10  C   UNL     1       7.015   3.829  11.913  0.00  0.00    +0.000 A 
ATOM     11  C   UNL     1       7.639   4.669  12.831  0.00  0.00    +0.000 A 
ATOM     12  C   UNL     1       7.005   4.937  14.042  0.00  0.00    +0.000 A 
ATOM     13  O   UNL     1       7.683   5.762  14.953  0.00  0.00    +0.000 OA
ATOM     14  C   UNL     1       7.154   6.051  16.205  0.00  0.00    +0.000 A 
ATOM     15  O   UNL     1       7.800   6.711  17.016  0.00  0.00    +0.000 OA
ENDBRANCH   2   5
BRANCH   3  16
ATOM     16  C   UNL     1       2.974   6.772  18.766  0.00  0.00    +0.000 C 
BRANCH  16  17
ATOM     17  C   UNL     1       1.910   5.707  19.043  0.00  0.00    +0.000 C 
BRANCH  17  18
ATOM     18  C   UNL     1       2.438   4.301  18.894  0.00  0.00    +0.000 A 
ATOM     19  C   UNL     1       3.197   3.714  19.917  0.00  0.00    +0.000 A 
ATOM     20  C   UNL     1       3.680   2.410  19.781  0.00  0.00    +0.000 A 
ATOM     21  C   UNL     1       3.408   1.696  18.621  0.00  0.00    +0.000 A 
ATOM     22  F   UNL     1       3.867   0.444  18.493  0.00  0.00    +0.000 F 
ATOM     23  C   UNL     1       2.665   2.261  17.592  0.00  0.00    +0.000 A 
ATOM     24  C   UNL     1       2.182   3.565  17.726  0.00  0.00    +0.000 A 
ENDBRANCH  17  18
ENDBRANCH  16  17
ENDBRANCH   3  16
TORSDOF 4
ENDMDL
MODEL 6
REMARK VINA RESULT:      -8.3      5.216      6.977
REMARK  Name = 
REMARK  4 active torsions:
REMARK  status: ('A' for Active; 'I' for Inactive)
REMARK    1  A    between atoms: C_2  and  C_13
REMARK    2  A    between atoms: N_3  and  C_4
REMARK    3  A    between atoms: C_4  and  C_5
REMARK    4  A    between atoms: C_5  and  C_6
REMARK                            x       y       z     vdW  Elec       q    Type
REMARK                         _______ _______ _______ _____ _____    ______ ____
ROOT
ATOM      1  O   UNL     1       3.721   5.520  19.951  0.00  0.00    +0.000 OA
ATOM      2  C   UNL     1       2.986   6.026  19.107  0.00  0.00    +0.000 C 
ATOM      3  N   UNL     1       2.786   5.462  17.870  0.00  0.00    +0.000 N 
ATOM      4  H   UNL     1       2.161   5.929  17.214  0.00  0.00    +0.000 HD
ENDROOT
BRANCH   2   5
ATOM      5  C   UNL     1       2.258   7.313  19.366  0.00  0.00    +0.000 A 
ATOM      6  C   UNL     1       1.685   7.466  20.573  0.00  0.00    +0.000 A 
ATOM      7  C   UNL     1       0.985   8.696  20.917  0.00  0.00    +0.000 A 
ATOM      8  C   UNL     1       0.342   8.880  22.145  0.00  0.00    +0.000 A 
ATOM      9  C   UNL     1      -0.294  10.095  22.428  0.00  0.00    +0.000 A 
ATOM     10  C   UNL     1      -0.283  11.133  21.492  0.00  0.00    +0.000 A 
ATOM     11  C   UNL     1       0.352  10.954  20.267  0.00  0.00    +0.000 A 
ATOM     12  C   UNL     1       0.969   9.735  19.995  0.00  0.00    +0.000 A 
ATOM     13  O   UNL     1       1.568   9.586  18.735  0.00  0.00    +0.000 OA
ATOM     14  C   UNL     1       2.169   8.392  18.354  0.00  0.00    +0.000 A 
ATOM     15  O   UNL     1       2.618   8.257  17.218  0.00  0.00    +0.000 OA
ENDBRANCH   2   5
BRANCH   3  16
ATOM     16  C   UNL     1       3.446   4.236  17.456  0.00  0.00    +0.000 C 
BRANCH  16  17
ATOM     17  C   UNL     1       4.602   4.509  16.490  0.00  0.00    +0.000 C 
BRANCH  17  18
ATOM     18  C   UNL     1       5.705   5.326  17.115  0.00  0.00    +0.000 A 
ATOM     19  C   UNL     1       5.873   6.677  16.774  0.00  0.00    +0.000 A 
ATOM     20  C   UNL     1       6.890   7.433  17.358  0.00  0.00    +0.000 A 
ATOM     21  C   UNL     1       7.744   6.839  18.280  0.00  0.00    +0.000 A 
ATOM     22  F   UNL     1       8.717   7.566  18.843  0.00  0.00    +0.000 F 
ATOM     23  C   UNL     1       7.602   5.501  18.625  0.00  0.00    +0.000 A 
ATOM     24  C   UNL     1       6.585   4.742  18.042  0.00  0.00    +0.000 A 
ENDBRANCH  17  18
ENDBRANCH  16  17
ENDBRANCH   3  16
TORSDOF 4
ENDMDL
MODEL 7
REMARK VINA RESULT:      -8.3      5.023      6.860
REMARK  Name = 
REMARK  4 active torsions:
REMARK  status: ('A' for Active; 'I' for Inactive)
REMARK    1  A    between atoms: C_2  and  C_13
REMARK    2  A    between atoms: N_3  and  C_4
REMARK    3  A    between atoms: C_4  and  C_5
REMARK    4  A    between atoms: C_5  and  C_6
REMARK                            x       y       z     vdW  Elec       q    Type
REMARK                         _______ _______ _______ _____ _____    ______ ____
ROOT
ATOM      1  O   UNL     1       5.354   3.852  18.919  0.00  0.00    +0.000 OA
ATOM      2  C   UNL     1       4.920   4.463  17.944  0.00  0.00    +0.000 C 
ATOM      3  N   UNL     1       3.662   5.016  17.922  0.00  0.00    +0.000 N 
ATOM      4  H   UNL     1       3.361   5.513  17.084  0.00  0.00    +0.000 HD
ENDROOT
BRANCH   2   5
ATOM      5  C   UNL     1       5.736   4.637  16.697  0.00  0.00    +0.000 A 
ATOM      6  C   UNL     1       5.324   3.987  15.594  0.00  0.00    +0.000 A 
ATOM      7  C   UNL     1       6.041   4.125  14.334  0.00  0.00    +0.000 A 
ATOM      8  C   UNL     1       5.670   3.437  13.175  0.00  0.00    +0.000 A 
ATOM      9  C   UNL     1       6.383   3.630  11.986  0.00  0.00    +0.000 A 
ATOM     10  C   UNL     1       7.464   4.516  11.946  0.00  0.00    +0.000 A 
ATOM     11  C   UNL     1       7.841   5.201  13.098  0.00  0.00    +0.000 A 
ATOM     12  C   UNL     1       7.128   4.989  14.276  0.00  0.00    +0.000 A 
ATOM     13  O   UNL     1       7.562   5.674  15.421  0.00  0.00    +0.000 OA
ATOM     14  C   UNL     1       6.944   5.494  16.653  0.00  0.00    +0.000 A 
ATOM     15  O   UNL     1       7.390   6.043  17.658  0.00  0.00    +0.000 OA
ENDBRANCH   2   5
BRANCH   3  16
ATOM     16  C   UNL     1       2.739   4.902  19.038  0.00  0.00    +0.000 C 
BRANCH  16  17
ATOM     17  C   UNL     1       2.933   6.031  20.055  0.00  0.00    +0.000 C 
BRANCH  17  18
ATOM     18  C   UNL     1       2.251   7.312  19.643  0.00  0.00    +0.000 A 
ATOM     19  C   UNL     1       1.507   8.054  20.573  0.00  0.00    +0.000 A 
ATOM     20  C   UNL     1       0.882   9.243  20.192  0.00  0.00    +0.000 A 
ATOM     21  C   UNL     1       0.996   9.689  18.881  0.00  0.00    +0.000 A 
ATOM     22  F   UNL     1       0.400  10.831  18.516  0.00  0.00    +0.000 F 
ATOM     23  C   UNL     1       1.720   8.965  17.941  0.00  0.00    +0.000 A 
ATOM     24  C   UNL     1       2.346   7.775  18.320  0.00  0.00    +0.000 A 
ENDBRANCH  17  18
ENDBRANCH  16  17
ENDBRANCH   3  16
TORSDOF 4
ENDMDL
MODEL 8
REMARK VINA RESULT:      -8.2      5.614      8.401
REMARK  Name = 
REMARK  4 active torsions:
REMARK  status: ('A' for Active; 'I' for Inactive)
REMARK    1  A    between atoms: C_2  and  C_13
REMARK    2  A    between atoms: N_3  and  C_4
REMARK    3  A    between atoms: C_4  and  C_5
REMARK    4  A    between atoms: C_5  and  C_6
REMARK                            x       y       z     vdW  Elec       q    Type
REMARK                         _______ _______ _______ _____ _____    ______ ____
ROOT
ATOM      1  O   UNL     1       4.695   4.260  18.288  0.00  0.00    +0.000 OA
ATOM      2  C   UNL     1       4.821   5.198  17.504  0.00  0.00    +0.000 C 
ATOM      3  N   UNL     1       4.196   6.407  17.695  0.00  0.00    +0.000 N 
ATOM      4  H   UNL     1       4.343   7.148  17.009  0.00  0.00    +0.000 HD
ENDROOT
BRANCH   2   5
ATOM      5  C   UNL     1       5.664   5.083  16.268  0.00  0.00    +0.000 A 
ATOM      6  C   UNL     1       5.187   4.326  15.264  0.00  0.00    +0.000 A 
ATOM      7  C   UNL     1       5.928   4.185  14.018  0.00  0.00    +0.000 A 
ATOM      8  C   UNL     1       5.487   3.377  12.965  0.00  0.00    +0.000 A 
ATOM      9  C   UNL     1       6.230   3.302  11.781  0.00  0.00    +0.000 A 
ATOM     10  C   UNL     1       7.411   4.037  11.639  0.00  0.00    +0.000 A 
ATOM     11  C   UNL     1       7.857   4.840  12.684  0.00  0.00    +0.000 A 
ATOM     12  C   UNL     1       7.112   4.895  13.861  0.00  0.00    +0.000 A 
ATOM     13  O   UNL     1       7.615   5.691  14.902  0.00  0.00    +0.000 OA
ATOM     14  C   UNL     1       6.968   5.774  16.129  0.00  0.00    +0.000 A 
ATOM     15  O   UNL     1       7.467   6.413  17.053  0.00  0.00    +0.000 OA
ENDBRANCH   2   5
BRANCH   3  16
ATOM     16  C   UNL     1       3.320   6.663  18.824  0.00  0.00    +0.000 C 
BRANCH  16  17
ATOM     17  C   UNL     1       1.974   5.947  18.676  0.00  0.00    +0.000 C 
BRANCH  17  18
ATOM     18  C   UNL     1       1.809   4.805  19.647  0.00  0.00    +0.000 A 
ATOM     19  C   UNL     1       1.097   3.654  19.279  0.00  0.00    +0.000 A 
ATOM     20  C   UNL     1       0.950   2.594  20.177  0.00  0.00    +0.000 A 
ATOM     21  C   UNL     1       1.510   2.688  21.445  0.00  0.00    +0.000 A 
ATOM     22  F   UNL     1       1.373   1.670  22.304  0.00  0.00    +0.000 F 
ATOM     23  C   UNL     1       2.212   3.823  21.834  0.00  0.00    +0.000 A 
ATOM     24  C   UNL     1       2.359   4.883  20.937  0.00  0.00    +0.000 A 
ENDBRANCH  17  18
ENDBRANCH  16  17
ENDBRANCH   3  16
TORSDOF 4
ENDMDL
MODEL 9
REMARK VINA RESULT:      -8.2      5.536      8.332
REMARK  Name = 
REMARK  4 active torsions:
REMARK  status: ('A' for Active; 'I' for Inactive)
REMARK    1  A    between atoms: C_2  and  C_13
REMARK    2  A    between atoms: N_3  and  C_4
REMARK    3  A    between atoms: C_4  and  C_5
REMARK    4  A    between atoms: C_5  and  C_6
REMARK                            x       y       z     vdW  Elec       q    Type
REMARK                         _______ _______ _______ _____ _____    ______ ____
ROOT
ATOM      1  O   UNL     1       5.317   4.030  18.728  0.00  0.00    +0.000 OA
ATOM      2  C   UNL     1       5.340   5.012  17.989  0.00  0.00    +0.000 C 
ATOM      3  N   UNL     1       4.751   6.206  18.331  0.00  0.00    +0.000 N 
ATOM      4  H   UNL     1       4.807   6.985  17.676  0.00  0.00    +0.000 HD
ENDROOT
BRANCH   2   5
ATOM      5  C   UNL     1       6.007   4.971  16.645  0.00  0.00    +0.000 A 
ATOM      6  C   UNL     1       5.426   4.223  15.690  0.00  0.00    +0.000 A 
ATOM      7  C   UNL     1       5.992   4.152  14.350  0.00  0.00    +0.000 A 
ATOM      8  C   UNL     1       5.442   3.356  13.340  0.00  0.00    +0.000 A 
ATOM      9  C   UNL     1       6.016   3.348  12.063  0.00  0.00    +0.000 A 
ATOM     10  C   UNL     1       7.135   4.139  11.786  0.00  0.00    +0.000 A 
ATOM     11  C   UNL     1       7.689   4.931  12.788  0.00  0.00    +0.000 A 
ATOM     12  C   UNL     1       7.114   4.918  14.057  0.00  0.00    +0.000 A 
ATOM     13  O   UNL     1       7.723   5.704  15.047  0.00  0.00    +0.000 OA
ATOM     14  C   UNL     1       7.250   5.723  16.353  0.00  0.00    +0.000 A 
ATOM     15  O   UNL     1       7.846   6.357  17.221  0.00  0.00    +0.000 OA
ENDBRANCH   2   5
BRANCH   3  16
ATOM     16  C   UNL     1       4.037   6.394  19.582  0.00  0.00    +0.000 C 
BRANCH  16  17
ATOM     17  C   UNL     1       2.521   6.432  19.372  0.00  0.00    +0.000 C 
BRANCH  17  18
ATOM     18  C   UNL     1       1.921   5.059  19.194  0.00  0.00    +0.000 A 
ATOM     19  C   UNL     1       1.852   4.472  17.921  0.00  0.00    +0.000 A 
ATOM     20  C   UNL     1       1.302   3.199  17.758  0.00  0.00    +0.000 A 
ATOM     21  C   UNL     1       0.816   2.514  18.865  0.00  0.00    +0.000 A 
ATOM     22  F   UNL     1       0.293   1.292  18.709  0.00  0.00    +0.000 F 
ATOM     23  C   UNL     1       0.866   3.081  20.133  0.00  0.00    +0.000 A 
ATOM     24  C   UNL     1       1.415   4.354  20.298  0.00  0.00    +0.000 A 
ENDBRANCH  17  18
ENDBRANCH  16  17
ENDBRANCH   3  16
TORSDOF 4
ENDMDL
