MODEL 1
REMARK VINA RESULT:      -6.1      0.000      0.000
REMARK  Name = 
REMARK  1 active torsions:
REMARK  status: ('A' for Active; 'I' for Inactive)
REMARK    1  A    between atoms: C_2  and  C_3
REMARK                            x       y       z     vdW  Elec       q    Type
REMARK                         _______ _______ _______ _____ _____    ______ ____
ROOT
ATOM      1  C   UNL     1       5.888   4.524  16.897  0.00  0.00    +0.000 A 
ATOM      2  C   UNL     1       6.275   4.553  18.224  0.00  0.00    +0.000 A 
ATOM      3  N   UNL     1       5.507   4.105  19.245  0.00  0.00    +0.000 NA
ATOM      4  C   UNL     1       4.290   3.613  18.951  0.00  0.00    +0.000 A 
ATOM      5  C   UNL     1       3.483   3.146  19.977  0.00  0.00    +0.000 A 
ATOM      6  C   UNL     1       2.205   2.638  19.730  0.00  0.00    +0.000 A 
ATOM      7  C   UNL     1       1.715   2.596  18.429  0.00  0.00    +0.000 A 
ATOM      8  C   UNL     1       2.509   3.049  17.377  0.00  0.00    +0.000 A 
ATOM      9  C   UNL     1       3.797   3.554  17.628  0.00  0.00    +0.000 A 
ATOM     10  C   UNL     1       4.627   4.015  16.594  0.00  0.00    +0.000 A 
ENDROOT
BRANCH   1  12
ATOM     11  N   UNL     1       7.473   5.394  15.047  0.00  0.00    +0.000 NA
ATOM     12  C   UNL     1       6.764   5.004  15.880  0.00  0.00    +0.000 C 
ENDBRANCH   1  12
TORSDOF 1
ENDMDL
MODEL 2
REMARK VINA RESULT:      -6.0      2.218      4.711
REMARK  Name = 
REMARK  1 active torsions:
REMARK  status: ('A' for Active; 'I' for Inactive)
REMARK    1  A    between atoms: C_2  and  C_3
REMARK                            x       y       z     vdW  Elec       q    Type
REMARK                         _______ _______ _______ _____ _____    ______ ____
ROOT
ATOM      1  C   UNL     1       3.721   4.492  18.074  0.00  0.00    +0.000 A 
ATOM      2  C   UNL     1       4.491   3.833  19.016  0.00  0.00    +0.000 A 
ATOM      3  N   UNL     1       5.736   4.220  19.378  0.00  0.00    +0.000 NA
ATOM      4  C   UNL     1       6.260   5.304  18.778  0.00  0.00    +0.000 A 
ATOM      5  C   UNL     1       7.533   5.724  19.130  0.00  0.00    +0.000 A 
ATOM      6  C   UNL     1       8.132   6.834  18.529  0.00  0.00    +0.000 A 
ATOM      7  C   UNL     1       7.447   7.544  17.549  0.00  0.00    +0.000 A 
ATOM      8  C   UNL     1       6.161   7.151  17.181  0.00  0.00    +0.000 A 
ATOM      9  C   UNL     1       5.560   6.036  17.793  0.00  0.00    +0.000 A 
ATOM     10  C   UNL     1       4.265   5.614  17.452  0.00  0.00    +0.000 A 
ENDROOT
BRANCH   1  12
ATOM     11  N   UNL     1       1.342   3.650  17.506  0.00  0.00    +0.000 NA
ATOM     12  C   UNL     1       2.412   4.025  17.759  0.00  0.00    +0.000 C 
ENDBRANCH   1  12
TORSDOF 1
ENDMDL
MODEL 3
REMARK VINA RESULT:      -6.0      1.256      1.321
REMARK  Name = 
REMARK  1 active torsions:
REMARK  status: ('A' for Active; 'I' for Inactive)
REMARK    1  A    between atoms: C_2  and  C_3
REMARK                            x       y       z     vdW  Elec       q    Type
REMARK                         _______ _______ _______ _____ _____    ______ ____
ROOT
ATOM      1  C   UNL     1       5.279   4.546  17.622  0.00  0.00    +0.000 A 
ATOM      2  C   UNL     1       5.179   5.357  18.738  0.00  0.00    +0.000 A 
ATOM      3  N   UNL     1       4.132   5.337  19.595  0.00  0.00    +0.000 NA
ATOM      4  C   UNL     1       3.124   4.484  19.341  0.00  0.00    +0.000 A 
ATOM      5  C   UNL     1       2.040   4.441  20.204  0.00  0.00    +0.000 A 
ATOM      6  C   UNL     1       0.959   3.585  19.981  0.00  0.00    +0.000 A 
ATOM      7  C   UNL     1       0.954   2.751  18.867  0.00  0.00    +0.000 A 
ATOM      8  C   UNL     1       2.035   2.766  17.988  0.00  0.00    +0.000 A 
ATOM      9  C   UNL     1       3.125   3.625  18.220  0.00  0.00    +0.000 A 
ATOM     10  C   UNL     1       4.233   3.664  17.359  0.00  0.00    +0.000 A 
ENDROOT
BRANCH   1  12
ATOM     11  N   UNL     1       7.359   4.682  16.091  0.00  0.00    +0.000 NA
ATOM     12  C   UNL     1       6.423   4.622  16.776  0.00  0.00    +0.000 C 
ENDBRANCH   1  12
TORSDOF 1
ENDMDL
MODEL 4
REMARK VINA RESULT:      -5.9      1.518      1.718
REMARK  Name = 
REMARK  1 active torsions:
REMARK  status: ('A' for Active; 'I' for Inactive)
REMARK    1  A    between atoms: C_2  and  C_3
REMARK                            x       y       z     vdW  Elec       q    Type
REMARK                         _______ _______ _______ _____ _____    ______ ____
ROOT
ATOM      1  C   UNL     1       4.516   5.077  17.483  0.00  0.00    +0.000 A 
ATOM      2  C   UNL     1       5.394   4.351  18.268  0.00  0.00    +0.000 A 
ATOM      3  N   UNL     1       5.012   3.577  19.310  0.00  0.00    +0.000 NA
ATOM      4  C   UNL     1       3.702   3.519  19.607  0.00  0.00    +0.000 A 
ATOM      5  C   UNL     1       3.282   2.732  20.668  0.00  0.00    +0.000 A 
ATOM      6  C   UNL     1       1.935   2.646  21.030  0.00  0.00    +0.000 A 
ATOM      7  C   UNL     1       0.980   3.364  20.318  0.00  0.00    +0.000 A 
ATOM      8  C   UNL     1       1.372   4.155  19.239  0.00  0.00    +0.000 A 
ATOM      9  C   UNL     1       2.728   4.235  18.875  0.00  0.00    +0.000 A 
ATOM     10  C   UNL     1       3.159   5.017  17.792  0.00  0.00    +0.000 A 
ENDROOT
BRANCH   1  12
ATOM     11  N   UNL     1       5.390   6.495  15.504  0.00  0.00    +0.000 NA
ATOM     12  C   UNL     1       5.001   5.859  16.394  0.00  0.00    +0.000 C 
ENDBRANCH   1  12
TORSDOF 1
ENDMDL
MODEL 5
REMARK VINA RESULT:      -5.9      1.492      1.613
REMARK  Name = 
REMARK  1 active torsions:
REMARK  status: ('A' for Active; 'I' for Inactive)
REMARK    1  A    between atoms: C_2  and  C_3
REMARK                            x       y       z     vdW  Elec       q    Type
REMARK                         _______ _______ _______ _____ _____    ______ ____
ROOT
ATOM      1  C   UNL     1       5.277   4.964  16.530  0.00  0.00    +0.000 A 
ATOM      2  C   UNL     1       4.599   6.054  17.046  0.00  0.00    +0.000 A 
ATOM      3  N   UNL     1       3.456   5.962  17.764  0.00  0.00    +0.000 NA
ATOM      4  C   UNL     1       2.943   4.738  17.980  0.00  0.00    +0.000 A 
ATOM      5  C   UNL     1       1.773   4.614  18.714  0.00  0.00    +0.000 A 
ATOM      6  C   UNL     1       1.189   3.368  18.956  0.00  0.00    +0.000 A 
ATOM      7  C   UNL     1       1.781   2.215  18.453  0.00  0.00    +0.000 A 
ATOM      8  C   UNL     1       2.963   2.309  17.720  0.00  0.00    +0.000 A 
ATOM      9  C   UNL     1       3.552   3.564  17.483  0.00  0.00    +0.000 A 
ATOM     10  C   UNL     1       4.744   3.697  16.754  0.00  0.00    +0.000 A 
ENDROOT
BRANCH   1  12
ATOM     11  N   UNL     1       7.464   5.303  15.192  0.00  0.00    +0.000 NA
ATOM     12  C   UNL     1       6.484   5.148  15.795  0.00  0.00    +0.000 C 
ENDBRANCH   1  12
TORSDOF 1
ENDMDL
MODEL 6
REMARK VINA RESULT:      -5.8      1.415      1.417
REMARK  Name = 
REMARK  1 active torsions:
REMARK  status: ('A' for Active; 'I' for Inactive)
REMARK    1  A    between atoms: C_2  and  C_3
REMARK                            x       y       z     vdW  Elec       q    Type
REMARK                         _______ _______ _______ _____ _____    ______ ____
ROOT
ATOM      1  C   UNL     1       5.401   5.558  17.862  0.00  0.00    +0.000 A 
ATOM      2  C   UNL     1       5.911   4.645  18.767  0.00  0.00    +0.000 A 
ATOM      3  N   UNL     1       5.186   3.648  19.324  0.00  0.00    +0.000 NA
ATOM      4  C   UNL     1       3.888   3.546  18.985  0.00  0.00    +0.000 A 
ATOM      5  C   UNL     1       3.122   2.532  19.540  0.00  0.00    +0.000 A 
ATOM      6  C   UNL     1       1.766   2.388  19.235  0.00  0.00    +0.000 A 
ATOM      7  C   UNL     1       1.155   3.278  18.357  0.00  0.00    +0.000 A 
ATOM      8  C   UNL     1       1.904   4.300  17.777  0.00  0.00    +0.000 A 
ATOM      9  C   UNL     1       3.270   4.438  18.082  0.00  0.00    +0.000 A 
ATOM     10  C   UNL     1       4.057   5.452  17.513  0.00  0.00    +0.000 A 
ENDROOT
BRANCH   1  12
ATOM     11  N   UNL     1       6.920   7.395  16.858  0.00  0.00    +0.000 NA
ATOM     12  C   UNL     1       6.238   6.572  17.312  0.00  0.00    +0.000 C 
ENDBRANCH   1  12
TORSDOF 1
ENDMDL
MODEL 7
REMARK VINA RESULT:      -5.8      1.717      1.812
REMARK  Name = 
REMARK  1 active torsions:
REMARK  status: ('A' for Active; 'I' for Inactive)
REMARK    1  A    between atoms: C_2  and  C_3
REMARK                            x       y       z     vdW  Elec       q    Type
REMARK                         _______ _______ _______ _____ _____    ______ ____
ROOT
ATOM      1  C   UNL     1       4.387   5.241  17.088  0.00  0.00    +0.000 A 
ATOM      2  C   UNL     1       4.394   6.094  18.177  0.00  0.00    +0.000 A 
ATOM      3  N   UNL     1       3.594   5.947  19.258  0.00  0.00    +0.000 NA
ATOM      4  C   UNL     1       2.733   4.914  19.270  0.00  0.00    +0.000 A 
ATOM      5  C   UNL     1       1.902   4.738  20.366  0.00  0.00    +0.000 A 
ATOM      6  C   UNL     1       0.978   3.691  20.424  0.00  0.00    +0.000 A 
ATOM      7  C   UNL     1       0.876   2.797  19.364  0.00  0.00    +0.000 A 
ATOM      8  C   UNL     1       1.706   2.944  18.253  0.00  0.00    +0.000 A 
ATOM      9  C   UNL     1       2.638   3.995  18.200  0.00  0.00    +0.000 A 
ATOM     10  C   UNL     1       3.493   4.172  17.101  0.00  0.00    +0.000 A 
ENDROOT
BRANCH   1  12
ATOM     11  N   UNL     1       6.000   5.638  15.106  0.00  0.00    +0.000 NA
ATOM     12  C   UNL     1       5.273   5.461  15.994  0.00  0.00    +0.000 C 
ENDBRANCH   1  12
TORSDOF 1
ENDMDL
MODEL 8
REMARK VINA RESULT:      -5.8      1.802      2.242
REMARK  Name = 
REMARK  1 active torsions:
REMARK  status: ('A' for Active; 'I' for Inactive)
REMARK    1  A    between atoms: C_2  and  C_3
REMARK                            x       y       z     vdW  Elec       q    Type
REMARK                         _______ _______ _______ _____ _____    ______ ____
ROOT
ATOM      1  C   UNL     1       4.274   5.061  17.104  0.00  0.00    +0.000 A 
ATOM      2  C   UNL     1       4.399   3.692  16.952  0.00  0.00    +0.000 A 
ATOM      3  N   UNL     1       3.724   2.785  17.695  0.00  0.00    +0.000 NA
ATOM      4  C   UNL     1       2.889   3.243  18.645  0.00  0.00    +0.000 A 
ATOM      5  C   UNL     1       2.183   2.336  19.420  0.00  0.00    +0.000 A 
ATOM      6  C   UNL     1       1.313   2.756  20.430  0.00  0.00    +0.000 A 
ATOM      7  C   UNL     1       1.143   4.114  20.678  0.00  0.00    +0.000 A 
ATOM      8  C   UNL     1       1.833   5.048  19.908  0.00  0.00    +0.000 A 
ATOM      9  C   UNL     1       2.703   4.622  18.888  0.00  0.00    +0.000 A 
ATOM     10  C   UNL     1       3.410   5.534  18.089  0.00  0.00    +0.000 A 
ENDROOT
BRANCH   1  12
ATOM     11  N   UNL     1       5.613   6.677  15.592  0.00  0.00    +0.000 NA
ATOM     12  C   UNL     1       5.014   5.949  16.270  0.00  0.00    +0.000 C 
ENDBRANCH   1  12
TORSDOF 1
ENDMDL
MODEL 9
REMARK VINA RESULT:      -5.8      2.436      3.844
REMARK  Name = 
REMARK  1 active torsions:
REMARK  status: ('A' for Active; 'I' for Inactive)
REMARK    1  A    between atoms: C_2  and  C_3
REMARK                            x       y       z     vdW  Elec       q    Type
REMARK                         _______ _______ _______ _____ _____    ______ ____
ROOT
ATOM      1  C   UNL     1       6.026   4.150  14.266  0.00  0.00    +0.000 A 
ATOM      2  C   UNL     1       7.134   4.973  14.364  0.00  0.00    +0.000 A 
ATOM      3  N   UNL     1       7.576   5.509  15.525  0.00  0.00    +0.000 NA
ATOM      4  C   UNL     1       6.892   5.233  16.649  0.00  0.00    +0.000 A 
ATOM      5  C   UNL     1       7.323   5.768  17.853  0.00  0.00    +0.000 A 
ATOM      6  C   UNL     1       6.642   5.526  19.049  0.00  0.00    +0.000 A 
ATOM      7  C   UNL     1       5.499   4.734  19.047  0.00  0.00    +0.000 A 
ATOM      8  C   UNL     1       5.048   4.175  17.853  0.00  0.00    +0.000 A 
ATOM      9  C   UNL     1       5.739   4.416  16.652  0.00  0.00    +0.000 A 
ATOM     10  C   UNL     1       5.318   3.866  15.431  0.00  0.00    +0.000 A 
ENDROOT
BRANCH   1  12
ATOM     11  N   UNL     1       5.313   3.186  11.975  0.00  0.00    +0.000 NA
ATOM     12  C   UNL     1       5.635   3.616  13.004  0.00  0.00    +0.000 C 
ENDBRANCH   1  12
TORSDOF 1
ENDMDL
