MODEL 1
REMARK VINA RESULT:      -7.3      0.000      0.000
REMARK  Name = 
REMARK  3 active torsions:
REMARK  status: ('A' for Active; 'I' for Inactive)
REMARK    1  A    between atoms: O_1  and  C_2
REMARK    2  A    between atoms: C_2  and  C_3
REMARK    3  A    between atoms: C_8  and  C_9
REMARK                            x       y       z     vdW  Elec       q    Type
REMARK                         _______ _______ _______ _____ _____    ______ ____
ROOT
ATOM      1  C   UNL     1       2.457   2.989  18.433  0.00  0.00    +0.000 C 
ATOM      2  C   UNL     1       1.648   2.110  19.368  0.00  0.00    +0.000 C 
ATOM      3  N   UNL     1       1.627   2.628  20.735  0.00  0.00    +0.000 NA
ATOM      4  C   UNL     1       1.070   3.980  20.749  0.00  0.00    +0.000 C 
ATOM      5  C   UNL     1       2.019   4.989  20.103  0.00  0.00    +0.000 C 
ATOM      6  C   UNL     1       2.680   4.470  18.826  0.00  0.00    +0.000 C 
ATOM      7  C   UNL     1       1.735   4.107  17.705  0.00  0.00    +0.000 C 
ATOM      8  H   UNL     1       2.579   2.649  21.095  0.00  0.00    +0.000 HD
ENDROOT
BRANCH   6   9
ATOM      9  C   UNL     1       3.958   5.214  18.451  0.00  0.00    +0.000 A 
ATOM     10  C   UNL     1       3.989   6.071  17.337  0.00  0.00    +0.000 A 
ATOM     11  C   UNL     1       5.155   6.738  16.948  0.00  0.00    +0.000 A 
ATOM     12  C   UNL     1       6.329   6.575  17.679  0.00  0.00    +0.000 A 
ATOM     13 CL   UNL     1       7.747   7.383  17.118  0.00  0.00    +0.000 Cl
ATOM     14  C   UNL     1       6.320   5.765  18.820  0.00  0.00    +0.000 A 
ATOM     15 CL   UNL     1       7.727   5.538  19.799  0.00  0.00    +0.000 Cl
ATOM     16  C   UNL     1       5.143   5.102  19.202  0.00  0.00    +0.000 A 
ENDBRANCH   6   9
BRANCH   1  17
ATOM     17  C   UNL     1       3.390   2.190  17.549  0.00  0.00    +0.000 C 
BRANCH  17  18
ATOM     18  O   UNL     1       4.055   1.241  18.375  0.00  0.00    +0.000 OA
ATOM     19  H   UNL     1       4.488   0.598  17.786  0.00  0.00    +0.000 HD
ENDBRANCH  17  18
ENDBRANCH   1  17
TORSDOF 3
ENDMDL
MODEL 2
REMARK VINA RESULT:      -6.8      0.855      1.779
REMARK  Name = 
REMARK  3 active torsions:
REMARK  status: ('A' for Active; 'I' for Inactive)
REMARK    1  A    between atoms: O_1  and  C_2
REMARK    2  A    between atoms: C_2  and  C_3
REMARK    3  A    between atoms: C_8  and  C_9
REMARK                            x       y       z     vdW  Elec       q    Type
REMARK                         _______ _______ _______ _____ _____    ______ ____
ROOT
ATOM      1  C   UNL     1       2.499   2.673  18.638  0.00  0.00    +0.000 C 
ATOM      2  C   UNL     1       1.749   1.828  19.651  0.00  0.00    +0.000 C 
ATOM      3  N   UNL     1       1.782   2.411  20.992  0.00  0.00    +0.000 NA
ATOM      4  C   UNL     1       1.205   3.754  20.967  0.00  0.00    +0.000 C 
ATOM      5  C   UNL     1       2.107   4.744  20.230  0.00  0.00    +0.000 C 
ATOM      6  C   UNL     1       2.717   4.174  18.950  0.00  0.00    +0.000 C 
ATOM      7  C   UNL     1       1.727   3.744  17.892  0.00  0.00    +0.000 C 
ATOM      8  H   UNL     1       2.750   2.463  21.305  0.00  0.00    +0.000 HD
ENDROOT
BRANCH   6   9
ATOM      9  C   UNL     1       3.965   4.916  18.481  0.00  0.00    +0.000 A 
ATOM     10  C   UNL     1       5.092   5.020  19.313  0.00  0.00    +0.000 A 
ATOM     11  C   UNL     1       6.236   5.725  18.925  0.00  0.00    +0.000 A 
ATOM     12  C   UNL     1       6.288   6.336  17.675  0.00  0.00    +0.000 A 
ATOM     13 CL   UNL     1       7.708   7.235  17.276  0.00  0.00    +0.000 Cl
ATOM     14  C   UNL     1       5.201   6.212  16.805  0.00  0.00    +0.000 A 
ATOM     15 CL   UNL     1       5.201   6.914  15.225  0.00  0.00    +0.000 Cl
ATOM     16  C   UNL     1       4.058   5.501  17.204  0.00  0.00    +0.000 A 
ENDBRANCH   6   9
BRANCH   1  17
ATOM     17  C   UNL     1       3.404   1.845  17.751  0.00  0.00    +0.000 C 
BRANCH  17  18
ATOM     18  O   UNL     1       4.047   0.880  18.575  0.00  0.00    +0.000 OA
ATOM     19  H   UNL     1       4.788   1.328  19.021  0.00  0.00    +0.000 HD
ENDBRANCH  17  18
ENDBRANCH   1  17
TORSDOF 3
ENDMDL
MODEL 3
REMARK VINA RESULT:      -6.8      1.792      2.040
REMARK  Name = 
REMARK  3 active torsions:
REMARK  status: ('A' for Active; 'I' for Inactive)
REMARK    1  A    between atoms: O_1  and  C_2
REMARK    2  A    between atoms: C_2  and  C_3
REMARK    3  A    between atoms: C_8  and  C_9
REMARK                            x       y       z     vdW  Elec       q    Type
REMARK                         _______ _______ _______ _____ _____    ______ ____
ROOT
ATOM      1  C   UNL     1       2.995   3.199  19.485  0.00  0.00    +0.000 C 
ATOM      2  C   UNL     1       2.423   3.283  20.888  0.00  0.00    +0.000 C 
ATOM      3  N   UNL     1       2.490   4.638  21.433  0.00  0.00    +0.000 NA
ATOM      4  C   UNL     1       1.764   5.563  20.565  0.00  0.00    +0.000 C 
ATOM      5  C   UNL     1       2.490   5.780  19.237  0.00  0.00    +0.000 C 
ATOM      6  C   UNL     1       3.064   4.495  18.641  0.00  0.00    +0.000 C 
ATOM      7  C   UNL     1       2.053   3.419  18.318  0.00  0.00    +0.000 C 
ATOM      8  H   UNL     1       3.466   4.922  21.492  0.00  0.00    +0.000 HD
ENDROOT
BRANCH   6   9
ATOM      9  C   UNL     1       4.180   4.732  17.629  0.00  0.00    +0.000 A 
ATOM     10  C   UNL     1       4.194   4.047  16.402  0.00  0.00    +0.000 A 
ATOM     11  C   UNL     1       5.224   4.217  15.470  0.00  0.00    +0.000 A 
ATOM     12  C   UNL     1       6.268   5.098  15.738  0.00  0.00    +0.000 A 
ATOM     13 CL   UNL     1       7.535   5.225  14.572  0.00  0.00    +0.000 Cl
ATOM     14  C   UNL     1       6.260   5.830  16.930  0.00  0.00    +0.000 A 
ATOM     15 CL   UNL     1       7.503   6.966  17.321  0.00  0.00    +0.000 Cl
ATOM     16  C   UNL     1       5.220   5.652  17.857  0.00  0.00    +0.000 A 
ENDBRANCH   6   9
BRANCH   1  17
ATOM     17  C   UNL     1       3.919   2.013  19.307  0.00  0.00    +0.000 C 
BRANCH  17  18
ATOM     18  O   UNL     1       5.086   2.259  20.082  0.00  0.00    +0.000 OA
ATOM     19  H   UNL     1       5.810   1.740  19.688  0.00  0.00    +0.000 HD
ENDBRANCH  17  18
ENDBRANCH   1  17
TORSDOF 3
ENDMDL
MODEL 4
REMARK VINA RESULT:      -6.5      1.630      2.200
REMARK  Name = 
REMARK  3 active torsions:
REMARK  status: ('A' for Active; 'I' for Inactive)
REMARK    1  A    between atoms: O_1  and  C_2
REMARK    2  A    between atoms: C_2  and  C_3
REMARK    3  A    between atoms: C_8  and  C_9
REMARK                            x       y       z     vdW  Elec       q    Type
REMARK                         _______ _______ _______ _____ _____    ______ ____
ROOT
ATOM      1  C   UNL     1       3.126   2.426  19.617  0.00  0.00    +0.000 C 
ATOM      2  C   UNL     1       1.822   2.139  20.338  0.00  0.00    +0.000 C 
ATOM      3  N   UNL     1       0.806   3.156  20.072  0.00  0.00    +0.000 NA
ATOM      4  C   UNL     1       0.548   3.241  18.635  0.00  0.00    +0.000 C 
ATOM      5  C   UNL     1       1.731   3.852  17.884  0.00  0.00    +0.000 C 
ATOM      6  C   UNL     1       3.088   3.340  18.367  0.00  0.00    +0.000 C 
ATOM      7  C   UNL     1       3.310   1.852  18.226  0.00  0.00    +0.000 C 
ATOM      8  H   UNL     1       1.142   4.055  20.410  0.00  0.00    +0.000 HD
ENDROOT
BRANCH   6   9
ATOM      9  C   UNL     1       4.253   4.259  18.012  0.00  0.00    +0.000 A 
ATOM     10  C   UNL     1       4.577   5.354  18.832  0.00  0.00    +0.000 A 
ATOM     11  C   UNL     1       5.616   6.235  18.513  0.00  0.00    +0.000 A 
ATOM     12  C   UNL     1       6.374   6.032  17.363  0.00  0.00    +0.000 A 
ATOM     13 CL   UNL     1       7.608   7.183  16.998  0.00  0.00    +0.000 Cl
ATOM     14  C   UNL     1       6.107   4.926  16.551  0.00  0.00    +0.000 A 
ATOM     15 CL   UNL     1       7.023   4.587  15.124  0.00  0.00    +0.000 Cl
ATOM     16  C   UNL     1       5.062   4.047  16.881  0.00  0.00    +0.000 A 
ENDBRANCH   6   9
BRANCH   1  17
ATOM     17  C   UNL     1       4.333   2.254  20.513  0.00  0.00    +0.000 C 
BRANCH  17  18
ATOM     18  O   UNL     1       5.175   1.275  19.915  0.00  0.00    +0.000 OA
ATOM     19  H   UNL     1       4.603   0.673  19.407  0.00  0.00    +0.000 HD
ENDBRANCH  17  18
ENDBRANCH   1  17
TORSDOF 3
ENDMDL
MODEL 5
REMARK VINA RESULT:      -6.5      3.955      4.829
REMARK  Name = 
REMARK  3 active torsions:
REMARK  status: ('A' for Active; 'I' for Inactive)
REMARK    1  A    between atoms: O_1  and  C_2
REMARK    2  A    between atoms: C_2  and  C_3
REMARK    3  A    between atoms: C_8  and  C_9
REMARK                            x       y       z     vdW  Elec       q    Type
REMARK                         _______ _______ _______ _____ _____    ______ ____
ROOT
ATOM      1  C   UNL     1       3.127   4.586  18.243  0.00  0.00    +0.000 C 
ATOM      2  C   UNL     1       3.832   3.645  17.284  0.00  0.00    +0.000 C 
ATOM      3  N   UNL     1       4.596   4.364  16.265  0.00  0.00    +0.000 NA
ATOM      4  C   UNL     1       5.588   5.229  16.901  0.00  0.00    +0.000 C 
ATOM      5  C   UNL     1       4.931   6.411  17.616  0.00  0.00    +0.000 C 
ATOM      6  C   UNL     1       3.671   6.028  18.392  0.00  0.00    +0.000 C 
ATOM      7  C   UNL     1       3.868   5.014  19.494  0.00  0.00    +0.000 C 
ATOM      8  H   UNL     1       3.957   4.930  15.711  0.00  0.00    +0.000 HD
ENDROOT
BRANCH   6   9
ATOM      9  C   UNL     1       2.747   7.206  18.681  0.00  0.00    +0.000 A 
ATOM     10  C   UNL     1       2.414   8.122  17.668  0.00  0.00    +0.000 A 
ATOM     11  C   UNL     1       1.599   9.232  17.912  0.00  0.00    +0.000 A 
ATOM     12  C   UNL     1       1.076   9.448  19.185  0.00  0.00    +0.000 A 
ATOM     13 CL   UNL     1       0.119  10.863  19.435  0.00  0.00    +0.000 Cl
ATOM     14  C   UNL     1       1.350   8.529  20.203  0.00  0.00    +0.000 A 
ATOM     15 CL   UNL     1       0.713   8.709  21.801  0.00  0.00    +0.000 Cl
ATOM     16  C   UNL     1       2.169   7.418  19.947  0.00  0.00    +0.000 A 
ENDBRANCH   6   9
BRANCH   1  17
ATOM     17  C   UNL     1       1.689   4.186  18.493  0.00  0.00    +0.000 C 
BRANCH  17  18
ATOM     18  O   UNL     1       1.039   4.108  17.231  0.00  0.00    +0.000 OA
ATOM     19  H   UNL     1       1.678   4.401  16.557  0.00  0.00    +0.000 HD
ENDBRANCH  17  18
ENDBRANCH   1  17
TORSDOF 3
ENDMDL
MODEL 6
REMARK VINA RESULT:      -6.5      3.716      5.686
REMARK  Name = 
REMARK  3 active torsions:
REMARK  status: ('A' for Active; 'I' for Inactive)
REMARK    1  A    between atoms: O_1  and  C_2
REMARK    2  A    between atoms: C_2  and  C_3
REMARK    3  A    between atoms: C_8  and  C_9
REMARK                            x       y       z     vdW  Elec       q    Type
REMARK                         _______ _______ _______ _____ _____    ______ ____
ROOT
ATOM      1  C   UNL     1       6.270   5.537  17.824  0.00  0.00    +0.000 C 
ATOM      2  C   UNL     1       7.638   5.553  17.169  0.00  0.00    +0.000 C 
ATOM      3  N   UNL     1       7.706   4.667  16.007  0.00  0.00    +0.000 NA
ATOM      4  C   UNL     1       6.699   5.059  15.021  0.00  0.00    +0.000 C 
ATOM      5  C   UNL     1       5.283   4.746  15.505  0.00  0.00    +0.000 C 
ATOM      6  C   UNL     1       5.054   5.088  16.977  0.00  0.00    +0.000 C 
ATOM      7  C   UNL     1       5.240   6.541  17.345  0.00  0.00    +0.000 C 
ATOM      8  H   UNL     1       7.531   3.711  16.310  0.00  0.00    +0.000 HD
ENDROOT
BRANCH   6   9
ATOM      9  C   UNL     1       3.871   4.353  17.601  0.00  0.00    +0.000 A 
ATOM     10  C   UNL     1       3.517   3.065  17.164  0.00  0.00    +0.000 A 
ATOM     11  C   UNL     1       2.416   2.381  17.691  0.00  0.00    +0.000 A 
ATOM     12  C   UNL     1       1.644   2.968  18.690  0.00  0.00    +0.000 A 
ATOM     13 CL   UNL     1       0.269   2.095  19.264  0.00  0.00    +0.000 Cl
ATOM     14  C   UNL     1       1.998   4.229  19.180  0.00  0.00    +0.000 A 
ATOM     15 CL   UNL     1       1.110   5.011  20.441  0.00  0.00    +0.000 Cl
ATOM     16  C   UNL     1       3.106   4.906  18.644  0.00  0.00    +0.000 A 
ENDBRANCH   6   9
BRANCH   1  17
ATOM     17  C   UNL     1       6.351   5.419  19.331  0.00  0.00    +0.000 C 
BRANCH  17  18
ATOM     18  O   UNL     1       7.727   5.353  19.683  0.00  0.00    +0.000 OA
ATOM     19  H   UNL     1       8.226   5.818  18.988  0.00  0.00    +0.000 HD
ENDBRANCH  17  18
ENDBRANCH   1  17
TORSDOF 3
ENDMDL
MODEL 7
REMARK VINA RESULT:      -6.5      3.275      4.340
REMARK  Name = 
REMARK  3 active torsions:
REMARK  status: ('A' for Active; 'I' for Inactive)
REMARK    1  A    between atoms: O_1  and  C_2
REMARK    2  A    between atoms: C_2  and  C_3
REMARK    3  A    between atoms: C_8  and  C_9
REMARK                            x       y       z     vdW  Elec       q    Type
REMARK                         _______ _______ _______ _____ _____    ______ ____
ROOT
ATOM      1  C   UNL     1       4.136   4.319  18.630  0.00  0.00    +0.000 C 
ATOM      2  C   UNL     1       4.297   2.813  18.710  0.00  0.00    +0.000 C 
ATOM      3  N   UNL     1       3.049   2.140  19.070  0.00  0.00    +0.000 NA
ATOM      4  C   UNL     1       2.010   2.458  18.092  0.00  0.00    +0.000 C 
ATOM      5  C   UNL     1       1.561   3.915  18.199  0.00  0.00    +0.000 C 
ATOM      6  C   UNL     1       2.717   4.895  18.400  0.00  0.00    +0.000 C 
ATOM      7  C   UNL     1       3.747   4.923  17.295  0.00  0.00    +0.000 C 
ATOM      8  H   UNL     1       2.757   2.458  19.992  0.00  0.00    +0.000 HD
ENDROOT
BRANCH   6   9
ATOM      9  C   UNL     1       2.291   6.234  18.995  0.00  0.00    +0.000 A 
ATOM     10  C   UNL     1       1.851   6.319  20.328  0.00  0.00    +0.000 A 
ATOM     11  C   UNL     1       1.420   7.525  20.889  0.00  0.00    +0.000 A 
ATOM     12  C   UNL     1       1.432   8.692  20.130  0.00  0.00    +0.000 A 
ATOM     13 CL   UNL     1       0.839  10.138  20.864  0.00  0.00    +0.000 Cl
ATOM     14  C   UNL     1       1.908   8.650  18.815  0.00  0.00    +0.000 A 
ATOM     15 CL   UNL     1       1.985  10.060  17.818  0.00  0.00    +0.000 Cl
ATOM     16  C   UNL     1       2.340   7.434  18.262  0.00  0.00    +0.000 A 
ENDBRANCH   6   9
BRANCH   1  17
ATOM     17  C   UNL     1       5.255   5.059  19.331  0.00  0.00    +0.000 C 
BRANCH  17  18
ATOM     18  O   UNL     1       6.475   4.411  18.994  0.00  0.00    +0.000 OA
ATOM     19  H   UNL     1       6.949   4.236  19.826  0.00  0.00    +0.000 HD
ENDBRANCH  17  18
ENDBRANCH   1  17
TORSDOF 3
ENDMDL
MODEL 8
REMARK VINA RESULT:      -6.4      3.559      5.536
REMARK  Name = 
REMARK  3 active torsions:
REMARK  status: ('A' for Active; 'I' for Inactive)
REMARK    1  A    between atoms: O_1  and  C_2
REMARK    2  A    between atoms: C_2  and  C_3
REMARK    3  A    between atoms: C_8  and  C_9
REMARK                            x       y       z     vdW  Elec       q    Type
REMARK                         _______ _______ _______ _____ _____    ______ ____
ROOT
ATOM      1  C   UNL     1       6.413   5.734  17.366  0.00  0.00    +0.000 C 
ATOM      2  C   UNL     1       7.459   5.563  16.281  0.00  0.00    +0.000 C 
ATOM      3  N   UNL     1       7.191   4.404  15.430  0.00  0.00    +0.000 NA
ATOM      4  C   UNL     1       5.874   4.535  14.808  0.00  0.00    +0.000 C 
ATOM      5  C   UNL     1       4.748   4.375  15.830  0.00  0.00    +0.000 C 
ATOM      6  C   UNL     1       5.020   5.092  17.152  0.00  0.00    +0.000 C 
ATOM      7  C   UNL     1       5.200   6.589  17.056  0.00  0.00    +0.000 C 
ATOM      8  H   UNL     1       7.214   3.562  16.003  0.00  0.00    +0.000 HD
ENDROOT
BRANCH   6   9
ATOM      9  C   UNL     1       4.197   4.558  18.321  0.00  0.00    +0.000 A 
ATOM     10  C   UNL     1       4.329   3.223  18.741  0.00  0.00    +0.000 A 
ATOM     11  C   UNL     1       3.562   2.696  19.785  0.00  0.00    +0.000 A 
ATOM     12  C   UNL     1       2.646   3.503  20.453  0.00  0.00    +0.000 A 
ATOM     13 CL   UNL     1       1.692   2.781  21.698  0.00  0.00    +0.000 Cl
ATOM     14  C   UNL     1       2.523   4.849  20.091  0.00  0.00    +0.000 A 
ATOM     15 CL   UNL     1       1.432   5.923  20.892  0.00  0.00    +0.000 Cl
ATOM     16  C   UNL     1       3.300   5.368  19.042  0.00  0.00    +0.000 A 
ENDBRANCH   6   9
BRANCH   1  17
ATOM     17  C   UNL     1       7.025   6.014  18.722  0.00  0.00    +0.000 C 
BRANCH  17  18
ATOM     18  O   UNL     1       7.947   4.967  19.001  0.00  0.00    +0.000 OA
ATOM     19  H   UNL     1       8.649   5.342  19.562  0.00  0.00    +0.000 HD
ENDBRANCH  17  18
ENDBRANCH   1  17
TORSDOF 3
ENDMDL
MODEL 9
REMARK VINA RESULT:      -6.4      3.733      4.477
REMARK  Name = 
REMARK  3 active torsions:
REMARK  status: ('A' for Active; 'I' for Inactive)
REMARK    1  A    between atoms: O_1  and  C_2
REMARK    2  A    between atoms: C_2  and  C_3
REMARK    3  A    between atoms: C_8  and  C_9
REMARK                            x       y       z     vdW  Elec       q    Type
REMARK                         _______ _______ _______ _____ _____    ______ ____
ROOT
ATOM      1  C   UNL     1       2.605   4.006  19.226  0.00  0.00    +0.000 C 
ATOM      2  C   UNL     1       3.416   2.852  18.667  0.00  0.00    +0.000 C 
ATOM      3  N   UNL     1       4.621   3.307  17.973  0.00  0.00    +0.000 NA
ATOM      4  C   UNL     1       5.459   4.084  18.884  0.00  0.00    +0.000 C 
ATOM      5  C   UNL     1       4.827   5.434  19.221  0.00  0.00    +0.000 C 
ATOM      6  C   UNL     1       3.322   5.353  19.482  0.00  0.00    +0.000 C 
ATOM      7  C   UNL     1       2.908   4.472  20.636  0.00  0.00    +0.000 C 
ATOM      8  H   UNL     1       4.347   3.889  17.184  0.00  0.00    +0.000 HD
ENDROOT
BRANCH   6   9
ATOM      9  C   UNL     1       2.599   6.688  19.324  0.00  0.00    +0.000 A 
ATOM     10  C   UNL     1       2.593   7.358  18.089  0.00  0.00    +0.000 A 
ATOM     11  C   UNL     1       1.970   8.600  17.924  0.00  0.00    +0.000 A 
ATOM     12  C   UNL     1       1.317   9.200  18.997  0.00  0.00    +0.000 A 
ATOM     13 CL   UNL     1       0.612  10.756  18.743  0.00  0.00    +0.000 Cl
ATOM     14  C   UNL     1       1.265   8.537  20.227  0.00  0.00    +0.000 A 
ATOM     15 CL   UNL     1       0.447   9.202  21.598  0.00  0.00    +0.000 Cl
ATOM     16  C   UNL     1       1.893   7.291  20.381  0.00  0.00    +0.000 A 
ENDBRANCH   6   9
BRANCH   1  17
ATOM     17  C   UNL     1       1.126   3.867  18.934  0.00  0.00    +0.000 C 
BRANCH  17  18
ATOM     18  O   UNL     1       0.487   3.463  20.139  0.00  0.00    +0.000 OA
ATOM     19  H   UNL     1       0.880   2.611  20.403  0.00  0.00    +0.000 HD
ENDBRANCH  17  18
ENDBRANCH   1  17
TORSDOF 3
ENDMDL
