MODEL 1
REMARK VINA RESULT:      -7.2      0.000      0.000
REMARK  Name = 
REMARK  3 active torsions:
REMARK  status: ('A' for Active; 'I' for Inactive)
REMARK    1  A    between atoms: C_8  and  C_9
REMARK    2  A    between atoms: C_10  and  S_11
REMARK    3  A    between atoms: S_11  and  C_12
REMARK                            x       y       z     vdW  Elec       q    Type
REMARK                         _______ _______ _______ _____ _____    ______ ____
ROOT
ATOM      1  O   UNL     1       3.136   2.132  22.140  0.00  0.00    +0.000 OA
ATOM      2  N   UNL     1       2.491   2.654  21.202  0.00  0.00    +0.000 N 
ATOM      3  O   UNL     1       1.067   2.680  21.336  0.00  0.00    +0.000 OA
ATOM      4  N   UNL     1       0.536   3.294  20.207  0.00  0.00    +0.000 NA
ATOM      5  C   UNL     1       1.570   3.626  19.422  0.00  0.00    +0.000 A 
ATOM      6  C   UNL     1       1.564   4.270  18.174  0.00  0.00    +0.000 A 
ATOM      7  C   UNL     1       2.848   4.467  17.613  0.00  0.00    +0.000 A 
ATOM      8  C   UNL     1       4.074   4.045  18.228  0.00  0.00    +0.000 A 
ATOM      9  C   UNL     1       4.088   3.414  19.496  0.00  0.00    +0.000 A 
ATOM     10  C   UNL     1       2.814   3.226  20.039  0.00  0.00    +0.000 A 
ENDROOT
BRANCH   8  11
ATOM     11  C   UNL     1       5.378   4.297  17.575  0.00  0.00    +0.000 C 
ATOM     12  C   UNL     1       5.643   5.339  16.769  0.00  0.00    +0.000 C 
BRANCH  12  13
ATOM     13  S   UNL     1       7.162   5.504  15.957  0.00  0.00    +0.000 S 
BRANCH  13  14
ATOM     14  C   UNL     1       6.860   4.795  14.341  0.00  0.00    +0.000 A 
ATOM     15  C   UNL     1       7.715   5.198  13.304  0.00  0.00    +0.000 A 
ATOM     16  C   UNL     1       7.569   4.696  12.008  0.00  0.00    +0.000 A 
ATOM     17  C   UNL     1       6.567   3.770  11.732  0.00  0.00    +0.000 A 
ATOM     18  C   UNL     1       5.726   3.338  12.756  0.00  0.00    +0.000 A 
ATOM     19  C   UNL     1       5.875   3.843  14.055  0.00  0.00    +0.000 A 
ENDBRANCH  13  14
ENDBRANCH  12  13
ENDBRANCH   8  11
TORSDOF 3
ENDMDL
MODEL 2
REMARK VINA RESULT:      -7.1      5.473      8.252
REMARK  Name = 
REMARK  3 active torsions:
REMARK  status: ('A' for Active; 'I' for Inactive)
REMARK    1  A    between atoms: C_8  and  C_9
REMARK    2  A    between atoms: C_10  and  S_11
REMARK    3  A    between atoms: S_11  and  C_12
REMARK                            x       y       z     vdW  Elec       q    Type
REMARK                         _______ _______ _______ _____ _____    ______ ____
ROOT
ATOM      1  O   UNL     1       6.827   5.560  14.849  0.00  0.00    +0.000 OA
ATOM      2  N   UNL     1       6.691   5.321  16.070  0.00  0.00    +0.000 N 
ATOM      3  O   UNL     1       7.716   4.540  16.691  0.00  0.00    +0.000 OA
ATOM      4  N   UNL     1       7.390   4.385  18.034  0.00  0.00    +0.000 NA
ATOM      5  C   UNL     1       6.232   5.030  18.231  0.00  0.00    +0.000 A 
ATOM      6  C   UNL     1       5.487   5.174  19.412  0.00  0.00    +0.000 A 
ATOM      7  C   UNL     1       4.297   5.925  19.265  0.00  0.00    +0.000 A 
ATOM      8  C   UNL     1       3.848   6.495  18.026  0.00  0.00    +0.000 A 
ATOM      9  C   UNL     1       4.605   6.371  16.836  0.00  0.00    +0.000 A 
ATOM     10  C   UNL     1       5.778   5.627  16.995  0.00  0.00    +0.000 A 
ENDROOT
BRANCH   8  11
ATOM     11  C   UNL     1       2.592   7.274  17.960  0.00  0.00    +0.000 C 
ATOM     12  C   UNL     1       2.513   8.612  18.059  0.00  0.00    +0.000 C 
BRANCH  12  13
ATOM     13  S   UNL     1       0.994   9.440  18.081  0.00  0.00    +0.000 S 
BRANCH  13  14
ATOM     14  C   UNL     1       0.613   9.587  19.823  0.00  0.00    +0.000 A 
ATOM     15  C   UNL     1       1.242   8.677  20.687  0.00  0.00    +0.000 A 
ATOM     16  C   UNL     1       1.018   8.714  22.066  0.00  0.00    +0.000 A 
ATOM     17  C   UNL     1       0.165   9.673  22.605  0.00  0.00    +0.000 A 
ATOM     18  C   UNL     1      -0.448  10.600  21.764  0.00  0.00    +0.000 A 
ATOM     19  C   UNL     1      -0.221  10.562  20.382  0.00  0.00    +0.000 A 
ENDBRANCH  13  14
ENDBRANCH  12  13
ENDBRANCH   8  11
TORSDOF 3
ENDMDL
MODEL 3
REMARK VINA RESULT:      -7.0      4.451      5.292
REMARK  Name = 
REMARK  3 active torsions:
REMARK  status: ('A' for Active; 'I' for Inactive)
REMARK    1  A    between atoms: C_8  and  C_9
REMARK    2  A    between atoms: C_10  and  S_11
REMARK    3  A    between atoms: S_11  and  C_12
REMARK                            x       y       z     vdW  Elec       q    Type
REMARK                         _______ _______ _______ _____ _____    ______ ____
ROOT
ATOM      1  O   UNL     1       0.447   9.113  22.637  0.00  0.00    +0.000 OA
ATOM      2  N   UNL     1       0.559   9.434  21.432  0.00  0.00    +0.000 N 
ATOM      3  O   UNL     1      -0.086  10.644  21.025  0.00  0.00    +0.000 OA
ATOM      4  N   UNL     1       0.153  10.828  19.668  0.00  0.00    +0.000 NA
ATOM      5  C   UNL     1       0.899   9.793  19.260  0.00  0.00    +0.000 A 
ATOM      6  C   UNL     1       1.407   9.516  17.980  0.00  0.00    +0.000 A 
ATOM      7  C   UNL     1       2.163   8.323  17.898  0.00  0.00    +0.000 A 
ATOM      8  C   UNL     1       2.400   7.437  19.001  0.00  0.00    +0.000 A 
ATOM      9  C   UNL     1       1.908   7.721  20.298  0.00  0.00    +0.000 A 
ATOM     10  C   UNL     1       1.163   8.902  20.366  0.00  0.00    +0.000 A 
ENDROOT
BRANCH   8  11
ATOM     11  C   UNL     1       3.209   6.210  18.829  0.00  0.00    +0.000 C 
ATOM     12  C   UNL     1       3.044   5.077  19.533  0.00  0.00    +0.000 C 
BRANCH  12  13
ATOM     13  S   UNL     1       4.103   3.722  19.348  0.00  0.00    +0.000 S 
BRANCH  13  14
ATOM     14  C   UNL     1       5.061   4.125  17.891  0.00  0.00    +0.000 A 
ATOM     15  C   UNL     1       6.368   4.593  18.102  0.00  0.00    +0.000 A 
ATOM     16  C   UNL     1       7.200   4.927  17.031  0.00  0.00    +0.000 A 
ATOM     17  C   UNL     1       6.740   4.786  15.725  0.00  0.00    +0.000 A 
ATOM     18  C   UNL     1       5.455   4.298  15.496  0.00  0.00    +0.000 A 
ATOM     19  C   UNL     1       4.622   3.964  16.572  0.00  0.00    +0.000 A 
ENDBRANCH  13  14
ENDBRANCH  12  13
ENDBRANCH   8  11
TORSDOF 3
ENDMDL
MODEL 4
REMARK VINA RESULT:      -6.9      5.045      8.144
REMARK  Name = 
REMARK  3 active torsions:
REMARK  status: ('A' for Active; 'I' for Inactive)
REMARK    1  A    between atoms: C_8  and  C_9
REMARK    2  A    between atoms: C_10  and  S_11
REMARK    3  A    between atoms: S_11  and  C_12
REMARK                            x       y       z     vdW  Elec       q    Type
REMARK                         _______ _______ _______ _____ _____    ______ ____
ROOT
ATOM      1  O   UNL     1       1.941   2.960  21.432  0.00  0.00    +0.000 OA
ATOM      2  N   UNL     1       2.872   3.265  20.652  0.00  0.00    +0.000 N 
ATOM      3  O   UNL     1       3.936   2.318  20.519  0.00  0.00    +0.000 OA
ATOM      4  N   UNL     1       4.863   2.830  19.618  0.00  0.00    +0.000 NA
ATOM      5  C   UNL     1       4.400   4.024  19.220  0.00  0.00    +0.000 A 
ATOM      6  C   UNL     1       4.965   4.936  18.315  0.00  0.00    +0.000 A 
ATOM      7  C   UNL     1       4.205   6.114  18.122  0.00  0.00    +0.000 A 
ATOM      8  C   UNL     1       2.965   6.396  18.788  0.00  0.00    +0.000 A 
ATOM      9  C   UNL     1       2.380   5.470  19.686  0.00  0.00    +0.000 A 
ATOM     10  C   UNL     1       3.141   4.312  19.868  0.00  0.00    +0.000 A 
ENDROOT
BRANCH   8  11
ATOM     11  C   UNL     1       2.230   7.652  18.524  0.00  0.00    +0.000 C 
ATOM     12  C   UNL     1       1.724   8.459  19.472  0.00  0.00    +0.000 C 
BRANCH  12  13
ATOM     13  S   UNL     1       0.782   9.855  19.078  0.00  0.00    +0.000 S 
BRANCH  13  14
ATOM     14  C   UNL     1      -0.004  10.290  20.627  0.00  0.00    +0.000 A 
ATOM     15  C   UNL     1       0.162   9.393  21.694  0.00  0.00    +0.000 A 
ATOM     16  C   UNL     1      -0.405   9.644  22.946  0.00  0.00    +0.000 A 
ATOM     17  C   UNL     1      -1.140  10.807  23.154  0.00  0.00    +0.000 A 
ATOM     18  C   UNL     1      -1.292  11.722  22.113  0.00  0.00    +0.000 A 
ATOM     19  C   UNL     1      -0.723  11.468  20.858  0.00  0.00    +0.000 A 
ENDBRANCH  13  14
ENDBRANCH  12  13
ENDBRANCH   8  11
TORSDOF 3
ENDMDL
MODEL 5
REMARK VINA RESULT:      -6.9      4.394      5.165
REMARK  Name = 
REMARK  3 active torsions:
REMARK  status: ('A' for Active; 'I' for Inactive)
REMARK    1  A    between atoms: C_8  and  C_9
REMARK    2  A    between atoms: C_10  and  S_11
REMARK    3  A    between atoms: S_11  and  C_12
REMARK                            x       y       z     vdW  Elec       q    Type
REMARK                         _______ _______ _______ _____ _____    ______ ____
ROOT
ATOM      1  O   UNL     1       0.432   9.116  22.510  0.00  0.00    +0.000 OA
ATOM      2  N   UNL     1       0.668   9.459  21.329  0.00  0.00    +0.000 N 
ATOM      3  O   UNL     1       0.240  10.768  20.942  0.00  0.00    +0.000 OA
ATOM      4  N   UNL     1       0.589  10.963  19.610  0.00  0.00    +0.000 NA
ATOM      5  C   UNL     1       1.195   9.840  19.198  0.00  0.00    +0.000 A 
ATOM      6  C   UNL     1       1.736   9.536  17.939  0.00  0.00    +0.000 A 
ATOM      7  C   UNL     1       2.307   8.245  17.845  0.00  0.00    +0.000 A 
ATOM      8  C   UNL     1       2.338   7.293  18.919  0.00  0.00    +0.000 A 
ATOM      9  C   UNL     1       1.812   7.602  20.198  0.00  0.00    +0.000 A 
ATOM     10  C   UNL     1       1.251   8.880  20.277  0.00  0.00    +0.000 A 
ENDROOT
BRANCH   8  11
ATOM     11  C   UNL     1       2.962   5.964  18.739  0.00  0.00    +0.000 C 
ATOM     12  C   UNL     1       4.038   5.524  19.411  0.00  0.00    +0.000 C 
BRANCH  12  13
ATOM     13  S   UNL     1       4.774   3.997  19.065  0.00  0.00    +0.000 S 
BRANCH  13  14
ATOM     14  C   UNL     1       5.597   4.266  17.498  0.00  0.00    +0.000 A 
ATOM     15  C   UNL     1       4.854   3.995  16.339  0.00  0.00    +0.000 A 
ATOM     16  C   UNL     1       5.403   4.180  15.067  0.00  0.00    +0.000 A 
ATOM     17  C   UNL     1       6.705   4.653  14.936  0.00  0.00    +0.000 A 
ATOM     18  C   UNL     1       7.448   4.953  16.076  0.00  0.00    +0.000 A 
ATOM     19  C   UNL     1       6.896   4.766  17.350  0.00  0.00    +0.000 A 
ENDBRANCH  13  14
ENDBRANCH  12  13
ENDBRANCH   8  11
TORSDOF 3
ENDMDL
MODEL 6
REMARK VINA RESULT:      -6.9      5.637      7.062
REMARK  Name = 
REMARK  3 active torsions:
REMARK  status: ('A' for Active; 'I' for Inactive)
REMARK    1  A    between atoms: C_8  and  C_9
REMARK    2  A    between atoms: C_10  and  S_11
REMARK    3  A    between atoms: S_11  and  C_12
REMARK                            x       y       z     vdW  Elec       q    Type
REMARK                         _______ _______ _______ _____ _____    ______ ____
ROOT
ATOM      1  O   UNL     1       0.425   9.569  23.873  0.00  0.00    +0.000 OA
ATOM      2  N   UNL     1      -0.070  10.193  22.907  0.00  0.00    +0.000 N 
ATOM      3  O   UNL     1      -1.040  11.198  23.219  0.00  0.00    +0.000 OA
ATOM      4  N   UNL     1      -1.466  11.774  22.028  0.00  0.00    +0.000 NA
ATOM      5  C   UNL     1      -0.801  11.161  21.038  0.00  0.00    +0.000 A 
ATOM      6  C   UNL     1      -0.871  11.382  19.654  0.00  0.00    +0.000 A 
ATOM      7  C   UNL     1      -0.024  10.549  18.886  0.00  0.00    +0.000 A 
ATOM      8  C   UNL     1       0.838   9.541  19.438  0.00  0.00    +0.000 A 
ATOM      9  C   UNL     1       0.928   9.328  20.835  0.00  0.00    +0.000 A 
ATOM     10  C   UNL     1       0.086  10.158  21.581  0.00  0.00    +0.000 A 
ENDROOT
BRANCH   8  11
ATOM     11  C   UNL     1       1.698   8.716  18.562  0.00  0.00    +0.000 C 
ATOM     12  C   UNL     1       2.429   7.666  18.974  0.00  0.00    +0.000 C 
BRANCH  12  13
ATOM     13  S   UNL     1       3.495   6.818  17.908  0.00  0.00    +0.000 S 
BRANCH  13  14
ATOM     14  C   UNL     1       2.898   5.131  17.962  0.00  0.00    +0.000 A 
ATOM     15  C   UNL     1       3.708   4.154  17.362  0.00  0.00    +0.000 A 
ATOM     16  C   UNL     1       3.335   2.807  17.358  0.00  0.00    +0.000 A 
ATOM     17  C   UNL     1       2.147   2.414  17.966  0.00  0.00    +0.000 A 
ATOM     18  C   UNL     1       1.343   3.367  18.589  0.00  0.00    +0.000 A 
ATOM     19  C   UNL     1       1.719   4.717  18.592  0.00  0.00    +0.000 A 
ENDBRANCH  13  14
ENDBRANCH  12  13
ENDBRANCH   8  11
TORSDOF 3
ENDMDL
MODEL 7
REMARK VINA RESULT:      -6.9      0.470      1.204
REMARK  Name = 
REMARK  3 active torsions:
REMARK  status: ('A' for Active; 'I' for Inactive)
REMARK    1  A    between atoms: C_8  and  C_9
REMARK    2  A    between atoms: C_10  and  S_11
REMARK    3  A    between atoms: S_11  and  C_12
REMARK                            x       y       z     vdW  Elec       q    Type
REMARK                         _______ _______ _______ _____ _____    ______ ____
ROOT
ATOM      1  O   UNL     1       3.251   2.480  22.066  0.00  0.00    +0.000 OA
ATOM      2  N   UNL     1       2.482   2.815  21.136  0.00  0.00    +0.000 N 
ATOM      3  O   UNL     1       1.099   2.483  21.292  0.00  0.00    +0.000 OA
ATOM      4  N   UNL     1       0.415   2.935  20.170  0.00  0.00    +0.000 NA
ATOM      5  C   UNL     1       1.321   3.510  19.367  0.00  0.00    +0.000 A 
ATOM      6  C   UNL     1       1.136   4.122  18.117  0.00  0.00    +0.000 A 
ATOM      7  C   UNL     1       2.320   4.632  17.535  0.00  0.00    +0.000 A 
ATOM      8  C   UNL     1       3.622   4.538  18.133  0.00  0.00    +0.000 A 
ATOM      9  C   UNL     1       3.812   3.940  19.403  0.00  0.00    +0.000 A 
ATOM     10  C   UNL     1       2.634   3.441  19.966  0.00  0.00    +0.000 A 
ENDROOT
BRANCH   8  11
ATOM     11  C   UNL     1       4.810   5.105  17.458  0.00  0.00    +0.000 C 
ATOM     12  C   UNL     1       5.795   4.380  16.902  0.00  0.00    +0.000 C 
BRANCH  12  13
ATOM     13  S   UNL     1       7.206   5.118  16.227  0.00  0.00    +0.000 S 
BRANCH  13  14
ATOM     14  C   UNL     1       7.089   4.742  14.480  0.00  0.00    +0.000 A 
ATOM     15  C   UNL     1       6.120   3.801  14.099  0.00  0.00    +0.000 A 
ATOM     16  C   UNL     1       5.943   3.445  12.759  0.00  0.00    +0.000 A 
ATOM     17  C   UNL     1       6.729   4.037  11.775  0.00  0.00    +0.000 A 
ATOM     18  C   UNL     1       7.678   4.993  12.133  0.00  0.00    +0.000 A 
ATOM     19  C   UNL     1       7.854   5.348  13.477  0.00  0.00    +0.000 A 
ENDBRANCH  13  14
ENDBRANCH  12  13
ENDBRANCH   8  11
TORSDOF 3
ENDMDL
MODEL 8
REMARK VINA RESULT:      -6.8      5.295      7.042
REMARK  Name = 
REMARK  3 active torsions:
REMARK  status: ('A' for Active; 'I' for Inactive)
REMARK    1  A    between atoms: C_8  and  C_9
REMARK    2  A    between atoms: C_10  and  S_11
REMARK    3  A    between atoms: S_11  and  C_12
REMARK                            x       y       z     vdW  Elec       q    Type
REMARK                         _______ _______ _______ _____ _____    ______ ____
ROOT
ATOM      1  O   UNL     1       0.502   9.707  23.361  0.00  0.00    +0.000 OA
ATOM      2  N   UNL     1       0.559  10.194  22.209  0.00  0.00    +0.000 N 
ATOM      3  O   UNL     1       0.123  11.548  22.060  0.00  0.00    +0.000 OA
ATOM      4  N   UNL     1       0.263  11.905  20.724  0.00  0.00    +0.000 NA
ATOM      5  C   UNL     1       0.755  10.835  20.084  0.00  0.00    +0.000 A 
ATOM      6  C   UNL     1       1.077  10.685  18.726  0.00  0.00    +0.000 A 
ATOM      7  C   UNL     1       1.579   9.407  18.383  0.00  0.00    +0.000 A 
ATOM      8  C   UNL     1       1.745   8.326  19.312  0.00  0.00    +0.000 A 
ATOM      9  C   UNL     1       1.442   8.478  20.687  0.00  0.00    +0.000 A 
ATOM     10  C   UNL     1       0.947   9.744  21.013  0.00  0.00    +0.000 A 
ENDROOT
BRANCH   8  11
ATOM     11  C   UNL     1       2.284   7.021  18.870  0.00  0.00    +0.000 C 
ATOM     12  C   UNL     1       3.376   6.862  18.104  0.00  0.00    +0.000 C 
BRANCH  12  13
ATOM     13  S   UNL     1       3.881   5.306  17.540  0.00  0.00    +0.000 S 
BRANCH  13  14
ATOM     14  C   UNL     1       2.895   4.163  18.503  0.00  0.00    +0.000 A 
ATOM     15  C   UNL     1       3.348   3.874  19.800  0.00  0.00    +0.000 A 
ATOM     16  C   UNL     1       2.646   3.001  20.635  0.00  0.00    +0.000 A 
ATOM     17  C   UNL     1       1.468   2.411  20.187  0.00  0.00    +0.000 A 
ATOM     18  C   UNL     1       0.990   2.707  18.912  0.00  0.00    +0.000 A 
ATOM     19  C   UNL     1       1.695   3.583  18.077  0.00  0.00    +0.000 A 
ENDBRANCH  13  14
ENDBRANCH  12  13
ENDBRANCH   8  11
TORSDOF 3
ENDMDL
MODEL 9
REMARK VINA RESULT:      -6.8      5.207      6.347
REMARK  Name = 
REMARK  3 active torsions:
REMARK  status: ('A' for Active; 'I' for Inactive)
REMARK    1  A    between atoms: C_8  and  C_9
REMARK    2  A    between atoms: C_10  and  S_11
REMARK    3  A    between atoms: S_11  and  C_12
REMARK                            x       y       z     vdW  Elec       q    Type
REMARK                         _______ _______ _______ _____ _____    ______ ____
ROOT
ATOM      1  O   UNL     1       0.975   9.410  23.178  0.00  0.00    +0.000 OA
ATOM      2  N   UNL     1       0.686   9.995  22.110  0.00  0.00    +0.000 N 
ATOM      3  O   UNL     1      -0.056  11.213  22.222  0.00  0.00    +0.000 OA
ATOM      4  N   UNL     1      -0.276  11.707  20.941  0.00  0.00    +0.000 NA
ATOM      5  C   UNL     1       0.293  10.844  20.088  0.00  0.00    +0.000 A 
ATOM      6  C   UNL     1       0.353  10.893  18.686  0.00  0.00    +0.000 A 
ATOM      7  C   UNL     1       1.038   9.807  18.092  0.00  0.00    +0.000 A 
ATOM      8  C   UNL     1       1.624   8.721  18.826  0.00  0.00    +0.000 A 
ATOM      9  C   UNL     1       1.585   8.677  20.241  0.00  0.00    +0.000 A 
ATOM     10  C   UNL     1       0.905   9.755  20.814  0.00  0.00    +0.000 A 
ENDROOT
BRANCH   8  11
ATOM     11  C   UNL     1       2.330   7.626  18.125  0.00  0.00    +0.000 C 
ATOM     12  C   UNL     1       2.621   6.431  18.667  0.00  0.00    +0.000 C 
BRANCH  12  13
ATOM     13  S   UNL     1       3.546   5.241  17.817  0.00  0.00    +0.000 S 
BRANCH  13  14
ATOM     14  C   UNL     1       5.243   5.724  18.120  0.00  0.00    +0.000 A 
ATOM     15  C   UNL     1       5.796   6.673  17.247  0.00  0.00    +0.000 A 
ATOM     16  C   UNL     1       7.110   7.122  17.403  0.00  0.00    +0.000 A 
ATOM     17  C   UNL     1       7.891   6.634  18.447  0.00  0.00    +0.000 A 
ATOM     18  C   UNL     1       7.349   5.710  19.339  0.00  0.00    +0.000 A 
ATOM     19  C   UNL     1       6.031   5.262  19.180  0.00  0.00    +0.000 A 
ENDBRANCH  13  14
ENDBRANCH  12  13
ENDBRANCH   8  11
TORSDOF 3
ENDMDL
