MODEL 1
REMARK VINA RESULT:      -8.6      0.000      0.000
REMARK  Name = 
REMARK  4 active torsions:
REMARK  status: ('A' for Active; 'I' for Inactive)
REMARK    1  A    between atoms: C_10  and  C_11
REMARK    2  A    between atoms: C_10  and  C_19
REMARK    3  A    between atoms: C_11  and  C_12
REMARK    4  A    between atoms: C_19  and  O_21
REMARK                            x       y       z     vdW  Elec       q    Type
REMARK                         _______ _______ _______ _____ _____    ______ ____
ROOT
ATOM      1  N   UNL     1       8.706   6.432  12.010  0.00  0.00    +0.000 N 
ATOM      2  C   UNL     1       7.856   5.418  12.459  0.00  0.00    +0.000 A 
ATOM      3  C   UNL     1       7.448   4.427  11.605  0.00  0.00    +0.000 A 
ATOM      4  C   UNL     1       6.598   3.501  12.153  0.00  0.00    +0.000 A 
ATOM      5  N   UNL     1       6.188   3.544  13.428  0.00  0.00    +0.000 NA
ATOM      6  C   UNL     1       6.613   4.565  14.195  0.00  0.00    +0.000 A 
ATOM      7  N   UNL     1       6.133   4.667  15.480  0.00  0.00    +0.000 N 
ATOM      8  C   UNL     1       5.586   3.498  16.133  0.00  0.00    +0.000 C 
ATOM      9  C   UNL     1       4.288   3.926  16.813  0.00  0.00    +0.000 C 
ATOM     10  C   UNL     1       4.456   5.126  17.780  0.00  0.00    +0.000 C 
ATOM     11  C   UNL     1       5.298   6.254  17.100  0.00  0.00    +0.000 C 
ATOM     12  C   UNL     1       6.542   5.752  16.350  0.00  0.00    +0.000 C 
ATOM     13  N   UNL     1       7.442   5.510  13.727  0.00  0.00    +0.000 NA
ATOM     14  H   UNL     1       9.546   6.058  11.584  0.00  0.00    +0.000 HD
ATOM     15  H   UNL     1       8.917   7.010  12.819  0.00  0.00    +0.000 HD
ENDROOT
BRANCH  10  16
ATOM     16  C   UNL     1       5.220   4.661  19.032  0.00  0.00    +0.000 C 
ATOM     17  O   UNL     1       5.870   5.401  19.757  0.00  0.00    +0.000 OA
BRANCH  16  18
ATOM     18  O   UNL     1       5.121   3.342  19.308  0.00  0.00    +0.000 OA
ATOM     19  H   UNL     1       5.690   2.743  18.791  0.00  0.00    +0.000 HD
ENDBRANCH  16  18
ENDBRANCH  10  16
BRANCH  10  20
ATOM     20  C   UNL     1       3.071   5.689  18.267  0.00  0.00    +0.000 C 
BRANCH  20  21
ATOM     21  C   UNL     1       2.106   4.674  18.860  0.00  0.00    +0.000 A 
ATOM     22  C   UNL     1       1.734   3.562  18.085  0.00  0.00    +0.000 A 
ATOM     23  C   UNL     1       1.011   2.505  18.641  0.00  0.00    +0.000 A 
ATOM     24  C   UNL     1       0.650   2.537  19.984  0.00  0.00    +0.000 A 
ATOM     25  C   UNL     1       0.936   3.667  20.747  0.00  0.00    +0.000 A 
ATOM     26  C   UNL     1       1.620   4.747  20.179  0.00  0.00    +0.000 A 
ATOM     27 CL   UNL     1       1.817   6.162  21.155  0.00  0.00    +0.000 Cl
ENDBRANCH  20  21
ENDBRANCH  10  20
TORSDOF 4
ENDMDL
MODEL 2
REMARK VINA RESULT:      -8.5      1.120      1.440
REMARK  Name = 
REMARK  4 active torsions:
REMARK  status: ('A' for Active; 'I' for Inactive)
REMARK    1  A    between atoms: C_10  and  C_11
REMARK    2  A    between atoms: C_10  and  C_19
REMARK    3  A    between atoms: C_11  and  C_12
REMARK    4  A    between atoms: C_19  and  O_21
REMARK                            x       y       z     vdW  Elec       q    Type
REMARK                         _______ _______ _______ _____ _____    ______ ____
ROOT
ATOM      1  N   UNL     1       8.655   6.483  12.024  0.00  0.00    +0.000 N 
ATOM      2  C   UNL     1       7.828   5.466  12.510  0.00  0.00    +0.000 A 
ATOM      3  C   UNL     1       7.334   4.511  11.662  0.00  0.00    +0.000 A 
ATOM      4  C   UNL     1       6.517   3.578  12.248  0.00  0.00    +0.000 A 
ATOM      5  N   UNL     1       6.215   3.585  13.554  0.00  0.00    +0.000 NA
ATOM      6  C   UNL     1       6.718   4.574  14.315  0.00  0.00    +0.000 A 
ATOM      7  N   UNL     1       6.348   4.639  15.638  0.00  0.00    +0.000 N 
ATOM      8  C   UNL     1       5.837   3.458  16.297  0.00  0.00    +0.000 C 
ATOM      9  C   UNL     1       4.608   3.881  17.095  0.00  0.00    +0.000 C 
ATOM     10  C   UNL     1       4.875   5.045  18.083  0.00  0.00    +0.000 C 
ATOM     11  C   UNL     1       5.676   6.184  17.372  0.00  0.00    +0.000 C 
ATOM     12  C   UNL     1       6.845   5.690  16.505  0.00  0.00    +0.000 C 
ATOM     13  N   UNL     1       7.522   5.522  13.810  0.00  0.00    +0.000 NA
ATOM     14  H   UNL     1       9.450   6.112  11.518  0.00  0.00    +0.000 HD
ATOM     15  H   UNL     1       8.941   7.031  12.831  0.00  0.00    +0.000 HD
ENDROOT
BRANCH  10  16
ATOM     16  C   UNL     1       5.731   4.529  19.252  0.00  0.00    +0.000 C 
ATOM     17  O   UNL     1       6.496   5.224  19.905  0.00  0.00    +0.000 OA
BRANCH  16  18
ATOM     18  O   UNL     1       5.579   3.217  19.539  0.00  0.00    +0.000 OA
ATOM     19  H   UNL     1       4.665   2.885  19.599  0.00  0.00    +0.000 HD
ENDBRANCH  16  18
ENDBRANCH  10  16
BRANCH  10  20
ATOM     20  C   UNL     1       3.544   5.611  18.700  0.00  0.00    +0.000 C 
BRANCH  20  21
ATOM     21  C   UNL     1       2.676   4.613  19.451  0.00  0.00    +0.000 A 
ATOM     22  C   UNL     1       2.951   4.366  20.808  0.00  0.00    +0.000 A 
ATOM     23  C   UNL     1       2.076   3.613  21.595  0.00  0.00    +0.000 A 
ATOM     24  C   UNL     1       0.909   3.097  21.042  0.00  0.00    +0.000 A 
ATOM     25  C   UNL     1       0.661   3.260  19.681  0.00  0.00    +0.000 A 
ATOM     26  C   UNL     1       1.559   3.974  18.881  0.00  0.00    +0.000 A 
ATOM     27 CL   UNL     1       1.246   4.016  17.180  0.00  0.00    +0.000 Cl
ENDBRANCH  20  21
ENDBRANCH  10  20
TORSDOF 4
ENDMDL
MODEL 3
REMARK VINA RESULT:      -8.0      4.213      7.331
REMARK  Name = 
REMARK  4 active torsions:
REMARK  status: ('A' for Active; 'I' for Inactive)
REMARK    1  A    between atoms: C_10  and  C_11
REMARK    2  A    between atoms: C_10  and  C_19
REMARK    3  A    between atoms: C_11  and  C_12
REMARK    4  A    between atoms: C_19  and  O_21
REMARK                            x       y       z     vdW  Elec       q    Type
REMARK                         _______ _______ _______ _____ _____    ______ ____
ROOT
ATOM      1  N   UNL     1       0.850  11.374  18.697  0.00  0.00    +0.000 N 
ATOM      2  C   UNL     1       1.019  10.355  19.639  0.00  0.00    +0.000 A 
ATOM      3  C   UNL     1       0.891  10.621  20.976  0.00  0.00    +0.000 A 
ATOM      4  C   UNL     1       1.099   9.548  21.805  0.00  0.00    +0.000 A 
ATOM      5  N   UNL     1       1.404   8.322  21.356  0.00  0.00    +0.000 NA
ATOM      6  C   UNL     1       1.538   8.150  20.029  0.00  0.00    +0.000 A 
ATOM      7  N   UNL     1       1.932   6.917  19.561  0.00  0.00    +0.000 N 
ATOM      8  C   UNL     1       1.750   5.747  20.392  0.00  0.00    +0.000 C 
ATOM      9  C   UNL     1       3.042   4.938  20.321  0.00  0.00    +0.000 C 
ATOM     10  C   UNL     1       3.478   4.582  18.876  0.00  0.00    +0.000 C 
ATOM     11  C   UNL     1       3.389   5.845  17.959  0.00  0.00    +0.000 C 
ATOM     12  C   UNL     1       2.108   6.674  18.143  0.00  0.00    +0.000 C 
ATOM     13  N   UNL     1       1.352   9.153  19.158  0.00  0.00    +0.000 NA
ATOM     14  H   UNL     1      -0.037  11.849  18.810  0.00  0.00    +0.000 HD
ATOM     15  H   UNL     1       0.932  10.937  17.783  0.00  0.00    +0.000 HD
ENDROOT
BRANCH  10  16
ATOM     16  C   UNL     1       2.520   3.522  18.307  0.00  0.00    +0.000 C 
ATOM     17  O   UNL     1       1.982   3.596  17.211  0.00  0.00    +0.000 OA
BRANCH  16  18
ATOM     18  O   UNL     1       2.305   2.455  19.108  0.00  0.00    +0.000 OA
ATOM     19  H   UNL     1       3.066   2.135  19.625  0.00  0.00    +0.000 HD
ENDBRANCH  16  18
ENDBRANCH  10  16
BRANCH  10  20
ATOM     20  C   UNL     1       4.925   3.969  18.831  0.00  0.00    +0.000 C 
BRANCH  20  21
ATOM     21  C   UNL     1       5.737   4.261  17.578  0.00  0.00    +0.000 A 
ATOM     22  C   UNL     1       5.383   3.619  16.379  0.00  0.00    +0.000 A 
ATOM     23  C   UNL     1       5.963   3.991  15.164  0.00  0.00    +0.000 A 
ATOM     24  C   UNL     1       6.905   5.014  15.124  0.00  0.00    +0.000 A 
ATOM     25  C   UNL     1       7.330   5.604  16.312  0.00  0.00    +0.000 A 
ATOM     26  C   UNL     1       6.784   5.201  17.535  0.00  0.00    +0.000 A 
ATOM     27 CL   UNL     1       7.462   5.889  18.970  0.00  0.00    +0.000 Cl
ENDBRANCH  20  21
ENDBRANCH  10  20
TORSDOF 4
ENDMDL
MODEL 4
REMARK VINA RESULT:      -7.5      1.388      2.329
REMARK  Name = 
REMARK  4 active torsions:
REMARK  status: ('A' for Active; 'I' for Inactive)
REMARK    1  A    between atoms: C_10  and  C_11
REMARK    2  A    between atoms: C_10  and  C_19
REMARK    3  A    between atoms: C_11  and  C_12
REMARK    4  A    between atoms: C_19  and  O_21
REMARK                            x       y       z     vdW  Elec       q    Type
REMARK                         _______ _______ _______ _____ _____    ______ ____
ROOT
ATOM      1  N   UNL     1       8.312   6.501  12.021  0.00  0.00    +0.000 N 
ATOM      2  C   UNL     1       7.622   5.372  12.470  0.00  0.00    +0.000 A 
ATOM      3  C   UNL     1       7.436   4.298  11.640  0.00  0.00    +0.000 A 
ATOM      4  C   UNL     1       6.726   3.259  12.183  0.00  0.00    +0.000 A 
ATOM      5  N   UNL     1       6.244   3.272  13.433  0.00  0.00    +0.000 NA
ATOM      6  C   UNL     1       6.446   4.376  14.176  0.00  0.00    +0.000 A 
ATOM      7  N   UNL     1       5.885   4.437  15.431  0.00  0.00    +0.000 N 
ATOM      8  C   UNL     1       5.508   3.214  16.105  0.00  0.00    +0.000 C 
ATOM      9  C   UNL     1       4.120   3.435  16.701  0.00  0.00    +0.000 C 
ATOM     10  C   UNL     1       4.028   4.677  17.624  0.00  0.00    +0.000 C 
ATOM     11  C   UNL     1       4.703   5.910  16.939  0.00  0.00    +0.000 C 
ATOM     12  C   UNL     1       6.055   5.604  16.273  0.00  0.00    +0.000 C 
ATOM     13  N   UNL     1       7.128   5.433  13.711  0.00  0.00    +0.000 NA
ATOM     14  H   UNL     1       9.225   6.263  11.654  0.00  0.00    +0.000 HD
ATOM     15  H   UNL     1       8.376   7.133  12.815  0.00  0.00    +0.000 HD
ENDROOT
BRANCH  10  16
ATOM     16  C   UNL     1       4.788   4.392  18.930  0.00  0.00    +0.000 C 
ATOM     17  O   UNL     1       4.829   3.300  19.479  0.00  0.00    +0.000 OA
BRANCH  16  18
ATOM     18  O   UNL     1       5.443   5.450  19.456  0.00  0.00    +0.000 OA
ATOM     19  H   UNL     1       5.741   6.136  18.829  0.00  0.00    +0.000 HD
ENDBRANCH  16  18
ENDBRANCH  10  16
BRANCH  10  20
ATOM     20  C   UNL     1       2.543   5.011  18.017  0.00  0.00    +0.000 C 
BRANCH  20  21
ATOM     21  C   UNL     1       2.328   6.300  18.794  0.00  0.00    +0.000 A 
ATOM     22  C   UNL     1       2.357   7.521  18.097  0.00  0.00    +0.000 A 
ATOM     23  C   UNL     1       1.977   8.714  18.717  0.00  0.00    +0.000 A 
ATOM     24  C   UNL     1       1.558   8.708  20.043  0.00  0.00    +0.000 A 
ATOM     25  C   UNL     1       1.603   7.524  20.774  0.00  0.00    +0.000 A 
ATOM     26  C   UNL     1       2.028   6.337  20.168  0.00  0.00    +0.000 A 
ATOM     27 CL   UNL     1       2.181   4.941  21.180  0.00  0.00    +0.000 Cl
ENDBRANCH  20  21
ENDBRANCH  10  20
TORSDOF 4
ENDMDL
MODEL 5
REMARK VINA RESULT:      -7.4      3.229      7.068
REMARK  Name = 
REMARK  4 active torsions:
REMARK  status: ('A' for Active; 'I' for Inactive)
REMARK    1  A    between atoms: C_10  and  C_11
REMARK    2  A    between atoms: C_10  and  C_19
REMARK    3  A    between atoms: C_11  and  C_12
REMARK    4  A    between atoms: C_19  and  O_21
REMARK                            x       y       z     vdW  Elec       q    Type
REMARK                         _______ _______ _______ _____ _____    ______ ____
ROOT
ATOM      1  N   UNL     1       2.201   2.622  21.850  0.00  0.00    +0.000 N 
ATOM      2  C   UNL     1       2.125   3.296  20.628  0.00  0.00    +0.000 A 
ATOM      3  C   UNL     1       0.965   3.282  19.900  0.00  0.00    +0.000 A 
ATOM      4  C   UNL     1       1.017   3.959  18.709  0.00  0.00    +0.000 A 
ATOM      5  N   UNL     1       2.114   4.597  18.274  0.00  0.00    +0.000 NA
ATOM      6  C   UNL     1       3.222   4.540  19.035  0.00  0.00    +0.000 A 
ATOM      7  N   UNL     1       4.376   5.119  18.561  0.00  0.00    +0.000 N 
ATOM      8  C   UNL     1       4.297   6.137  17.537  0.00  0.00    +0.000 C 
ATOM      9  C   UNL     1       5.364   5.814  16.495  0.00  0.00    +0.000 C 
ATOM     10  C   UNL     1       6.790   5.672  17.085  0.00  0.00    +0.000 C 
ATOM     11  C   UNL     1       6.759   4.770  18.361  0.00  0.00    +0.000 C 
ATOM     12  C   UNL     1       5.605   5.078  19.329  0.00  0.00    +0.000 C 
ATOM     13  N   UNL     1       3.246   3.894  20.211  0.00  0.00    +0.000 NA
ATOM     14  H   UNL     1       1.463   2.906  22.483  0.00  0.00    +0.000 HD
ATOM     15  H   UNL     1       3.124   2.819  22.230  0.00  0.00    +0.000 HD
ENDROOT
BRANCH  10  16
ATOM     16  C   UNL     1       7.303   7.060  17.505  0.00  0.00    +0.000 C 
ATOM     17  O   UNL     1       6.983   8.107  16.959  0.00  0.00    +0.000 OA
BRANCH  16  18
ATOM     18  O   UNL     1       8.151   7.065  18.557  0.00  0.00    +0.000 OA
ATOM     19  H   UNL     1       7.781   6.795  19.418  0.00  0.00    +0.000 HD
ENDBRANCH  16  18
ENDBRANCH  10  16
BRANCH  10  20
ATOM     20  C   UNL     1       7.810   5.102  16.032  0.00  0.00    +0.000 C 
BRANCH  20  21
ATOM     21  C   UNL     1       7.244   4.783  14.657  0.00  0.00    +0.000 A 
ATOM     22  C   UNL     1       7.754   5.472  13.541  0.00  0.00    +0.000 A 
ATOM     23  C   UNL     1       7.415   5.087  12.242  0.00  0.00    +0.000 A 
ATOM     24  C   UNL     1       6.565   4.007  12.033  0.00  0.00    +0.000 A 
ATOM     25  C   UNL     1       5.984   3.366  13.124  0.00  0.00    +0.000 A 
ATOM     26  C   UNL     1       6.286   3.779  14.426  0.00  0.00    +0.000 A 
ATOM     27 CL   UNL     1       5.421   3.019  15.719  0.00  0.00    +0.000 Cl
ENDBRANCH  20  21
ENDBRANCH  10  20
TORSDOF 4
ENDMDL
MODEL 6
REMARK VINA RESULT:      -7.2      3.625      7.163
REMARK  Name = 
REMARK  4 active torsions:
REMARK  status: ('A' for Active; 'I' for Inactive)
REMARK    1  A    between atoms: C_10  and  C_11
REMARK    2  A    between atoms: C_10  and  C_19
REMARK    3  A    between atoms: C_11  and  C_12
REMARK    4  A    between atoms: C_19  and  O_21
REMARK                            x       y       z     vdW  Elec       q    Type
REMARK                         _______ _______ _______ _____ _____    ______ ____
ROOT
ATOM      1  N   UNL     1       2.221   2.829  21.945  0.00  0.00    +0.000 N 
ATOM      2  C   UNL     1       2.107   3.399  20.674  0.00  0.00    +0.000 A 
ATOM      3  C   UNL     1       0.948   3.265  19.956  0.00  0.00    +0.000 A 
ATOM      4  C   UNL     1       0.963   3.847  18.714  0.00  0.00    +0.000 A 
ATOM      5  N   UNL     1       2.022   4.505  18.224  0.00  0.00    +0.000 NA
ATOM      6  C   UNL     1       3.133   4.569  18.981  0.00  0.00    +0.000 A 
ATOM      7  N   UNL     1       4.254   5.169  18.456  0.00  0.00    +0.000 N 
ATOM      8  C   UNL     1       4.118   6.097  17.355  0.00  0.00    +0.000 C 
ATOM      9  C   UNL     1       5.200   5.750  16.335  0.00  0.00    +0.000 C 
ATOM     10  C   UNL     1       6.632   5.732  16.927  0.00  0.00    +0.000 C 
ATOM     11  C   UNL     1       6.652   4.933  18.271  0.00  0.00    +0.000 C 
ATOM     12  C   UNL     1       5.485   5.256  19.217  0.00  0.00    +0.000 C 
ATOM     13  N   UNL     1       3.194   4.021  20.204  0.00  0.00    +0.000 NA
ATOM     14  H   UNL     1       1.470   3.123  22.557  0.00  0.00    +0.000 HD
ATOM     15  H   UNL     1       3.132   3.104  22.302  0.00  0.00    +0.000 HD
ENDROOT
BRANCH  10  16
ATOM     16  C   UNL     1       7.071   7.174  17.232  0.00  0.00    +0.000 C 
ATOM     17  O   UNL     1       6.605   8.165  16.688  0.00  0.00    +0.000 OA
BRANCH  16  18
ATOM     18  O   UNL     1       8.026   7.295  18.179  0.00  0.00    +0.000 OA
ATOM     19  H   UNL     1       7.760   7.713  19.019  0.00  0.00    +0.000 HD
ENDBRANCH  16  18
ENDBRANCH  10  16
BRANCH  10  20
ATOM     20  C   UNL     1       7.680   5.135  15.917  0.00  0.00    +0.000 C 
BRANCH  20  21
ATOM     21  C   UNL     1       7.116   4.584  14.616  0.00  0.00    +0.000 A 
ATOM     22  C   UNL     1       6.003   3.727  14.671  0.00  0.00    +0.000 A 
ATOM     23  C   UNL     1       5.327   3.348  13.510  0.00  0.00    +0.000 A 
ATOM     24  C   UNL     1       5.749   3.820  12.271  0.00  0.00    +0.000 A 
ATOM     25  C   UNL     1       6.899   4.601  12.187  0.00  0.00    +0.000 A 
ATOM     26  C   UNL     1       7.604   4.944  13.346  0.00  0.00    +0.000 A 
ATOM     27 CL   UNL     1       9.093   5.802  13.142  0.00  0.00    +0.000 Cl
ENDBRANCH  20  21
ENDBRANCH  10  20
TORSDOF 4
ENDMDL
MODEL 7
REMARK VINA RESULT:      -7.2      4.483      7.501
REMARK  Name = 
REMARK  4 active torsions:
REMARK  status: ('A' for Active; 'I' for Inactive)
REMARK    1  A    between atoms: C_10  and  C_11
REMARK    2  A    between atoms: C_10  and  C_19
REMARK    3  A    between atoms: C_11  and  C_12
REMARK    4  A    between atoms: C_19  and  O_21
REMARK                            x       y       z     vdW  Elec       q    Type
REMARK                         _______ _______ _______ _____ _____    ______ ____
ROOT
ATOM      1  N   UNL     1       0.804  11.320  18.701  0.00  0.00    +0.000 N 
ATOM      2  C   UNL     1       0.970  10.344  19.688  0.00  0.00    +0.000 A 
ATOM      3  C   UNL     1       0.935  10.687  21.013  0.00  0.00    +0.000 A 
ATOM      4  C   UNL     1       1.132   9.649  21.888  0.00  0.00    +0.000 A 
ATOM      5  N   UNL     1       1.342   8.385  21.493  0.00  0.00    +0.000 NA
ATOM      6  C   UNL     1       1.388   8.136  20.171  0.00  0.00    +0.000 A 
ATOM      7  N   UNL     1       1.686   6.860  19.752  0.00  0.00    +0.000 N 
ATOM      8  C   UNL     1       1.489   5.747  20.656  0.00  0.00    +0.000 C 
ATOM      9  C   UNL     1       2.728   4.861  20.559  0.00  0.00    +0.000 C 
ATOM     10  C   UNL     1       3.058   4.405  19.114  0.00  0.00    +0.000 C 
ATOM     11  C   UNL     1       2.986   5.621  18.134  0.00  0.00    +0.000 C 
ATOM     12  C   UNL     1       1.765   6.532  18.342  0.00  0.00    +0.000 C 
ATOM     13  N   UNL     1       1.208   9.101  19.257  0.00  0.00    +0.000 NA
ATOM     14  H   UNL     1      -0.048  11.851  18.837  0.00  0.00    +0.000 HD
ATOM     15  H   UNL     1       0.808  10.831  17.810  0.00  0.00    +0.000 HD
ENDROOT
BRANCH  10  16
ATOM     16  C   UNL     1       2.012   3.374  18.659  0.00  0.00    +0.000 C 
ATOM     17  O   UNL     1       1.571   3.295  17.521  0.00  0.00    +0.000 OA
BRANCH  16  18
ATOM     18  O   UNL     1       1.597   2.517  19.618  0.00  0.00    +0.000 OA
ATOM     19  H   UNL     1       2.216   1.806  19.867  0.00  0.00    +0.000 HD
ENDBRANCH  16  18
ENDBRANCH  10  16
BRANCH  10  20
ATOM     20  C   UNL     1       4.464   3.708  19.023  0.00  0.00    +0.000 C 
BRANCH  20  21
ATOM     21  C   UNL     1       5.606   4.567  18.503  0.00  0.00    +0.000 A 
ATOM     22  C   UNL     1       6.358   5.320  19.422  0.00  0.00    +0.000 A 
ATOM     23  C   UNL     1       7.531   5.970  19.032  0.00  0.00    +0.000 A 
ATOM     24  C   UNL     1       7.976   5.878  17.718  0.00  0.00    +0.000 A 
ATOM     25  C   UNL     1       7.201   5.208  16.774  0.00  0.00    +0.000 A 
ATOM     26  C   UNL     1       6.003   4.595  17.153  0.00  0.00    +0.000 A 
ATOM     27 CL   UNL     1       5.037   3.899  15.896  0.00  0.00    +0.000 Cl
ENDBRANCH  20  21
ENDBRANCH  10  20
TORSDOF 4
ENDMDL
MODEL 8
REMARK VINA RESULT:      -7.1      3.561      7.444
REMARK  Name = 
REMARK  4 active torsions:
REMARK  status: ('A' for Active; 'I' for Inactive)
REMARK    1  A    between atoms: C_10  and  C_11
REMARK    2  A    between atoms: C_10  and  C_19
REMARK    3  A    between atoms: C_11  and  C_12
REMARK    4  A    between atoms: C_19  and  O_21
REMARK                            x       y       z     vdW  Elec       q    Type
REMARK                         _______ _______ _______ _____ _____    ______ ____
ROOT
ATOM      1  N   UNL     1       1.449   2.063  20.667  0.00  0.00    +0.000 N 
ATOM      2  C   UNL     1       1.804   3.376  20.344  0.00  0.00    +0.000 A 
ATOM      3  C   UNL     1       1.091   4.430  20.850  0.00  0.00    +0.000 A 
ATOM      4  C   UNL     1       1.518   5.669  20.446  0.00  0.00    +0.000 A 
ATOM      5  N   UNL     1       2.557   5.854  19.618  0.00  0.00    +0.000 NA
ATOM      6  C   UNL     1       3.187   4.764  19.142  0.00  0.00    +0.000 A 
ATOM      7  N   UNL     1       4.200   4.937  18.227  0.00  0.00    +0.000 N 
ATOM      8  C   UNL     1       4.872   6.215  18.139  0.00  0.00    +0.000 C 
ATOM      9  C   UNL     1       4.995   6.559  16.657  0.00  0.00    +0.000 C 
ATOM     10  C   UNL     1       5.692   5.459  15.816  0.00  0.00    +0.000 C 
ATOM     11  C   UNL     1       5.097   4.056  16.163  0.00  0.00    +0.000 C 
ATOM     12  C   UNL     1       4.907   3.802  17.668  0.00  0.00    +0.000 C 
ATOM     13  N   UNL     1       2.824   3.521  19.491  0.00  0.00    +0.000 NA
ATOM     14  H   UNL     1       1.403   1.922  21.669  0.00  0.00    +0.000 HD
ATOM     15  H   UNL     1       2.143   1.462  20.230  0.00  0.00    +0.000 HD
ENDROOT
BRANCH  10  16
ATOM     16  C   UNL     1       7.190   5.432  16.162  0.00  0.00    +0.000 C 
ATOM     17  O   UNL     1       7.846   4.410  16.304  0.00  0.00    +0.000 OA
BRANCH  16  18
ATOM     18  O   UNL     1       7.770   6.645  16.295  0.00  0.00    +0.000 OA
ATOM     19  H   UNL     1       7.236   7.417  16.031  0.00  0.00    +0.000 HD
ENDBRANCH  16  18
ENDBRANCH  10  16
BRANCH  10  20
ATOM     20  C   UNL     1       5.579   5.738  14.272  0.00  0.00    +0.000 C 
BRANCH  20  21
ATOM     21  C   UNL     1       5.993   4.598  13.354  0.00  0.00    +0.000 A 
ATOM     22  C   UNL     1       5.083   3.551  13.124  0.00  0.00    +0.000 A 
ATOM     23  C   UNL     1       5.329   2.584  12.147  0.00  0.00    +0.000 A 
ATOM     24  C   UNL     1       6.486   2.648  11.378  0.00  0.00    +0.000 A 
ATOM     25  C   UNL     1       7.439   3.627  11.647  0.00  0.00    +0.000 A 
ATOM     26  C   UNL     1       7.216   4.569  12.657  0.00  0.00    +0.000 A 
ATOM     27 CL   UNL     1       8.505   5.667  13.016  0.00  0.00    +0.000 Cl
ENDBRANCH  20  21
ENDBRANCH  10  20
TORSDOF 4
ENDMDL
MODEL 9
REMARK VINA RESULT:      -6.8      4.546      7.643
REMARK  Name = 
REMARK  4 active torsions:
REMARK  status: ('A' for Active; 'I' for Inactive)
REMARK    1  A    between atoms: C_10  and  C_11
REMARK    2  A    between atoms: C_10  and  C_19
REMARK    3  A    between atoms: C_11  and  C_12
REMARK    4  A    between atoms: C_19  and  O_21
REMARK                            x       y       z     vdW  Elec       q    Type
REMARK                         _______ _______ _______ _____ _____    ______ ____
ROOT
ATOM      1  N   UNL     1      -0.056  11.028  19.376  0.00  0.00    +0.000 N 
ATOM      2  C   UNL     1       0.497  10.035  20.188  0.00  0.00    +0.000 A 
ATOM      3  C   UNL     1       0.716  10.272  21.519  0.00  0.00    +0.000 A 
ATOM      4  C   UNL     1       1.283   9.232  22.210  0.00  0.00    +0.000 A 
ATOM      5  N   UNL     1       1.603   8.060  21.641  0.00  0.00    +0.000 NA
ATOM      6  C   UNL     1       1.381   7.917  20.322  0.00  0.00    +0.000 A 
ATOM      7  N   UNL     1       1.781   6.751  19.710  0.00  0.00    +0.000 N 
ATOM      8  C   UNL     1       1.991   5.562  20.506  0.00  0.00    +0.000 C 
ATOM      9  C   UNL     1       3.303   4.934  20.045  0.00  0.00    +0.000 C 
ATOM     10  C   UNL     1       3.358   4.650  18.522  0.00  0.00    +0.000 C 
ATOM     11  C   UNL     1       2.856   5.895  17.722  0.00  0.00    +0.000 C 
ATOM     12  C   UNL     1       1.583   6.543  18.289  0.00  0.00    +0.000 C 
ATOM     13  N   UNL     1       0.833   8.891  19.581  0.00  0.00    +0.000 NA
ATOM     14  H   UNL     1      -0.929  11.379  19.751  0.00  0.00    +0.000 HD
ATOM     15  H   UNL     1      -0.178  10.612  18.456  0.00  0.00    +0.000 HD
ENDROOT
BRANCH  10  16
ATOM     16  C   UNL     1       2.422   3.474  18.194  0.00  0.00    +0.000 C 
ATOM     17  O   UNL     1       2.013   2.669  19.019  0.00  0.00    +0.000 OA
BRANCH  16  18
ATOM     18  O   UNL     1       2.052   3.379  16.898  0.00  0.00    +0.000 OA
ATOM     19  H   UNL     1       2.526   3.949  16.265  0.00  0.00    +0.000 HD
ENDBRANCH  16  18
ENDBRANCH  10  16
BRANCH  10  20
ATOM     20  C   UNL     1       4.800   4.237  18.051  0.00  0.00    +0.000 C 
BRANCH  20  21
ATOM     21  C   UNL     1       5.881   5.297  18.197  0.00  0.00    +0.000 A 
ATOM     22  C   UNL     1       6.632   5.337  19.386  0.00  0.00    +0.000 A 
ATOM     23  C   UNL     1       7.758   6.155  19.500  0.00  0.00    +0.000 A 
ATOM     24  C   UNL     1       8.158   6.945  18.427  0.00  0.00    +0.000 A 
ATOM     25  C   UNL     1       7.380   6.983  17.272  0.00  0.00    +0.000 A 
ATOM     26  C   UNL     1       6.226   6.200  17.174  0.00  0.00    +0.000 A 
ATOM     27 CL   UNL     1       5.246   6.406  15.762  0.00  0.00    +0.000 Cl
ENDBRANCH  20  21
ENDBRANCH  10  20
TORSDOF 4
ENDMDL
