MODEL 1
REMARK VINA RESULT:      -8.2      0.000      0.000
REMARK  Name = 
REMARK  8 active torsions:
REMARK  status: ('A' for Active; 'I' for Inactive)
REMARK    1  A    between atoms: C_1  and  N_2
REMARK    2  A    between atoms: N_2  and  C_3
REMARK    3  A    between atoms: C_4  and  C_6
REMARK    4  A    between atoms: C_9  and  O_10
REMARK    5  A    between atoms: O_10  and  C_11
REMARK    6  A    between atoms: C_14  and  C_15
REMARK    7  A    between atoms: C_16  and  C_17
REMARK    8  A    between atoms: C_17  and  O_18
REMARK                            x       y       z     vdW  Elec       q    Type
REMARK                         _______ _______ _______ _____ _____    ______ ____
ROOT
ATOM      1  C   UNL     1       0.610  10.837  21.266  0.00  0.00    +0.000 A 
ATOM      2  C   UNL     1       0.657   9.857  22.267  0.00  0.00    +0.000 A 
ATOM      3  C   UNL     1       1.079   8.560  21.970  0.00  0.00    +0.000 A 
ATOM      4  C   UNL     1       1.377   8.203  20.655  0.00  0.00    +0.000 A 
ATOM      5  C   UNL     1       1.292   9.166  19.645  0.00  0.00    +0.000 A 
ATOM      6  C   UNL     1       0.911  10.483  19.949  0.00  0.00    +0.000 A 
ENDROOT
BRANCH   4   7
ATOM      7  C   UNL     1       1.752   6.851  20.366  0.00  0.00    +0.000 C 
ATOM      8  C   UNL     1       2.035   5.693  20.173  0.00  0.00    +0.000 C 
BRANCH   8   9
ATOM      9  C   UNL     1       2.409   4.267  20.057  0.00  0.00    +0.000 C 
ATOM     10  C   UNL     1       3.872   4.105  19.535  0.00  0.00    +0.000 C 
ATOM     11  N   UNL     1       3.981   3.132  18.413  0.00  0.00    +0.000 NA
ATOM     12  C   UNL     1       3.400   1.839  18.845  0.00  0.00    +0.000 C 
ATOM     13  C   UNL     1       1.908   1.965  19.193  0.00  0.00    +0.000 C 
ATOM     14  C   UNL     1       1.486   3.452  19.111  0.00  0.00    +0.000 C 
ATOM     15  C   UNL     1       1.716   3.875  17.649  0.00  0.00    +0.000 C 
ATOM     16  C   UNL     1       3.191   3.648  17.274  0.00  0.00    +0.000 C 
BRANCH   9  17
ATOM     17  O   UNL     1       2.292   3.692  21.366  0.00  0.00    +0.000 OA
ATOM     18  H   UNL     1       2.604   4.359  21.998  0.00  0.00    +0.000 HD
ENDBRANCH   9  17
ENDBRANCH   8   9
ENDBRANCH   4   7
BRANCH   1  19
ATOM     19  O   UNL     1       0.271  12.158  21.515  0.00  0.00    +0.000 OA
BRANCH  19  23
ATOM     20  C   UNL     1      -3.766  12.838  22.421  0.00  0.00    +0.000 A 
ATOM     21  C   UNL     1      -2.884  12.403  23.406  0.00  0.00    +0.000 A 
ATOM     22  C   UNL     1      -1.522  12.301  23.144  0.00  0.00    +0.000 A 
ATOM     23  C   UNL     1      -1.044  12.432  21.842  0.00  0.00    +0.000 A 
ATOM     24  C   UNL     1      -1.919  12.828  20.829  0.00  0.00    +0.000 A 
ATOM     25  C   UNL     1      -3.277  13.044  21.119  0.00  0.00    +0.000 A 
BRANCH  20  29
ATOM     26  C   UNL     1      -7.094  14.172  23.749  0.00  0.00    +0.000 C 
ATOM     27  N   UNL     1      -5.677  14.129  23.431  0.00  0.00    +0.000 N 
ATOM     28  C   UNL     1      -4.899  15.319  23.754  0.00  0.00    +0.000 C 
ATOM     29  C   UNL     1      -5.222  13.015  22.707  0.00  0.00    +0.000 C 
ATOM     30  O   UNL     1      -5.993  12.150  22.289  0.00  0.00    +0.000 OA
ENDBRANCH  20  29
ENDBRANCH  19  23
ENDBRANCH   1  19
TORSDOF 6
ENDMDL
MODEL 2
REMARK VINA RESULT:      -8.2      0.950      1.569
REMARK  Name = 
REMARK  8 active torsions:
REMARK  status: ('A' for Active; 'I' for Inactive)
REMARK    1  A    between atoms: C_1  and  N_2
REMARK    2  A    between atoms: N_2  and  C_3
REMARK    3  A    between atoms: C_4  and  C_6
REMARK    4  A    between atoms: C_9  and  O_10
REMARK    5  A    between atoms: O_10  and  C_11
REMARK    6  A    between atoms: C_14  and  C_15
REMARK    7  A    between atoms: C_16  and  C_17
REMARK    8  A    between atoms: C_17  and  O_18
REMARK                            x       y       z     vdW  Elec       q    Type
REMARK                         _______ _______ _______ _____ _____    ______ ____
ROOT
ATOM      1  C   UNL     1       0.701  10.697  21.106  0.00  0.00    +0.000 A 
ATOM      2  C   UNL     1       1.054   9.720  22.047  0.00  0.00    +0.000 A 
ATOM      3  C   UNL     1       1.536   8.478  21.632  0.00  0.00    +0.000 A 
ATOM      4  C   UNL     1       1.591   8.164  20.273  0.00  0.00    +0.000 A 
ATOM      5  C   UNL     1       1.201   9.121  19.331  0.00  0.00    +0.000 A 
ATOM      6  C   UNL     1       0.759  10.388  19.745  0.00  0.00    +0.000 A 
ENDROOT
BRANCH   4   7
ATOM      7  C   UNL     1       2.035   6.862  19.874  0.00  0.00    +0.000 C 
ATOM      8  C   UNL     1       2.469   5.786  19.541  0.00  0.00    +0.000 C 
BRANCH   8   9
ATOM      9  C   UNL     1       3.072   4.528  19.052  0.00  0.00    +0.000 C 
ATOM     10  C   UNL     1       2.456   4.097  17.683  0.00  0.00    +0.000 C 
ATOM     11  N   UNL     1       2.039   2.667  17.661  0.00  0.00    +0.000 NA
ATOM     12  C   UNL     1       3.201   1.827  18.034  0.00  0.00    +0.000 C 
ATOM     13  C   UNL     1       3.700   2.132  19.456  0.00  0.00    +0.000 C 
ATOM     14  C   UNL     1       2.910   3.333  20.030  0.00  0.00    +0.000 C 
ATOM     15  C   UNL     1       1.439   2.884  20.081  0.00  0.00    +0.000 C 
ATOM     16  C   UNL     1       0.975   2.480  18.671  0.00  0.00    +0.000 C 
BRANCH   9  17
ATOM     17  O   UNL     1       4.479   4.765  18.900  0.00  0.00    +0.000 OA
ATOM     18  H   UNL     1       4.904   4.484  19.726  0.00  0.00    +0.000 HD
ENDBRANCH   9  17
ENDBRANCH   8   9
ENDBRANCH   4   7
BRANCH   1  19
ATOM     19  O   UNL     1       0.287  11.973  21.458  0.00  0.00    +0.000 OA
BRANCH  19  23
ATOM     20  C   UNL     1      -3.750  12.691  22.334  0.00  0.00    +0.000 A 
ATOM     21  C   UNL     1      -3.236  12.988  21.075  0.00  0.00    +0.000 A 
ATOM     22  C   UNL     1      -1.935  12.633  20.739  0.00  0.00    +0.000 A 
ATOM     23  C   UNL     1      -1.058  12.162  21.715  0.00  0.00    +0.000 A 
ATOM     24  C   UNL     1      -1.542  11.894  22.996  0.00  0.00    +0.000 A 
ATOM     25  C   UNL     1      -2.890  12.146  23.305  0.00  0.00    +0.000 A 
BRANCH  20  29
ATOM     26  C   UNL     1      -6.876  14.401  23.720  0.00  0.00    +0.000 C 
ATOM     27  N   UNL     1      -5.490  14.218  23.323  0.00  0.00    +0.000 N 
ATOM     28  C   UNL     1      -4.610  15.369  23.476  0.00  0.00    +0.000 C 
ATOM     29  C   UNL     1      -5.167  13.008  22.689  0.00  0.00    +0.000 C 
ATOM     30  O   UNL     1      -6.024  12.168  22.408  0.00  0.00    +0.000 OA
ENDBRANCH  20  29
ENDBRANCH  19  23
ENDBRANCH   1  19
TORSDOF 6
ENDMDL
MODEL 3
REMARK VINA RESULT:      -8.2      0.298      1.293
REMARK  Name = 
REMARK  8 active torsions:
REMARK  status: ('A' for Active; 'I' for Inactive)
REMARK    1  A    between atoms: C_1  and  N_2
REMARK    2  A    between atoms: N_2  and  C_3
REMARK    3  A    between atoms: C_4  and  C_6
REMARK    4  A    between atoms: C_9  and  O_10
REMARK    5  A    between atoms: O_10  and  C_11
REMARK    6  A    between atoms: C_14  and  C_15
REMARK    7  A    between atoms: C_16  and  C_17
REMARK    8  A    between atoms: C_17  and  O_18
REMARK                            x       y       z     vdW  Elec       q    Type
REMARK                         _______ _______ _______ _____ _____    ______ ____
ROOT
ATOM      1  C   UNL     1       0.417  10.919  21.101  0.00  0.00    +0.000 A 
ATOM      2  C   UNL     1       0.793  10.493  19.819  0.00  0.00    +0.000 A 
ATOM      3  C   UNL     1       1.175   9.170  19.595  0.00  0.00    +0.000 A 
ATOM      4  C   UNL     1       1.270   8.276  20.663  0.00  0.00    +0.000 A 
ATOM      5  C   UNL     1       0.936   8.707  21.951  0.00  0.00    +0.000 A 
ATOM      6  C   UNL     1       0.507  10.025  22.171  0.00  0.00    +0.000 A 
ENDROOT
BRANCH   4   7
ATOM      7  C   UNL     1       1.720   6.939  20.416  0.00  0.00    +0.000 C 
ATOM      8  C   UNL     1       2.041   5.791  20.223  0.00  0.00    +0.000 C 
BRANCH   8   9
ATOM      9  C   UNL     1       2.379   4.358  20.093  0.00  0.00    +0.000 C 
ATOM     10  C   UNL     1       3.864   4.163  19.651  0.00  0.00    +0.000 C 
ATOM     11  N   UNL     1       4.009   3.213  18.513  0.00  0.00    +0.000 NA
ATOM     12  C   UNL     1       3.367   1.929  18.881  0.00  0.00    +0.000 C 
ATOM     13  C   UNL     1       1.861   2.092  19.147  0.00  0.00    +0.000 C 
ATOM     14  C   UNL     1       1.488   3.592  19.078  0.00  0.00    +0.000 C 
ATOM     15  C   UNL     1       1.813   4.041  17.642  0.00  0.00    +0.000 C 
ATOM     16  C   UNL     1       3.299   3.778  17.344  0.00  0.00    +0.000 C 
BRANCH   9  17
ATOM     17  O   UNL     1       2.171   3.757  21.379  0.00  0.00    +0.000 OA
ATOM     18  H   UNL     1       1.851   4.457  21.971  0.00  0.00    +0.000 HD
ENDBRANCH   9  17
ENDBRANCH   8   9
ENDBRANCH   4   7
BRANCH   1  19
ATOM     19  O   UNL     1      -0.042  12.199  21.370  0.00  0.00    +0.000 OA
BRANCH  19  23
ATOM     20  C   UNL     1      -4.048  12.811  22.442  0.00  0.00    +0.000 A 
ATOM     21  C   UNL     1      -3.669  12.796  21.103  0.00  0.00    +0.000 A 
ATOM     22  C   UNL     1      -2.369  12.466  20.738  0.00  0.00    +0.000 A 
ATOM     23  C   UNL     1      -1.374  12.346  21.706  0.00  0.00    +0.000 A 
ATOM     24  C   UNL     1      -1.724  12.398  23.056  0.00  0.00    +0.000 A 
ATOM     25  C   UNL     1      -3.063  12.618  23.426  0.00  0.00    +0.000 A 
BRANCH  20  29
ATOM     26  C   UNL     1      -7.191  14.551  23.752  0.00  0.00    +0.000 C 
ATOM     27  N   UNL     1      -5.825  14.383  23.285  0.00  0.00    +0.000 N 
ATOM     28  C   UNL     1      -5.022  15.594  23.167  0.00  0.00    +0.000 C 
ATOM     29  C   UNL     1      -5.458  13.100  22.847  0.00  0.00    +0.000 C 
ATOM     30  O   UNL     1      -6.268  12.175  22.785  0.00  0.00    +0.000 OA
ENDBRANCH  20  29
ENDBRANCH  19  23
ENDBRANCH   1  19
TORSDOF 6
ENDMDL
MODEL 4
REMARK VINA RESULT:      -8.1      1.024      1.382
REMARK  Name = 
REMARK  8 active torsions:
REMARK  status: ('A' for Active; 'I' for Inactive)
REMARK    1  A    between atoms: C_1  and  N_2
REMARK    2  A    between atoms: N_2  and  C_3
REMARK    3  A    between atoms: C_4  and  C_6
REMARK    4  A    between atoms: C_9  and  O_10
REMARK    5  A    between atoms: O_10  and  C_11
REMARK    6  A    between atoms: C_14  and  C_15
REMARK    7  A    between atoms: C_16  and  C_17
REMARK    8  A    between atoms: C_17  and  O_18
REMARK                            x       y       z     vdW  Elec       q    Type
REMARK                         _______ _______ _______ _____ _____    ______ ____
ROOT
ATOM      1  C   UNL     1       0.650  10.916  21.239  0.00  0.00    +0.000 A 
ATOM      2  C   UNL     1       0.771   9.798  22.076  0.00  0.00    +0.000 A 
ATOM      3  C   UNL     1       1.251   8.587  21.574  0.00  0.00    +0.000 A 
ATOM      4  C   UNL     1       1.533   8.453  20.214  0.00  0.00    +0.000 A 
ATOM      5  C   UNL     1       1.375   9.554  19.368  0.00  0.00    +0.000 A 
ATOM      6  C   UNL     1       0.936  10.786  19.878  0.00  0.00    +0.000 A 
ENDROOT
BRANCH   4   7
ATOM      7  C   UNL     1       1.969   7.183  19.714  0.00  0.00    +0.000 C 
ATOM      8  C   UNL     1       2.332   6.090  19.350  0.00  0.00    +0.000 C 
BRANCH   8   9
ATOM      9  C   UNL     1       2.856   4.753  19.001  0.00  0.00    +0.000 C 
ATOM     10  C   UNL     1       2.115   4.160  17.760  0.00  0.00    +0.000 C 
ATOM     11  N   UNL     1       1.656   2.759  17.976  0.00  0.00    +0.000 NA
ATOM     12  C   UNL     1       2.820   1.933  18.374  0.00  0.00    +0.000 C 
ATOM     13  C   UNL     1       3.445   2.414  19.694  0.00  0.00    +0.000 C 
ATOM     14  C   UNL     1       2.741   3.715  20.150  0.00  0.00    +0.000 C 
ATOM     15  C   UNL     1       1.266   3.337  20.380  0.00  0.00    +0.000 C 
ATOM     16  C   UNL     1       0.675   2.758  19.083  0.00  0.00    +0.000 C 
BRANCH   9  17
ATOM     17  O   UNL     1       4.251   4.909  18.707  0.00  0.00    +0.000 OA
ATOM     18  H   UNL     1       4.647   5.382  19.456  0.00  0.00    +0.000 HD
ENDBRANCH   9  17
ENDBRANCH   8   9
ENDBRANCH   4   7
BRANCH   1  19
ATOM     19  O   UNL     1       0.250  12.163  21.696  0.00  0.00    +0.000 OA
BRANCH  19  23
ATOM     20  C   UNL     1      -3.890  12.674  22.112  0.00  0.00    +0.000 A 
ATOM     21  C   UNL     1      -3.116  12.264  23.194  0.00  0.00    +0.000 A 
ATOM     22  C   UNL     1      -1.730  12.218  23.097  0.00  0.00    +0.000 A 
ATOM     23  C   UNL     1      -1.104  12.382  21.863  0.00  0.00    +0.000 A 
ATOM     24  C   UNL     1      -1.866  12.753  20.754  0.00  0.00    +0.000 A 
ATOM     25  C   UNL     1      -3.257  12.912  20.879  0.00  0.00    +0.000 A 
BRANCH  20  29
ATOM     26  C   UNL     1      -7.405  13.847  23.055  0.00  0.00    +0.000 C 
ATOM     27  N   UNL     1      -5.959  13.864  22.912  0.00  0.00    +0.000 N 
ATOM     28  C   UNL     1      -5.274  15.071  23.358  0.00  0.00    +0.000 C 
ATOM     29  C   UNL     1      -5.376  12.790  22.221  0.00  0.00    +0.000 C 
ATOM     30  O   UNL     1      -6.056  11.910  21.691  0.00  0.00    +0.000 OA
ENDBRANCH  20  29
ENDBRANCH  19  23
ENDBRANCH   1  19
TORSDOF 6
ENDMDL
MODEL 5
REMARK VINA RESULT:      -8.0      1.274      1.821
REMARK  Name = 
REMARK  8 active torsions:
REMARK  status: ('A' for Active; 'I' for Inactive)
REMARK    1  A    between atoms: C_1  and  N_2
REMARK    2  A    between atoms: N_2  and  C_3
REMARK    3  A    between atoms: C_4  and  C_6
REMARK    4  A    between atoms: C_9  and  O_10
REMARK    5  A    between atoms: O_10  and  C_11
REMARK    6  A    between atoms: C_14  and  C_15
REMARK    7  A    between atoms: C_16  and  C_17
REMARK    8  A    between atoms: C_17  and  O_18
REMARK                            x       y       z     vdW  Elec       q    Type
REMARK                         _______ _______ _______ _____ _____    ______ ____
ROOT
ATOM      1  C   UNL     1       0.459  10.996  21.475  0.00  0.00    +0.000 A 
ATOM      2  C   UNL     1       0.843  10.783  20.144  0.00  0.00    +0.000 A 
ATOM      3  C   UNL     1       1.262   9.521  19.721  0.00  0.00    +0.000 A 
ATOM      4  C   UNL     1       1.385   8.477  20.639  0.00  0.00    +0.000 A 
ATOM      5  C   UNL     1       1.041   8.695  21.977  0.00  0.00    +0.000 A 
ATOM      6  C   UNL     1       0.576   9.952  22.396  0.00  0.00    +0.000 A 
ENDROOT
BRANCH   4   7
ATOM      7  C   UNL     1       1.872   7.207  20.191  0.00  0.00    +0.000 C 
ATOM      8  C   UNL     1       2.288   6.160  19.756  0.00  0.00    +0.000 C 
BRANCH   8   9
ATOM      9  C   UNL     1       2.717   4.891  19.130  0.00  0.00    +0.000 C 
ATOM     10  C   UNL     1       1.788   4.505  17.936  0.00  0.00    +0.000 C 
ATOM     11  N   UNL     1       1.325   3.090  17.997  0.00  0.00    +0.000 NA
ATOM     12  C   UNL     1       2.511   2.205  18.086  0.00  0.00    +0.000 C 
ATOM     13  C   UNL     1       3.333   2.469  19.358  0.00  0.00    +0.000 C 
ATOM     14  C   UNL     1       2.741   3.686  20.109  0.00  0.00    +0.000 C 
ATOM     15  C   UNL     1       1.304   3.285  20.493  0.00  0.00    +0.000 C 
ATOM     16  C   UNL     1       0.515   2.920  19.223  0.00  0.00    +0.000 C 
BRANCH   9  17
ATOM     17  O   UNL     1       4.059   5.084  18.661  0.00  0.00    +0.000 OA
ATOM     18  H   UNL     1       4.491   5.692  19.282  0.00  0.00    +0.000 HD
ENDBRANCH   9  17
ENDBRANCH   8   9
ENDBRANCH   4   7
BRANCH   1  19
ATOM     19  O   UNL     1      -0.036  12.207  21.936  0.00  0.00    +0.000 OA
BRANCH  19  23
ATOM     20  C   UNL     1      -4.201  12.633  21.720  0.00  0.00    +0.000 A 
ATOM     21  C   UNL     1      -3.576  12.403  22.942  0.00  0.00    +0.000 A 
ATOM     22  C   UNL     1      -2.190  12.390  23.038  0.00  0.00    +0.000 A 
ATOM     23  C   UNL     1      -1.403  12.401  21.888  0.00  0.00    +0.000 A 
ATOM     24  C   UNL     1      -2.012  12.590  20.646  0.00  0.00    +0.000 A 
ATOM     25  C   UNL     1      -3.409  12.719  20.561  0.00  0.00    +0.000 A 
BRANCH  20  29
ATOM     26  C   UNL     1      -7.806  13.904  21.787  0.00  0.00    +0.000 C 
ATOM     27  N   UNL     1      -6.354  13.935  21.813  0.00  0.00    +0.000 N 
ATOM     28  C   UNL     1      -5.730  15.250  21.883  0.00  0.00    +0.000 C 
ATOM     29  C   UNL     1      -5.689  12.714  21.612  0.00  0.00    +0.000 C 
ATOM     30  O   UNL     1      -6.298  11.676  21.349  0.00  0.00    +0.000 OA
ENDBRANCH  20  29
ENDBRANCH  19  23
ENDBRANCH   1  19
TORSDOF 6
ENDMDL
MODEL 6
REMARK VINA RESULT:      -7.9      4.379      6.025
REMARK  Name = 
REMARK  8 active torsions:
REMARK  status: ('A' for Active; 'I' for Inactive)
REMARK    1  A    between atoms: C_1  and  N_2
REMARK    2  A    between atoms: N_2  and  C_3
REMARK    3  A    between atoms: C_4  and  C_6
REMARK    4  A    between atoms: C_9  and  O_10
REMARK    5  A    between atoms: O_10  and  C_11
REMARK    6  A    between atoms: C_14  and  C_15
REMARK    7  A    between atoms: C_16  and  C_17
REMARK    8  A    between atoms: C_17  and  O_18
REMARK                            x       y       z     vdW  Elec       q    Type
REMARK                         _______ _______ _______ _____ _____    ______ ____
ROOT
ATOM      1  C   UNL     1       0.811  10.874  19.554  0.00  0.00    +0.000 A 
ATOM      2  C   UNL     1       0.765   9.861  20.521  0.00  0.00    +0.000 A 
ATOM      3  C   UNL     1       1.348   8.617  20.273  0.00  0.00    +0.000 A 
ATOM      4  C   UNL     1       1.907   8.341  19.024  0.00  0.00    +0.000 A 
ATOM      5  C   UNL     1       1.918   9.336  18.041  0.00  0.00    +0.000 A 
ATOM      6  C   UNL     1       1.374  10.602  18.305  0.00  0.00    +0.000 A 
ENDROOT
BRANCH   4   7
ATOM      7  C   UNL     1       2.447   7.038  18.774  0.00  0.00    +0.000 C 
ATOM      8  C   UNL     1       2.860   5.916  18.603  0.00  0.00    +0.000 C 
BRANCH   8   9
ATOM      9  C   UNL     1       3.365   4.529  18.516  0.00  0.00    +0.000 C 
ATOM     10  C   UNL     1       2.741   3.773  17.301  0.00  0.00    +0.000 C 
ATOM     11  N   UNL     1       2.206   2.431  17.668  0.00  0.00    +0.000 NA
ATOM     12  C   UNL     1       3.287   1.649  18.313  0.00  0.00    +0.000 C 
ATOM     13  C   UNL     1       3.783   2.310  19.610  0.00  0.00    +0.000 C 
ATOM     14  C   UNL     1       3.086   3.680  19.786  0.00  0.00    +0.000 C 
ATOM     15  C   UNL     1       1.581   3.376  19.901  0.00  0.00    +0.000 C 
ATOM     16  C   UNL     1       1.112   2.620  18.645  0.00  0.00    +0.000 C 
BRANCH   9  17
ATOM     17  O   UNL     1       4.789   4.608  18.362  0.00  0.00    +0.000 OA
ATOM     18  H   UNL     1       4.982   5.464  17.947  0.00  0.00    +0.000 HD
ENDBRANCH   9  17
ENDBRANCH   8   9
ENDBRANCH   4   7
BRANCH   1  19
ATOM     19  O   UNL     1       0.316  12.152  19.772  0.00  0.00    +0.000 OA
BRANCH  19  23
ATOM     20  C   UNL     1       3.137  15.238  19.464  0.00  0.00    +0.000 A 
ATOM     21  C   UNL     1       2.105  15.128  18.537  0.00  0.00    +0.000 A 
ATOM     22  C   UNL     1       1.095  14.188  18.707  0.00  0.00    +0.000 A 
ATOM     23  C   UNL     1       1.205  13.207  19.690  0.00  0.00    +0.000 A 
ATOM     24  C   UNL     1       2.255  13.272  20.607  0.00  0.00    +0.000 A 
ATOM     25  C   UNL     1       3.215  14.294  20.504  0.00  0.00    +0.000 A 
BRANCH  20  29
ATOM     26  C   UNL     1       6.436  17.030  18.741  0.00  0.00    +0.000 C 
ATOM     27  N   UNL     1       5.432  15.979  18.743  0.00  0.00    +0.000 N 
ATOM     28  C   UNL     1       5.752  14.770  17.995  0.00  0.00    +0.000 C 
ATOM     29  C   UNL     1       4.194  16.286  19.329  0.00  0.00    +0.000 C 
ATOM     30  O   UNL     1       3.935  17.413  19.755  0.00  0.00    +0.000 OA
ENDBRANCH  20  29
ENDBRANCH  19  23
ENDBRANCH   1  19
TORSDOF 6
ENDMDL
MODEL 7
REMARK VINA RESULT:      -7.8      1.477      2.073
REMARK  Name = 
REMARK  8 active torsions:
REMARK  status: ('A' for Active; 'I' for Inactive)
REMARK    1  A    between atoms: C_1  and  N_2
REMARK    2  A    between atoms: N_2  and  C_3
REMARK    3  A    between atoms: C_4  and  C_6
REMARK    4  A    between atoms: C_9  and  O_10
REMARK    5  A    between atoms: O_10  and  C_11
REMARK    6  A    between atoms: C_14  and  C_15
REMARK    7  A    between atoms: C_16  and  C_17
REMARK    8  A    between atoms: C_17  and  O_18
REMARK                            x       y       z     vdW  Elec       q    Type
REMARK                         _______ _______ _______ _____ _____    ______ ____
ROOT
ATOM      1  C   UNL     1       0.977  10.883  19.456  0.00  0.00    +0.000 A 
ATOM      2  C   UNL     1       0.894   9.871  20.422  0.00  0.00    +0.000 A 
ATOM      3  C   UNL     1       1.444   8.611  20.177  0.00  0.00    +0.000 A 
ATOM      4  C   UNL     1       2.006   8.320  18.934  0.00  0.00    +0.000 A 
ATOM      5  C   UNL     1       2.054   9.314  17.951  0.00  0.00    +0.000 A 
ATOM      6  C   UNL     1       1.543  10.595  18.211  0.00  0.00    +0.000 A 
ENDROOT
BRANCH   4   7
ATOM      7  C   UNL     1       2.511   7.002  18.687  0.00  0.00    +0.000 C 
ATOM      8  C   UNL     1       2.888   5.868  18.512  0.00  0.00    +0.000 C 
BRANCH   8   9
ATOM      9  C   UNL     1       3.331   4.461  18.418  0.00  0.00    +0.000 C 
ATOM     10  C   UNL     1       2.568   3.700  17.288  0.00  0.00    +0.000 C 
ATOM     11  N   UNL     1       2.021   2.390  17.740  0.00  0.00    +0.000 NA
ATOM     12  C   UNL     1       3.128   1.582  18.304  0.00  0.00    +0.000 C 
ATOM     13  C   UNL     1       3.767   2.254  19.530  0.00  0.00    +0.000 C 
ATOM     14  C   UNL     1       3.140   3.655  19.731  0.00  0.00    +0.000 C 
ATOM     15  C   UNL     1       1.643   3.412  19.994  0.00  0.00    +0.000 C 
ATOM     16  C   UNL     1       1.031   2.646  18.808  0.00  0.00    +0.000 C 
BRANCH   9  17
ATOM     17  O   UNL     1       4.736   4.479  18.131  0.00  0.00    +0.000 OA
ATOM     18  H   UNL     1       5.065   5.358  18.381  0.00  0.00    +0.000 HD
ENDBRANCH   9  17
ENDBRANCH   8   9
ENDBRANCH   4   7
BRANCH   1  19
ATOM     19  O   UNL     1       0.517  12.173  19.669  0.00  0.00    +0.000 OA
BRANCH  19  23
ATOM     20  C   UNL     1      -2.990  12.812  21.876  0.00  0.00    +0.000 A 
ATOM     21  C   UNL     1      -3.052  12.553  20.510  0.00  0.00    +0.000 A 
ATOM     22  C   UNL     1      -1.906  12.213  19.800  0.00  0.00    +0.000 A 
ATOM     23  C   UNL     1      -0.650  12.326  20.394  0.00  0.00    +0.000 A 
ATOM     24  C   UNL     1      -0.561  12.624  21.754  0.00  0.00    +0.000 A 
ATOM     25  C   UNL     1      -1.731  12.856  22.500  0.00  0.00    +0.000 A 
BRANCH  20  29
ATOM     26  C   UNL     1      -5.849  14.650  23.628  0.00  0.00    +0.000 C 
ATOM     27  N   UNL     1      -4.703  14.431  22.762  0.00  0.00    +0.000 N 
ATOM     28  C   UNL     1      -4.267  15.565  21.956  0.00  0.00    +0.000 C 
ATOM     29  C   UNL     1      -4.223  13.115  22.665  0.00  0.00    +0.000 C 
ATOM     30  O   UNL     1      -4.787  12.172  23.223  0.00  0.00    +0.000 OA
ENDBRANCH  20  29
ENDBRANCH  19  23
ENDBRANCH   1  19
TORSDOF 6
ENDMDL
MODEL 8
REMARK VINA RESULT:      -7.8      1.507      2.234
REMARK  Name = 
REMARK  8 active torsions:
REMARK  status: ('A' for Active; 'I' for Inactive)
REMARK    1  A    between atoms: C_1  and  N_2
REMARK    2  A    between atoms: N_2  and  C_3
REMARK    3  A    between atoms: C_4  and  C_6
REMARK    4  A    between atoms: C_9  and  O_10
REMARK    5  A    between atoms: O_10  and  C_11
REMARK    6  A    between atoms: C_14  and  C_15
REMARK    7  A    between atoms: C_16  and  C_17
REMARK    8  A    between atoms: C_17  and  O_18
REMARK                            x       y       z     vdW  Elec       q    Type
REMARK                         _______ _______ _______ _____ _____    ______ ____
ROOT
ATOM      1  C   UNL     1       0.716  10.981  19.824  0.00  0.00    +0.000 A 
ATOM      2  C   UNL     1       1.210  10.654  18.553  0.00  0.00    +0.000 A 
ATOM      3  C   UNL     1       1.633   9.355  18.271  0.00  0.00    +0.000 A 
ATOM      4  C   UNL     1       1.650   8.388  19.276  0.00  0.00    +0.000 A 
ATOM      5  C   UNL     1       1.196   8.720  20.557  0.00  0.00    +0.000 A 
ATOM      6  C   UNL     1       0.727  10.014  20.832  0.00  0.00    +0.000 A 
ENDROOT
BRANCH   4   7
ATOM      7  C   UNL     1       2.142   7.077  18.976  0.00  0.00    +0.000 C 
ATOM      8  C   UNL     1       2.564   5.961  18.785  0.00  0.00    +0.000 C 
BRANCH   8   9
ATOM      9  C   UNL     1       3.172   4.622  18.631  0.00  0.00    +0.000 C 
ATOM     10  C   UNL     1       2.582   3.870  17.396  0.00  0.00    +0.000 C 
ATOM     11  N   UNL     1       2.159   2.478  17.714  0.00  0.00    +0.000 NA
ATOM     12  C   UNL     1       3.309   1.755  18.307  0.00  0.00    +0.000 C 
ATOM     13  C   UNL     1       3.779   2.398  19.622  0.00  0.00    +0.000 C 
ATOM     14  C   UNL     1       2.983   3.702  19.868  0.00  0.00    +0.000 C 
ATOM     15  C   UNL     1       1.508   3.278  19.995  0.00  0.00    +0.000 C 
ATOM     16  C   UNL     1       1.073   2.542  18.716  0.00  0.00    +0.000 C 
BRANCH   9  17
ATOM     17  O   UNL     1       4.582   4.816  18.457  0.00  0.00    +0.000 OA
ATOM     18  H   UNL     1       4.919   5.204  19.280  0.00  0.00    +0.000 HD
ENDBRANCH   9  17
ENDBRANCH   8   9
ENDBRANCH   4   7
BRANCH   1  19
ATOM     19  O   UNL     1       0.213  12.234  20.141  0.00  0.00    +0.000 OA
BRANCH  19  23
ATOM     20  C   UNL     1      -3.859  12.702  21.024  0.00  0.00    +0.000 A 
ATOM     21  C   UNL     1      -3.448  12.368  19.736  0.00  0.00    +0.000 A 
ATOM     22  C   UNL     1      -2.114  12.085  19.469  0.00  0.00    +0.000 A 
ATOM     23  C   UNL     1      -1.135  12.330  20.430  0.00  0.00    +0.000 A 
ATOM     24  C   UNL     1      -1.521  12.705  21.718  0.00  0.00    +0.000 A 
ATOM     25  C   UNL     1      -2.883  12.880  22.020  0.00  0.00    +0.000 A 
BRANCH  20  29
ATOM     26  C   UNL     1      -7.211  14.404  21.721  0.00  0.00    +0.000 C 
ATOM     27  N   UNL     1      -5.828  14.245  21.304  0.00  0.00    +0.000 N 
ATOM     28  C   UNL     1      -5.178  15.421  20.738  0.00  0.00    +0.000 C 
ATOM     29  C   UNL     1      -5.299  12.945  21.340  0.00  0.00    +0.000 C 
ATOM     30  O   UNL     1      -5.989  11.968  21.636  0.00  0.00    +0.000 OA
ENDBRANCH  20  29
ENDBRANCH  19  23
ENDBRANCH   1  19
TORSDOF 6
ENDMDL
MODEL 9
REMARK VINA RESULT:      -7.8      1.277      1.973
REMARK  Name = 
REMARK  8 active torsions:
REMARK  status: ('A' for Active; 'I' for Inactive)
REMARK    1  A    between atoms: C_1  and  N_2
REMARK    2  A    between atoms: N_2  and  C_3
REMARK    3  A    between atoms: C_4  and  C_6
REMARK    4  A    between atoms: C_9  and  O_10
REMARK    5  A    between atoms: O_10  and  C_11
REMARK    6  A    between atoms: C_14  and  C_15
REMARK    7  A    between atoms: C_16  and  C_17
REMARK    8  A    between atoms: C_17  and  O_18
REMARK                            x       y       z     vdW  Elec       q    Type
REMARK                         _______ _______ _______ _____ _____    ______ ____
ROOT
ATOM      1  C   UNL     1       0.227  10.763  21.760  0.00  0.00    +0.000 A 
ATOM      2  C   UNL     1       0.783  10.488  20.503  0.00  0.00    +0.000 A 
ATOM      3  C   UNL     1       1.094   9.178  20.137  0.00  0.00    +0.000 A 
ATOM      4  C   UNL     1       0.935   8.137  21.052  0.00  0.00    +0.000 A 
ATOM      5  C   UNL     1       0.420   8.411  22.323  0.00  0.00    +0.000 A 
ATOM      6  C   UNL     1       0.063   9.722  22.678  0.00  0.00    +0.000 A 
ENDROOT
BRANCH   4   7
ATOM      7  C   UNL     1       1.316   6.809  20.672  0.00  0.00    +0.000 C 
ATOM      8  C   UNL     1       1.579   5.681  20.328  0.00  0.00    +0.000 C 
BRANCH   8   9
ATOM      9  C   UNL     1       1.794   4.266  19.959  0.00  0.00    +0.000 C 
ATOM     10  C   UNL     1       3.193   3.762  20.435  0.00  0.00    +0.000 C 
ATOM     11  N   UNL     1       3.948   3.055  19.362  0.00  0.00    +0.000 NA
ATOM     12  C   UNL     1       3.110   1.952  18.838  0.00  0.00    +0.000 C 
ATOM     13  C   UNL     1       1.805   2.467  18.209  0.00  0.00    +0.000 C 
ATOM     14  C   UNL     1       1.696   3.994  18.433  0.00  0.00    +0.000 C 
ATOM     15  C   UNL     1       2.903   4.614  17.705  0.00  0.00    +0.000 C 
ATOM     16  C   UNL     1       4.205   4.016  18.267  0.00  0.00    +0.000 C 
BRANCH   9  17
ATOM     17  O   UNL     1       0.759   3.503  20.594  0.00  0.00    +0.000 OA
ATOM     18  H   UNL     1       0.953   3.497  21.545  0.00  0.00    +0.000 HD
ENDBRANCH   9  17
ENDBRANCH   8   9
ENDBRANCH   4   7
BRANCH   1  19
ATOM     19  O   UNL     1      -0.171  12.032  22.152  0.00  0.00    +0.000 OA
BRANCH  19  23
ATOM     20  C   UNL     1      -4.213  13.123  21.942  0.00  0.00    +0.000 A 
ATOM     21  C   UNL     1      -3.382  13.275  20.836  0.00  0.00    +0.000 A 
ATOM     22  C   UNL     1      -2.077  12.796  20.859  0.00  0.00    +0.000 A 
ATOM     23  C   UNL     1      -1.513  12.343  22.051  0.00  0.00    +0.000 A 
ATOM     24  C   UNL     1      -2.318  12.221  23.184  0.00  0.00    +0.000 A 
ATOM     25  C   UNL     1      -3.672  12.598  23.129  0.00  0.00    +0.000 A 
BRANCH  20  29
ATOM     26  C   UNL     1      -7.911  13.490  21.043  0.00  0.00    +0.000 C 
ATOM     27  N   UNL     1      -6.573  12.926  21.088  0.00  0.00    +0.000 N 
ATOM     28  C   UNL     1      -6.379  11.652  20.405  0.00  0.00    +0.000 C 
ATOM     29  C   UNL     1      -5.638  13.575  21.910  0.00  0.00    +0.000 C 
ATOM     30  O   UNL     1      -5.947  14.531  22.621  0.00  0.00    +0.000 OA
ENDBRANCH  20  29
ENDBRANCH  19  23
ENDBRANCH   1  19
TORSDOF 6
ENDMDL
