MODEL 1
REMARK VINA RESULT:      -6.5      0.000      0.000
REMARK  Name = 
REMARK  12 active torsions:
REMARK  status: ('A' for Active; 'I' for Inactive)
REMARK    1  A    between atoms: N_1  and  C_2
REMARK    2  A    between atoms: N_10  and  C_11
REMARK    3  A    between atoms: C_11  and  C_12
REMARK    4  A    between atoms: C_12  and  C_13
REMARK    5  A    between atoms: C_13  and  C_14
REMARK    6  A    between atoms: C_14  and  C_15
REMARK    7  A    between atoms: C_15  and  C_16
REMARK    8  A    between atoms: C_16  and  C_17
REMARK    9  A    between atoms: C_17  and  C_18
REMARK   10  A    between atoms: C_18  and  P_19
REMARK   11  A    between atoms: P_19  and  O_21
REMARK   12  A    between atoms: P_19  and  O_22
REMARK                            x       y       z     vdW  Elec       q    Type
REMARK                         _______ _______ _______ _____ _____    ______ ____
ROOT
ATOM      1  C   UNL     1       5.461   6.467  17.292  0.00  0.00    +0.000 C 
ENDROOT
BRANCH   1  10
ATOM      2  C   UNL     1       4.031   5.114  18.853  0.00  0.00    +0.000 A 
ATOM      3  C   UNL     1       3.552   3.899  19.214  0.00  0.00    +0.000 A 
ATOM      4 BR   UNL     1       2.540   3.603  20.774  0.00  0.00    +0.000 Br
ATOM      5  C   UNL     1       3.845   2.706  18.379  0.00  0.00    +0.000 A 
ATOM      6  O   UNL     1       3.480   1.576  18.672  0.00  0.00    +0.000 OA
ATOM      7  N   UNL     1       4.545   2.934  17.238  0.00  0.00    +0.000 N 
ATOM      8  C   UNL     1       5.087   4.130  16.856  0.00  0.00    +0.000 A 
ATOM      9  O   UNL     1       5.754   4.184  15.841  0.00  0.00    +0.000 OA
ATOM     10  N   UNL     1       4.831   5.211  17.710  0.00  0.00    +0.000 N 
ATOM     11  H   UNL     1       4.758   2.140  16.664  0.00  0.00    +0.000 HD
BRANCH   2  12
ATOM     12  N   UNL     1       3.710   6.224  19.634  0.00  0.00    +0.000 N 
ATOM     13  H   UNL     1       2.706   6.303  19.800  0.00  0.00    +0.000 HD
ATOM     14  H   UNL     1       4.239   6.320  20.493  0.00  0.00    +0.000 HD
ENDBRANCH   2  12
ENDBRANCH   1  10
BRANCH   1  15
ATOM     15  C   UNL     1       6.988   6.362  17.175  0.00  0.00    +0.000 C 
BRANCH  15  16
ATOM     16  C   UNL     1       7.707   6.401  18.525  0.00  0.00    +0.000 C 
BRANCH  16  17
ATOM     17  C   UNL     1       8.427   7.729  18.703  0.00  0.00    +0.000 C 
BRANCH  17  18
ATOM     18  C   UNL     1       7.869   8.797  17.793  0.00  0.00    +0.000 C 
BRANCH  18  19
ATOM     19  C   UNL     1       8.771  10.020  17.847  0.00  0.00    +0.000 C 
BRANCH  19  20
ATOM     20  C   UNL     1       9.159  10.260  19.287  0.00  0.00    +0.000 C 
BRANCH  20  21
ATOM     21  C   UNL     1      10.445  11.047  19.377  0.00  0.00    +0.000 C 
BRANCH  21  22
ATOM     22  P   UNL     1      10.565  12.180  17.944  0.00  0.00    +0.000 P 
ATOM     23  O   UNL     1      10.775  13.375  18.874  0.00  0.00    +0.000 OA
BRANCH  22  24
ATOM     24  O   UNL     1      12.066  11.615  17.625  0.00  0.00    +0.000 OA
ATOM     25  H   UNL     1      12.065  10.991  16.876  0.00  0.00    +0.000 HD
ENDBRANCH  22  24
BRANCH  22  26
ATOM     26  O   UNL     1      10.678  13.251  16.591  0.00  0.00    +0.000 OA
ATOM     27  H   UNL     1      11.612  13.197  16.305  0.00  0.00    +0.000 HD
ENDBRANCH  22  26
ENDBRANCH  21  22
ENDBRANCH  20  21
ENDBRANCH  19  20
ENDBRANCH  18  19
ENDBRANCH  17  18
ENDBRANCH  16  17
ENDBRANCH  15  16
ENDBRANCH   1  15
TORSDOF 12
ENDMDL
MODEL 2
REMARK VINA RESULT:      -6.5      1.232      1.492
REMARK  Name = 
REMARK  12 active torsions:
REMARK  status: ('A' for Active; 'I' for Inactive)
REMARK    1  A    between atoms: N_1  and  C_2
REMARK    2  A    between atoms: N_10  and  C_11
REMARK    3  A    between atoms: C_11  and  C_12
REMARK    4  A    between atoms: C_12  and  C_13
REMARK    5  A    between atoms: C_13  and  C_14
REMARK    6  A    between atoms: C_14  and  C_15
REMARK    7  A    between atoms: C_15  and  C_16
REMARK    8  A    between atoms: C_16  and  C_17
REMARK    9  A    between atoms: C_17  and  C_18
REMARK   10  A    between atoms: C_18  and  P_19
REMARK   11  A    between atoms: P_19  and  O_21
REMARK   12  A    between atoms: P_19  and  O_22
REMARK                            x       y       z     vdW  Elec       q    Type
REMARK                         _______ _______ _______ _____ _____    ______ ____
ROOT
ATOM      1  C   UNL     1       5.034   6.038  17.765  0.00  0.00    +0.000 C 
ENDROOT
BRANCH   1  10
ATOM      2  C   UNL     1       3.197   4.985  19.116  0.00  0.00    +0.000 A 
ATOM      3  C   UNL     1       2.322   3.961  19.270  0.00  0.00    +0.000 A 
ATOM      4 BR   UNL     1       1.241   3.739  20.794  0.00  0.00    +0.000 Br
ATOM      5  C   UNL     1       2.205   2.919  18.218  0.00  0.00    +0.000 A 
ATOM      6  O   UNL     1       1.469   1.948  18.315  0.00  0.00    +0.000 OA
ATOM      7  N   UNL     1       2.963   3.105  17.106  0.00  0.00    +0.000 N 
ATOM      8  C   UNL     1       3.890   4.094  16.925  0.00  0.00    +0.000 A 
ATOM      9  O   UNL     1       4.555   4.107  15.908  0.00  0.00    +0.000 OA
ATOM     10  N   UNL     1       4.004   5.017  17.974  0.00  0.00    +0.000 N 
ATOM     11  H   UNL     1       2.902   2.409  16.387  0.00  0.00    +0.000 HD
BRANCH   2  12
ATOM     12  N   UNL     1       3.261   5.970  20.101  0.00  0.00    +0.000 N 
ATOM     13  H   UNL     1       2.616   6.741  19.921  0.00  0.00    +0.000 HD
ATOM     14  H   UNL     1       3.187   5.637  21.055  0.00  0.00    +0.000 HD
ENDBRANCH   2  12
ENDBRANCH   1  10
BRANCH   1  15
ATOM     15  C   UNL     1       6.461   5.480  17.873  0.00  0.00    +0.000 C 
BRANCH  15  16
ATOM     16  C   UNL     1       7.527   6.423  17.312  0.00  0.00    +0.000 C 
BRANCH  16  17
ATOM     17  C   UNL     1       7.973   7.411  18.379  0.00  0.00    +0.000 C 
BRANCH  17  18
ATOM     18  C   UNL     1       7.981   8.831  17.863  0.00  0.00    +0.000 C 
BRANCH  18  19
ATOM     19  C   UNL     1       8.957   9.656  18.686  0.00  0.00    +0.000 C 
BRANCH  19  20
ATOM     20  C   UNL     1       8.962  11.065  18.143  0.00  0.00    +0.000 C 
BRANCH  20  21
ATOM     21  C   UNL     1      10.026  11.901  18.816  0.00  0.00    +0.000 C 
BRANCH  21  22
ATOM     22  P   UNL     1      10.242  13.467  17.893  0.00  0.00    +0.000 P 
ATOM     23  O   UNL     1      11.215  12.794  16.926  0.00  0.00    +0.000 OA
BRANCH  22  24
ATOM     24  O   UNL     1       8.764  13.271  17.219  0.00  0.00    +0.000 OA
ATOM     25  H   UNL     1       8.158  13.996  17.463  0.00  0.00    +0.000 HD
ENDBRANCH  22  24
BRANCH  22  26
ATOM     26  O   UNL     1      10.446  14.946  17.021  0.00  0.00    +0.000 OA
ATOM     27  H   UNL     1      10.511  15.638  17.710  0.00  0.00    +0.000 HD
ENDBRANCH  22  26
ENDBRANCH  21  22
ENDBRANCH  20  21
ENDBRANCH  19  20
ENDBRANCH  18  19
ENDBRANCH  17  18
ENDBRANCH  16  17
ENDBRANCH  15  16
ENDBRANCH   1  15
TORSDOF 12
ENDMDL
MODEL 3
REMARK VINA RESULT:      -6.4      1.236      1.300
REMARK  Name = 
REMARK  12 active torsions:
REMARK  status: ('A' for Active; 'I' for Inactive)
REMARK    1  A    between atoms: N_1  and  C_2
REMARK    2  A    between atoms: N_10  and  C_11
REMARK    3  A    between atoms: C_11  and  C_12
REMARK    4  A    between atoms: C_12  and  C_13
REMARK    5  A    between atoms: C_13  and  C_14
REMARK    6  A    between atoms: C_14  and  C_15
REMARK    7  A    between atoms: C_15  and  C_16
REMARK    8  A    between atoms: C_16  and  C_17
REMARK    9  A    between atoms: C_17  and  C_18
REMARK   10  A    between atoms: C_18  and  P_19
REMARK   11  A    between atoms: P_19  and  O_21
REMARK   12  A    between atoms: P_19  and  O_22
REMARK                            x       y       z     vdW  Elec       q    Type
REMARK                         _______ _______ _______ _____ _____    ______ ____
ROOT
ATOM      1  C   UNL     1       5.017   6.447  18.088  0.00  0.00    +0.000 C 
ENDROOT
BRANCH   1  10
ATOM      2  C   UNL     1       3.143   5.143  19.136  0.00  0.00    +0.000 A 
ATOM      3  C   UNL     1       2.336   4.055  19.100  0.00  0.00    +0.000 A 
ATOM      4 BR   UNL     1       1.134   3.607  20.477  0.00  0.00    +0.000 Br
ATOM      5  C   UNL     1       2.395   3.124  17.944  0.00  0.00    +0.000 A 
ATOM      6  O   UNL     1       1.726   2.103  17.871  0.00  0.00    +0.000 OA
ATOM      7  N   UNL     1       3.239   3.473  16.939  0.00  0.00    +0.000 N 
ATOM      8  C   UNL     1       4.103   4.533  16.951  0.00  0.00    +0.000 A 
ATOM      9  O   UNL     1       4.858   4.695  16.012  0.00  0.00    +0.000 OA
ATOM     10  N   UNL     1       4.049   5.346  18.090  0.00  0.00    +0.000 N 
ATOM     11  H   UNL     1       3.297   2.854  16.152  0.00  0.00    +0.000 HD
BRANCH   2  12
ATOM     12  N   UNL     1       3.041   6.022  20.215  0.00  0.00    +0.000 N 
ATOM     13  H   UNL     1       2.638   5.577  21.041  0.00  0.00    +0.000 HD
ATOM     14  H   UNL     1       3.887   6.532  20.442  0.00  0.00    +0.000 HD
ENDBRANCH   2  12
ENDBRANCH   1  10
BRANCH   1  15
ATOM     15  C   UNL     1       6.475   5.964  18.093  0.00  0.00    +0.000 C 
BRANCH  15  16
ATOM     16  C   UNL     1       7.440   6.932  17.406  0.00  0.00    +0.000 C 
BRANCH  16  17
ATOM     17  C   UNL     1       8.171   7.772  18.442  0.00  0.00    +0.000 C 
BRANCH  17  18
ATOM     18  C   UNL     1       8.327   9.206  17.995  0.00  0.00    +0.000 C 
BRANCH  18  19
ATOM     19  C   UNL     1       9.111   9.975  19.047  0.00  0.00    +0.000 C 
BRANCH  19  20
ATOM     20  C   UNL     1       9.380  11.363  18.517  0.00  0.00    +0.000 C 
BRANCH  20  21
ATOM     21  C   UNL     1      10.705  11.419  17.793  0.00  0.00    +0.000 C 
BRANCH  21  22
ATOM     22  P   UNL     1      10.945  13.095  17.096  0.00  0.00    +0.000 P 
ATOM     23  O   UNL     1       9.661  13.586  17.765  0.00  0.00    +0.000 OA
BRANCH  22  24
ATOM     24  O   UNL     1      12.132  13.377  18.185  0.00  0.00    +0.000 OA
ATOM     25  H   UNL     1      12.077  12.767  18.944  0.00  0.00    +0.000 HD
ENDBRANCH  22  24
BRANCH  22  26
ATOM     26  O   UNL     1      11.171  14.678  16.438  0.00  0.00    +0.000 OA
ATOM     27  H   UNL     1      12.136  14.833  16.479  0.00  0.00    +0.000 HD
ENDBRANCH  22  26
ENDBRANCH  21  22
ENDBRANCH  20  21
ENDBRANCH  19  20
ENDBRANCH  18  19
ENDBRANCH  17  18
ENDBRANCH  16  17
ENDBRANCH  15  16
ENDBRANCH   1  15
TORSDOF 12
ENDMDL
MODEL 4
REMARK VINA RESULT:      -6.4      1.745      2.509
REMARK  Name = 
REMARK  12 active torsions:
REMARK  status: ('A' for Active; 'I' for Inactive)
REMARK    1  A    between atoms: N_1  and  C_2
REMARK    2  A    between atoms: N_10  and  C_11
REMARK    3  A    between atoms: C_11  and  C_12
REMARK    4  A    between atoms: C_12  and  C_13
REMARK    5  A    between atoms: C_13  and  C_14
REMARK    6  A    between atoms: C_14  and  C_15
REMARK    7  A    between atoms: C_15  and  C_16
REMARK    8  A    between atoms: C_16  and  C_17
REMARK    9  A    between atoms: C_17  and  C_18
REMARK   10  A    between atoms: C_18  and  P_19
REMARK   11  A    between atoms: P_19  and  O_21
REMARK   12  A    between atoms: P_19  and  O_22
REMARK                            x       y       z     vdW  Elec       q    Type
REMARK                         _______ _______ _______ _____ _____    ______ ____
ROOT
ATOM      1  C   UNL     1       4.895   4.490  16.510  0.00  0.00    +0.000 C 
ENDROOT
BRANCH   1  10
ATOM      2  C   UNL     1       3.802   3.809  18.667  0.00  0.00    +0.000 A 
ATOM      3  C   UNL     1       3.000   4.143  19.708  0.00  0.00    +0.000 A 
ATOM      4 BR   UNL     1       2.433   2.917  21.018  0.00  0.00    +0.000 Br
ATOM      5  C   UNL     1       2.495   5.534  19.840  0.00  0.00    +0.000 A 
ATOM      6  O   UNL     1       1.735   5.890  20.730  0.00  0.00    +0.000 OA
ATOM      7  N   UNL     1       2.937   6.421  18.911  0.00  0.00    +0.000 N 
ATOM      8  C   UNL     1       3.707   6.122  17.821  0.00  0.00    +0.000 A 
ATOM      9  O   UNL     1       3.976   6.999  17.025  0.00  0.00    +0.000 OA
ATOM     10  N   UNL     1       4.107   4.783  17.711  0.00  0.00    +0.000 N 
ATOM     11  H   UNL     1       2.603   7.364  18.980  0.00  0.00    +0.000 HD
BRANCH   2  12
ATOM     12  N   UNL     1       4.293   2.506  18.586  0.00  0.00    +0.000 N 
ATOM     13  H   UNL     1       5.215   2.413  19.015  0.00  0.00    +0.000 HD
ATOM     14  H   UNL     1       3.660   1.782  18.903  0.00  0.00    +0.000 HD
ENDBRANCH   2  12
ENDBRANCH   1  10
BRANCH   1  15
ATOM     15  C   UNL     1       6.288   5.136  16.534  0.00  0.00    +0.000 C 
BRANCH  15  16
ATOM     16  C   UNL     1       7.193   4.593  17.641  0.00  0.00    +0.000 C 
BRANCH  16  17
ATOM     17  C   UNL     1       7.701   5.731  18.514  0.00  0.00    +0.000 C 
BRANCH  17  18
ATOM     18  C   UNL     1       7.479   7.078  17.868  0.00  0.00    +0.000 C 
BRANCH  18  19
ATOM     19  C   UNL     1       8.363   8.110  18.549  0.00  0.00    +0.000 C 
BRANCH  19  20
ATOM     20  C   UNL     1       8.384   9.355  17.694  0.00  0.00    +0.000 C 
BRANCH  20  21
ATOM     21  C   UNL     1       8.763  10.567  18.512  0.00  0.00    +0.000 C 
BRANCH  21  22
ATOM     22  P   UNL     1      10.395  11.186  17.961  0.00  0.00    +0.000 P 
ATOM     23  O   UNL     1       9.806  12.568  17.681  0.00  0.00    +0.000 OA
BRANCH  22  24
ATOM     24  O   UNL     1      10.898  11.240  19.516  0.00  0.00    +0.000 OA
ATOM     25  H   UNL     1      10.505  11.992  19.996  0.00  0.00    +0.000 HD
ENDBRANCH  22  24
BRANCH  22  26
ATOM     26  O   UNL     1      11.937  11.770  17.439  0.00  0.00    +0.000 OA
ATOM     27  H   UNL     1      12.565  11.051  17.654  0.00  0.00    +0.000 HD
ENDBRANCH  22  26
ENDBRANCH  21  22
ENDBRANCH  20  21
ENDBRANCH  19  20
ENDBRANCH  18  19
ENDBRANCH  17  18
ENDBRANCH  16  17
ENDBRANCH  15  16
ENDBRANCH   1  15
TORSDOF 12
ENDMDL
MODEL 5
REMARK VINA RESULT:      -6.4      5.161      7.145
REMARK  Name = 
REMARK  12 active torsions:
REMARK  status: ('A' for Active; 'I' for Inactive)
REMARK    1  A    between atoms: N_1  and  C_2
REMARK    2  A    between atoms: N_10  and  C_11
REMARK    3  A    between atoms: C_11  and  C_12
REMARK    4  A    between atoms: C_12  and  C_13
REMARK    5  A    between atoms: C_13  and  C_14
REMARK    6  A    between atoms: C_14  and  C_15
REMARK    7  A    between atoms: C_15  and  C_16
REMARK    8  A    between atoms: C_16  and  C_17
REMARK    9  A    between atoms: C_17  and  C_18
REMARK   10  A    between atoms: C_18  and  P_19
REMARK   11  A    between atoms: P_19  and  O_21
REMARK   12  A    between atoms: P_19  and  O_22
REMARK                            x       y       z     vdW  Elec       q    Type
REMARK                         _______ _______ _______ _____ _____    ______ ____
ROOT
ATOM      1  C   UNL     1       2.840   7.266  18.805  0.00  0.00    +0.000 C 
ENDROOT
BRANCH   1  10
ATOM      2  C   UNL     1       1.418   9.337  18.861  0.00  0.00    +0.000 A 
ATOM      3  C   UNL     1       0.563  10.128  19.553  0.00  0.00    +0.000 A 
ATOM      4 BR   UNL     1      -0.032  11.803  18.937  0.00  0.00    +0.000 Br
ATOM      5  C   UNL     1       0.070   9.701  20.888  0.00  0.00    +0.000 A 
ATOM      6  O   UNL     1      -0.668  10.386  21.582  0.00  0.00    +0.000 OA
ATOM      7  N   UNL     1       0.476   8.475  21.311  0.00  0.00    +0.000 N 
ATOM      8  C   UNL     1       1.372   7.664  20.670  0.00  0.00    +0.000 A 
ATOM      9  O   UNL     1       1.705   6.618  21.192  0.00  0.00    +0.000 OA
ATOM     10  N   UNL     1       1.852   8.140  19.443  0.00  0.00    +0.000 N 
ATOM     11  H   UNL     1       0.159   8.171  22.212  0.00  0.00    +0.000 HD
BRANCH   2  12
ATOM     12  N   UNL     1       1.837   9.743  17.594  0.00  0.00    +0.000 N 
ATOM     13  H   UNL     1       1.051   9.931  16.969  0.00  0.00    +0.000 HD
ATOM     14  H   UNL     1       2.513  10.497  17.580  0.00  0.00    +0.000 HD
ENDBRANCH   2  12
ENDBRANCH   1  10
BRANCH   1  15
ATOM     15  C   UNL     1       2.208   6.245  17.848  0.00  0.00    +0.000 C 
BRANCH  15  16
ATOM     16  C   UNL     1       2.327   4.800  18.334  0.00  0.00    +0.000 C 
BRANCH  16  17
ATOM     17  C   UNL     1       2.732   3.887  17.186  0.00  0.00    +0.000 C 
BRANCH  17  18
ATOM     18  C   UNL     1       4.194   3.517  17.251  0.00  0.00    +0.000 C 
BRANCH  18  19
ATOM     19  C   UNL     1       4.930   4.184  16.100  0.00  0.00    +0.000 C 
BRANCH  19  20
ATOM     20  C   UNL     1       6.306   4.580  16.583  0.00  0.00    +0.000 C 
BRANCH  20  21
ATOM     21  C   UNL     1       6.245   5.837  17.419  0.00  0.00    +0.000 C 
BRANCH  21  22
ATOM     22  P   UNL     1       7.250   5.608  18.932  0.00  0.00    +0.000 P 
ATOM     23  O   UNL     1       6.032   5.083  19.693  0.00  0.00    +0.000 OA
BRANCH  22  24
ATOM     24  O   UNL     1       7.945   4.284  18.269  0.00  0.00    +0.000 OA
ATOM     25  H   UNL     1       7.301   3.755  17.762  0.00  0.00    +0.000 HD
ENDBRANCH  22  24
BRANCH  22  26
ATOM     26  O   UNL     1       8.198   5.391  20.362  0.00  0.00    +0.000 OA
ATOM     27  H   UNL     1       8.504   4.462  20.323  0.00  0.00    +0.000 HD
ENDBRANCH  22  26
ENDBRANCH  21  22
ENDBRANCH  20  21
ENDBRANCH  19  20
ENDBRANCH  18  19
ENDBRANCH  17  18
ENDBRANCH  16  17
ENDBRANCH  15  16
ENDBRANCH   1  15
TORSDOF 12
ENDMDL
MODEL 6
REMARK VINA RESULT:      -6.3      2.822      3.640
REMARK  Name = 
REMARK  12 active torsions:
REMARK  status: ('A' for Active; 'I' for Inactive)
REMARK    1  A    between atoms: N_1  and  C_2
REMARK    2  A    between atoms: N_10  and  C_11
REMARK    3  A    between atoms: C_11  and  C_12
REMARK    4  A    between atoms: C_12  and  C_13
REMARK    5  A    between atoms: C_13  and  C_14
REMARK    6  A    between atoms: C_14  and  C_15
REMARK    7  A    between atoms: C_15  and  C_16
REMARK    8  A    between atoms: C_16  and  C_17
REMARK    9  A    between atoms: C_17  and  C_18
REMARK   10  A    between atoms: C_18  and  P_19
REMARK   11  A    between atoms: P_19  and  O_21
REMARK   12  A    between atoms: P_19  and  O_22
REMARK                            x       y       z     vdW  Elec       q    Type
REMARK                         _______ _______ _______ _____ _____    ______ ____
ROOT
ATOM      1  C   UNL     1       8.070   6.739  18.188  0.00  0.00    +0.000 C 
ENDROOT
BRANCH   1  10
ATOM      2  C   UNL     1       6.865   5.443  16.405  0.00  0.00    +0.000 A 
ATOM      3  C   UNL     1       5.844   4.616  16.073  0.00  0.00    +0.000 A 
ATOM      4 BR   UNL     1       5.425   4.142  14.301  0.00  0.00    +0.000 Br
ATOM      5  C   UNL     1       4.966   4.057  17.133  0.00  0.00    +0.000 A 
ATOM      6  O   UNL     1       4.004   3.341  16.898  0.00  0.00    +0.000 OA
ATOM      7  N   UNL     1       5.297   4.375  18.412  0.00  0.00    +0.000 N 
ATOM      8  C   UNL     1       6.286   5.240  18.792  0.00  0.00    +0.000 A 
ATOM      9  O   UNL     1       6.434   5.494  19.971  0.00  0.00    +0.000 OA
ATOM     10  N   UNL     1       7.047   5.786  17.749  0.00  0.00    +0.000 N 
ATOM     11  H   UNL     1       4.713   4.012  19.142  0.00  0.00    +0.000 HD
BRANCH   2  12
ATOM     12  N   UNL     1       7.697   5.925  15.395  0.00  0.00    +0.000 N 
ATOM     13  H   UNL     1       8.638   5.530  15.447  0.00  0.00    +0.000 HD
ATOM     14  H   UNL     1       7.321   5.867  14.456  0.00  0.00    +0.000 HD
ENDBRANCH   2  12
ENDBRANCH   1  10
BRANCH   1  15
ATOM     15  C   UNL     1       7.755   8.186  17.782  0.00  0.00    +0.000 C 
BRANCH  15  16
ATOM     16  C   UNL     1       8.508   9.229  18.608  0.00  0.00    +0.000 C 
BRANCH  16  17
ATOM     17  C   UNL     1       8.658  10.521  17.820  0.00  0.00    +0.000 C 
BRANCH  17  18
ATOM     18  C   UNL     1       9.580  11.498  18.510  0.00  0.00    +0.000 C 
BRANCH  18  19
ATOM     19  C   UNL     1      10.820  11.704  17.654  0.00  0.00    +0.000 C 
BRANCH  19  20
ATOM     20  C   UNL     1      10.777  13.102  17.085  0.00  0.00    +0.000 C 
BRANCH  20  21
ATOM     21  C   UNL     1      10.840  14.136  18.184  0.00  0.00    +0.000 C 
BRANCH  21  22
ATOM     22  P   UNL     1      10.717  15.809  17.451  0.00  0.00    +0.000 P 
ATOM     23  O   UNL     1      12.079  16.192  18.031  0.00  0.00    +0.000 OA
BRANCH  22  24
ATOM     24  O   UNL     1      11.039  15.184  15.975  0.00  0.00    +0.000 OA
ATOM     25  H   UNL     1      11.156  15.884  15.305  0.00  0.00    +0.000 HD
ENDBRANCH  22  24
BRANCH  22  26
ATOM     26  O   UNL     1      10.602  17.390  16.759  0.00  0.00    +0.000 OA
ATOM     27  H   UNL     1      10.474  17.990  17.522  0.00  0.00    +0.000 HD
ENDBRANCH  22  26
ENDBRANCH  21  22
ENDBRANCH  20  21
ENDBRANCH  19  20
ENDBRANCH  18  19
ENDBRANCH  17  18
ENDBRANCH  16  17
ENDBRANCH  15  16
ENDBRANCH   1  15
TORSDOF 12
ENDMDL
MODEL 7
REMARK VINA RESULT:      -6.3      5.538      7.313
REMARK  Name = 
REMARK  12 active torsions:
REMARK  status: ('A' for Active; 'I' for Inactive)
REMARK    1  A    between atoms: N_1  and  C_2
REMARK    2  A    between atoms: N_10  and  C_11
REMARK    3  A    between atoms: C_11  and  C_12
REMARK    4  A    between atoms: C_12  and  C_13
REMARK    5  A    between atoms: C_13  and  C_14
REMARK    6  A    between atoms: C_14  and  C_15
REMARK    7  A    between atoms: C_15  and  C_16
REMARK    8  A    between atoms: C_16  and  C_17
REMARK    9  A    between atoms: C_17  and  C_18
REMARK   10  A    between atoms: C_18  and  P_19
REMARK   11  A    between atoms: P_19  and  O_21
REMARK   12  A    between atoms: P_19  and  O_22
REMARK                            x       y       z     vdW  Elec       q    Type
REMARK                         _______ _______ _______ _____ _____    ______ ____
ROOT
ATOM      1  C   UNL     1       2.573   6.279  19.949  0.00  0.00    +0.000 C 
ENDROOT
BRANCH   1  10
ATOM      2  C   UNL     1       1.435   8.436  20.548  0.00  0.00    +0.000 A 
ATOM      3  C   UNL     1       0.959   9.639  20.142  0.00  0.00    +0.000 A 
ATOM      4 BR   UNL     1      -0.032  10.791  21.251  0.00  0.00    +0.000 Br
ATOM      5  C   UNL     1       1.181  10.093  18.746  0.00  0.00    +0.000 A 
ATOM      6  O   UNL     1       0.741  11.145  18.305  0.00  0.00    +0.000 OA
ATOM      7  N   UNL     1       1.927   9.272  17.962  0.00  0.00    +0.000 N 
ATOM      8  C   UNL     1       2.389   8.033  18.312  0.00  0.00    +0.000 A 
ATOM      9  O   UNL     1       2.987   7.367  17.490  0.00  0.00    +0.000 OA
ATOM     10  N   UNL     1       2.100   7.627  19.622  0.00  0.00    +0.000 N 
ATOM     11  H   UNL     1       2.083   9.559  17.014  0.00  0.00    +0.000 HD
BRANCH   2  12
ATOM     12  N   UNL     1       1.245   8.049  21.874  0.00  0.00    +0.000 N 
ATOM     13  H   UNL     1       2.001   7.453  22.216  0.00  0.00    +0.000 HD
ATOM     14  H   UNL     1       1.041   8.801  22.523  0.00  0.00    +0.000 HD
ENDBRANCH   2  12
ENDBRANCH   1  10
BRANCH   1  15
ATOM     15  C   UNL     1       1.438   5.327  20.354  0.00  0.00    +0.000 C 
BRANCH  15  16
ATOM     16  C   UNL     1       1.875   3.864  20.454  0.00  0.00    +0.000 C 
BRANCH  16  17
ATOM     17  C   UNL     1       1.090   3.010  19.470  0.00  0.00    +0.000 C 
BRANCH  17  18
ATOM     18  C   UNL     1       1.562   3.210  18.049  0.00  0.00    +0.000 C 
BRANCH  18  19
ATOM     19  C   UNL     1       3.011   2.762  17.937  0.00  0.00    +0.000 C 
BRANCH  19  20
ATOM     20  C   UNL     1       3.817   3.904  17.364  0.00  0.00    +0.000 C 
BRANCH  20  21
ATOM     21  C   UNL     1       5.113   4.084  18.119  0.00  0.00    +0.000 C 
BRANCH  21  22
ATOM     22  P   UNL     1       6.313   4.973  17.060  0.00  0.00    +0.000 P 
ATOM     23  O   UNL     1       6.065   6.273  17.825  0.00  0.00    +0.000 OA
BRANCH  22  24
ATOM     24  O   UNL     1       7.547   4.241  17.846  0.00  0.00    +0.000 OA
ATOM     25  H   UNL     1       7.819   4.743  18.637  0.00  0.00    +0.000 HD
ENDBRANCH  22  24
BRANCH  22  26
ATOM     26  O   UNL     1       7.446   5.814  16.060  0.00  0.00    +0.000 OA
ATOM     27  H   UNL     1       6.932   6.540  15.653  0.00  0.00    +0.000 HD
ENDBRANCH  22  26
ENDBRANCH  21  22
ENDBRANCH  20  21
ENDBRANCH  19  20
ENDBRANCH  18  19
ENDBRANCH  17  18
ENDBRANCH  16  17
ENDBRANCH  15  16
ENDBRANCH   1  15
TORSDOF 12
ENDMDL
MODEL 8
REMARK VINA RESULT:      -6.3      6.282      8.323
REMARK  Name = 
REMARK  12 active torsions:
REMARK  status: ('A' for Active; 'I' for Inactive)
REMARK    1  A    between atoms: N_1  and  C_2
REMARK    2  A    between atoms: N_10  and  C_11
REMARK    3  A    between atoms: C_11  and  C_12
REMARK    4  A    between atoms: C_12  and  C_13
REMARK    5  A    between atoms: C_13  and  C_14
REMARK    6  A    between atoms: C_14  and  C_15
REMARK    7  A    between atoms: C_15  and  C_16
REMARK    8  A    between atoms: C_16  and  C_17
REMARK    9  A    between atoms: C_17  and  C_18
REMARK   10  A    between atoms: C_18  and  P_19
REMARK   11  A    between atoms: P_19  and  O_21
REMARK   12  A    between atoms: P_19  and  O_22
REMARK                            x       y       z     vdW  Elec       q    Type
REMARK                         _______ _______ _______ _____ _____    ______ ____
ROOT
ATOM      1  C   UNL     1       2.809   7.372  17.569  0.00  0.00    +0.000 C 
ENDROOT
BRANCH   1  10
ATOM      2  C   UNL     1       1.563   9.140  18.848  0.00  0.00    +0.000 A 
ATOM      3  C   UNL     1       1.085   9.579  20.037  0.00  0.00    +0.000 A 
ATOM      4 BR   UNL     1       0.303  11.274  20.280  0.00  0.00    +0.000 Br
ATOM      5  C   UNL     1       1.194   8.721  21.245  0.00  0.00    +0.000 A 
ATOM      6  O   UNL     1       0.822   9.075  22.355  0.00  0.00    +0.000 OA
ATOM      7  N   UNL     1       1.728   7.487  21.054  0.00  0.00    +0.000 N 
ATOM      8  C   UNL     1       2.263   7.018  19.887  0.00  0.00    +0.000 A 
ATOM      9  O   UNL     1       2.774   5.915  19.868  0.00  0.00    +0.000 OA
ATOM     10  N   UNL     1       2.189   7.889  18.792  0.00  0.00    +0.000 N 
ATOM     11  H   UNL     1       1.815   6.895  21.859  0.00  0.00    +0.000 HD
BRANCH   2  12
ATOM     12  N   UNL     1       1.415   9.949  17.721  0.00  0.00    +0.000 N 
ATOM     13  H   UNL     1       2.110  10.696  17.687  0.00  0.00    +0.000 HD
ATOM     14  H   UNL     1       1.353   9.458  16.837  0.00  0.00    +0.000 HD
ENDBRANCH   2  12
ENDBRANCH   1  10
BRANCH   1  15
ATOM     15  C   UNL     1       4.343   7.347  17.640  0.00  0.00    +0.000 C 
BRANCH  15  16
ATOM     16  C   UNL     1       5.005   6.903  16.334  0.00  0.00    +0.000 C 
BRANCH  16  17
ATOM     17  C   UNL     1       5.772   5.606  16.545  0.00  0.00    +0.000 C 
BRANCH  17  18
ATOM     18  C   UNL     1       4.989   4.406  16.066  0.00  0.00    +0.000 C 
BRANCH  18  19
ATOM     19  C   UNL     1       4.486   3.625  17.270  0.00  0.00    +0.000 C 
BRANCH  19  20
ATOM     20  C   UNL     1       3.007   3.375  17.088  0.00  0.00    +0.000 C 
BRANCH  20  21
ATOM     21  C   UNL     1       2.581   2.112  17.798  0.00  0.00    +0.000 C 
BRANCH  21  22
ATOM     22  P   UNL     1       1.413   2.536  19.142  0.00  0.00    +0.000 P 
ATOM     23  O   UNL     1       2.558   2.600  20.153  0.00  0.00    +0.000 OA
BRANCH  22  24
ATOM     24  O   UNL     1       1.281   4.053  18.547  0.00  0.00    +0.000 OA
ATOM     25  H   UNL     1       2.153   4.471  18.427  0.00  0.00    +0.000 HD
ENDBRANCH  22  24
BRANCH  22  26
ATOM     26  O   UNL     1       0.310   2.936  20.413  0.00  0.00    +0.000 OA
ATOM     27  H   UNL     1       0.589   3.823  20.718  0.00  0.00    +0.000 HD
ENDBRANCH  22  26
ENDBRANCH  21  22
ENDBRANCH  20  21
ENDBRANCH  19  20
ENDBRANCH  18  19
ENDBRANCH  17  18
ENDBRANCH  16  17
ENDBRANCH  15  16
ENDBRANCH   1  15
TORSDOF 12
ENDMDL
MODEL 9
REMARK VINA RESULT:      -6.3      5.748      6.831
REMARK  Name = 
REMARK  12 active torsions:
REMARK  status: ('A' for Active; 'I' for Inactive)
REMARK    1  A    between atoms: N_1  and  C_2
REMARK    2  A    between atoms: N_10  and  C_11
REMARK    3  A    between atoms: C_11  and  C_12
REMARK    4  A    between atoms: C_12  and  C_13
REMARK    5  A    between atoms: C_13  and  C_14
REMARK    6  A    between atoms: C_14  and  C_15
REMARK    7  A    between atoms: C_15  and  C_16
REMARK    8  A    between atoms: C_16  and  C_17
REMARK    9  A    between atoms: C_17  and  C_18
REMARK   10  A    between atoms: C_18  and  P_19
REMARK   11  A    between atoms: P_19  and  O_21
REMARK   12  A    between atoms: P_19  and  O_22
REMARK                            x       y       z     vdW  Elec       q    Type
REMARK                         _______ _______ _______ _____ _____    ______ ____
ROOT
ATOM      1  C   UNL     1       3.219   5.638  17.484  0.00  0.00    +0.000 C 
ENDROOT
BRANCH   1  10
ATOM      2  C   UNL     1       2.695   4.073  19.377  0.00  0.00    +0.000 A 
ATOM      3  C   UNL     1       3.126   3.112  20.230  0.00  0.00    +0.000 A 
ATOM      4 BR   UNL     1       2.091   2.448  21.655  0.00  0.00    +0.000 Br
ATOM      5  C   UNL     1       4.494   2.551  20.088  0.00  0.00    +0.000 A 
ATOM      6  O   UNL     1       4.959   1.716  20.850  0.00  0.00    +0.000 OA
ATOM      7  N   UNL     1       5.221   3.010  19.036  0.00  0.00    +0.000 N 
ATOM      8  C   UNL     1       4.847   4.007  18.179  0.00  0.00    +0.000 A 
ATOM      9  O   UNL     1       5.624   4.374  17.318  0.00  0.00    +0.000 OA
ATOM     10  N   UNL     1       3.571   4.545  18.393  0.00  0.00    +0.000 N 
ATOM     11  H   UNL     1       6.149   2.647  18.927  0.00  0.00    +0.000 HD
BRANCH   2  12
ATOM     12  N   UNL     1       1.393   4.556  19.509  0.00  0.00    +0.000 N 
ATOM     13  H   UNL     1       0.896   4.580  18.616  0.00  0.00    +0.000 HD
ATOM     14  H   UNL     1       0.837   4.118  20.233  0.00  0.00    +0.000 HD
ENDBRANCH   2  12
ENDBRANCH   1  10
BRANCH   1  15
ATOM     15  C   UNL     1       3.572   7.023  18.047  0.00  0.00    +0.000 C 
BRANCH  15  16
ATOM     16  C   UNL     1       2.361   7.790  18.582  0.00  0.00    +0.000 C 
BRANCH  16  17
ATOM     17  C   UNL     1       1.962   8.891  17.611  0.00  0.00    +0.000 C 
BRANCH  17  18
ATOM     18  C   UNL     1       1.321  10.061  18.320  0.00  0.00    +0.000 C 
BRANCH  18  19
ATOM     19  C   UNL     1      -0.188   9.975  18.161  0.00  0.00    +0.000 C 
BRANCH  19  20
ATOM     20  C   UNL     1      -0.818  10.137  19.524  0.00  0.00    +0.000 C 
BRANCH  20  21
ATOM     21  C   UNL     1       0.235  10.360  20.584  0.00  0.00    +0.000 C 
BRANCH  21  22
ATOM     22  P   UNL     1      -0.220  11.817  21.594  0.00  0.00    +0.000 P 
ATOM     23  O   UNL     1      -0.168  10.980  22.872  0.00  0.00    +0.000 OA
BRANCH  22  24
ATOM     24  O   UNL     1       1.290  12.415  21.411  0.00  0.00    +0.000 OA
ATOM     25  H   UNL     1       1.959  11.706  21.390  0.00  0.00    +0.000 HD
ENDBRANCH  22  24
BRANCH  22  26
ATOM     26  O   UNL     1      -0.651  13.193  22.550  0.00  0.00    +0.000 OA
ATOM     27  H   UNL     1      -1.592  13.054  22.781  0.00  0.00    +0.000 HD
ENDBRANCH  22  26
ENDBRANCH  21  22
ENDBRANCH  20  21
ENDBRANCH  19  20
ENDBRANCH  18  19
ENDBRANCH  17  18
ENDBRANCH  16  17
ENDBRANCH  15  16
ENDBRANCH   1  15
TORSDOF 12
ENDMDL
