MODEL 1
REMARK VINA RESULT:      -6.3      0.000      0.000
REMARK  Name = 
REMARK  9 active torsions:
REMARK  status: ('A' for Active; 'I' for Inactive)
REMARK    1  A    between atoms: C_1  and  C_2
REMARK    2  A    between atoms: C_5  and  C_6
REMARK    3  A    between atoms: C_6  and  N_7
REMARK    4  A    between atoms: N_7  and  C_8
REMARK    5  A    between atoms: N_11  and  C_12
REMARK    6  A    between atoms: C_12  and  C_13
REMARK    7  A    between atoms: C_13  and  C_14
REMARK    8  A    between atoms: N_16  and  C_17
REMARK    9  A    between atoms: N_16  and  C_18
REMARK                            x       y       z     vdW  Elec       q    Type
REMARK                         _______ _______ _______ _____ _____    ______ ____
ROOT
ATOM      1  N   UNL     1       7.133   5.761  18.269  0.00  0.00    +0.000 N 
ATOM      2  C   UNL     1       7.713   5.487  19.577  0.00  0.00    +0.000 C 
ATOM      3  C   UNL     1       7.248   6.972  17.602  0.00  0.00    +0.000 C 
ATOM      4  O   UNL     1       6.738   7.197  16.508  0.00  0.00    +0.000 OA
ATOM      5  N   UNL     1       7.996   7.917  18.259  0.00  0.00    +0.000 N 
ATOM      6  H   UNL     1       8.038   7.861  19.266  0.00  0.00    +0.000 HD
ENDROOT
BRANCH   1   7
ATOM      7  C   UNL     1       6.216   4.753  17.736  0.00  0.00    +0.000 C 
BRANCH   7  12
ATOM      8  C   UNL     1       1.680   5.132  20.570  0.00  0.00    +0.000 C 
ATOM      9  C   UNL     1       2.945   4.648  19.949  0.00  0.00    +0.000 A 
ATOM     10  C   UNL     1       3.483   3.377  19.987  0.00  0.00    +0.000 A 
ATOM     11  C   UNL     1       4.710   3.288  19.268  0.00  0.00    +0.000 A 
ATOM     12  C   UNL     1       5.070   4.484  18.674  0.00  0.00    +0.000 A 
ATOM     13  S   UNL     1       3.934   5.716  19.047  0.00  0.00    +0.000 S 
ENDBRANCH   7  12
ENDBRANCH   1   7
BRANCH   5  14
ATOM     14  C   UNL     1       8.240   9.253  17.742  0.00  0.00    +0.000 C 
BRANCH  14  15
ATOM     15  C   UNL     1       9.077  10.119  18.683  0.00  0.00    +0.000 C 
BRANCH  15  16
ATOM     16  C   UNL     1       9.246  11.544  18.168  0.00  0.00    +0.000 C 
ATOM     17  O   UNL     1       8.350  12.090  17.518  0.00  0.00    +0.000 OA
ATOM     18  N   UNL     1      10.448  12.184  18.443  0.00  0.00    +0.000 N 
ATOM     19  C   UNL     1      11.562  11.608  19.182  0.00  0.00    +0.000 C 
ATOM     20  C   UNL     1      10.660  13.534  17.938  0.00  0.00    +0.000 C 
ENDBRANCH  15  16
ENDBRANCH  14  15
ENDBRANCH   5  14
TORSDOF 5
ENDMDL
MODEL 2
REMARK VINA RESULT:      -6.3      0.907      1.163
REMARK  Name = 
REMARK  9 active torsions:
REMARK  status: ('A' for Active; 'I' for Inactive)
REMARK    1  A    between atoms: C_1  and  C_2
REMARK    2  A    between atoms: C_5  and  C_6
REMARK    3  A    between atoms: C_6  and  N_7
REMARK    4  A    between atoms: N_7  and  C_8
REMARK    5  A    between atoms: N_11  and  C_12
REMARK    6  A    between atoms: C_12  and  C_13
REMARK    7  A    between atoms: C_13  and  C_14
REMARK    8  A    between atoms: N_16  and  C_17
REMARK    9  A    between atoms: N_16  and  C_18
REMARK                            x       y       z     vdW  Elec       q    Type
REMARK                         _______ _______ _______ _____ _____    ______ ____
ROOT
ATOM      1  N   UNL     1       7.296   5.840  18.246  0.00  0.00    +0.000 N 
ATOM      2  C   UNL     1       7.942   5.470  19.497  0.00  0.00    +0.000 C 
ATOM      3  C   UNL     1       7.373   7.099  17.669  0.00  0.00    +0.000 C 
ATOM      4  O   UNL     1       6.807   7.404  16.622  0.00  0.00    +0.000 OA
ATOM      5  N   UNL     1       8.151   7.996  18.358  0.00  0.00    +0.000 N 
ATOM      6  H   UNL     1       8.245   7.863  19.354  0.00  0.00    +0.000 HD
ENDROOT
BRANCH   1   7
ATOM      7  C   UNL     1       6.356   4.870  17.684  0.00  0.00    +0.000 C 
BRANCH   7  12
ATOM      8  C   UNL     1       2.091   4.095  20.840  0.00  0.00    +0.000 C 
ATOM      9  C   UNL     1       3.046   4.626  19.826  0.00  0.00    +0.000 A 
ATOM     10  C   UNL     1       2.945   5.784  19.083  0.00  0.00    +0.000 A 
ATOM     11  C   UNL     1       4.059   5.968  18.214  0.00  0.00    +0.000 A 
ATOM     12  C   UNL     1       4.999   4.961  18.331  0.00  0.00    +0.000 A 
ATOM     13  S   UNL     1       4.485   3.773  19.460  0.00  0.00    +0.000 S 
ENDBRANCH   7  12
ENDBRANCH   1   7
BRANCH   5  14
ATOM     14  C   UNL     1       8.364   9.370  17.933  0.00  0.00    +0.000 C 
BRANCH  14  15
ATOM     15  C   UNL     1       9.170  10.192  18.940  0.00  0.00    +0.000 C 
BRANCH  15  16
ATOM     16  C   UNL     1       9.261  11.663  18.549  0.00  0.00    +0.000 C 
ATOM     17  O   UNL     1       8.558  12.120  17.643  0.00  0.00    +0.000 OA
ATOM     18  N   UNL     1      10.175  12.450  19.237  0.00  0.00    +0.000 N 
ATOM     19  C   UNL     1      11.055  11.989  20.301  0.00  0.00    +0.000 C 
ATOM     20  C   UNL     1      10.316  13.853  18.870  0.00  0.00    +0.000 C 
ENDBRANCH  15  16
ENDBRANCH  14  15
ENDBRANCH   5  14
TORSDOF 5
ENDMDL
MODEL 3
REMARK VINA RESULT:      -6.2      4.969      8.251
REMARK  Name = 
REMARK  9 active torsions:
REMARK  status: ('A' for Active; 'I' for Inactive)
REMARK    1  A    between atoms: C_1  and  C_2
REMARK    2  A    between atoms: C_5  and  C_6
REMARK    3  A    between atoms: C_6  and  N_7
REMARK    4  A    between atoms: N_7  and  C_8
REMARK    5  A    between atoms: N_11  and  C_12
REMARK    6  A    between atoms: C_12  and  C_13
REMARK    7  A    between atoms: C_13  and  C_14
REMARK    8  A    between atoms: N_16  and  C_17
REMARK    9  A    between atoms: N_16  and  C_18
REMARK                            x       y       z     vdW  Elec       q    Type
REMARK                         _______ _______ _______ _____ _____    ______ ____
ROOT
ATOM      1  N   UNL     1       5.839   5.623  16.785  0.00  0.00    +0.000 N 
ATOM      2  C   UNL     1       5.099   6.643  16.056  0.00  0.00    +0.000 C 
ATOM      3  C   UNL     1       5.499   5.166  18.050  0.00  0.00    +0.000 C 
ATOM      4  O   UNL     1       6.143   4.319  18.663  0.00  0.00    +0.000 OA
ATOM      5  N   UNL     1       4.363   5.729  18.575  0.00  0.00    +0.000 N 
ATOM      6  H   UNL     1       4.116   6.658  18.263  0.00  0.00    +0.000 HD
ENDROOT
BRANCH   1   7
ATOM      7  C   UNL     1       7.123   5.214  16.215  0.00  0.00    +0.000 C 
BRANCH   7  12
ATOM      8  C   UNL     1       5.369   2.820  11.750  0.00  0.00    +0.000 C 
ATOM      9  C   UNL     1       6.134   3.644  12.728  0.00  0.00    +0.000 A 
ATOM     10  C   UNL     1       7.144   4.550  12.475  0.00  0.00    +0.000 A 
ATOM     11  C   UNL     1       7.637   5.156  13.666  0.00  0.00    +0.000 A 
ATOM     12  C   UNL     1       6.978   4.718  14.801  0.00  0.00    +0.000 A 
ATOM     13  S   UNL     1       5.801   3.533  14.404  0.00  0.00    +0.000 S 
ENDBRANCH   7  12
ENDBRANCH   1   7
BRANCH   5  14
ATOM     14  C   UNL     1       3.831   5.398  19.886  0.00  0.00    +0.000 C 
BRANCH  14  15
ATOM     15  C   UNL     1       2.303   5.399  19.933  0.00  0.00    +0.000 C 
BRANCH  15  16
ATOM     16  C   UNL     1       1.692   4.339  19.024  0.00  0.00    +0.000 C 
ATOM     17  O   UNL     1       1.584   4.535  17.809  0.00  0.00    +0.000 OA
ATOM     18  N   UNL     1       1.247   3.166  19.620  0.00  0.00    +0.000 N 
ATOM     19  C   UNL     1       1.315   2.862  21.042  0.00  0.00    +0.000 C 
ATOM     20  C   UNL     1       0.625   2.144  18.789  0.00  0.00    +0.000 C 
ENDBRANCH  15  16
ENDBRANCH  14  15
ENDBRANCH   5  14
TORSDOF 5
ENDMDL
MODEL 4
REMARK VINA RESULT:      -6.2      1.685      1.983
REMARK  Name = 
REMARK  9 active torsions:
REMARK  status: ('A' for Active; 'I' for Inactive)
REMARK    1  A    between atoms: C_1  and  C_2
REMARK    2  A    between atoms: C_5  and  C_6
REMARK    3  A    between atoms: C_6  and  N_7
REMARK    4  A    between atoms: N_7  and  C_8
REMARK    5  A    between atoms: N_11  and  C_12
REMARK    6  A    between atoms: C_12  and  C_13
REMARK    7  A    between atoms: C_13  and  C_14
REMARK    8  A    between atoms: N_16  and  C_17
REMARK    9  A    between atoms: N_16  and  C_18
REMARK                            x       y       z     vdW  Elec       q    Type
REMARK                         _______ _______ _______ _____ _____    ______ ____
ROOT
ATOM      1  N   UNL     1       5.996   5.871  17.325  0.00  0.00    +0.000 N 
ATOM      2  C   UNL     1       5.238   6.702  16.401  0.00  0.00    +0.000 C 
ATOM      3  C   UNL     1       7.107   6.304  18.034  0.00  0.00    +0.000 C 
ATOM      4  O   UNL     1       7.749   5.586  18.797  0.00  0.00    +0.000 OA
ATOM      5  N   UNL     1       7.439   7.619  17.828  0.00  0.00    +0.000 N 
ATOM      6  H   UNL     1       7.181   8.032  16.943  0.00  0.00    +0.000 HD
ENDROOT
BRANCH   1   7
ATOM      7  C   UNL     1       5.667   4.445  17.343  0.00  0.00    +0.000 C 
BRANCH   7  12
ATOM      8  C   UNL     1       1.303   4.456  20.458  0.00  0.00    +0.000 C 
ATOM      9  C   UNL     1       2.266   4.238  19.342  0.00  0.00    +0.000 A 
ATOM     10  C   UNL     1       2.023   3.684  18.102  0.00  0.00    +0.000 A 
ATOM     11  C   UNL     1       3.193   3.644  17.290  0.00  0.00    +0.000 A 
ATOM     12  C   UNL     1       4.298   4.191  17.916  0.00  0.00    +0.000 A 
ATOM     13  S   UNL     1       3.907   4.698  19.510  0.00  0.00    +0.000 S 
ENDBRANCH   7  12
ENDBRANCH   1   7
BRANCH   5  14
ATOM     14  C   UNL     1       8.568   8.274  18.466  0.00  0.00    +0.000 C 
BRANCH  14  15
ATOM     15  C   UNL     1       8.571   9.791  18.273  0.00  0.00    +0.000 C 
BRANCH  15  16
ATOM     16  C   UNL     1       9.370  10.514  19.353  0.00  0.00    +0.000 C 
ATOM     17  O   UNL     1       9.117  10.338  20.548  0.00  0.00    +0.000 OA
ATOM     18  N   UNL     1      10.367  11.384  18.934  0.00  0.00    +0.000 N 
ATOM     19  C   UNL     1      10.717  11.665  17.548  0.00  0.00    +0.000 C 
ATOM     20  C   UNL     1      11.129  12.119  19.934  0.00  0.00    +0.000 C 
ENDBRANCH  15  16
ENDBRANCH  14  15
ENDBRANCH   5  14
TORSDOF 5
ENDMDL
MODEL 5
REMARK VINA RESULT:      -6.1      1.615      1.849
REMARK  Name = 
REMARK  9 active torsions:
REMARK  status: ('A' for Active; 'I' for Inactive)
REMARK    1  A    between atoms: C_1  and  C_2
REMARK    2  A    between atoms: C_5  and  C_6
REMARK    3  A    between atoms: C_6  and  N_7
REMARK    4  A    between atoms: N_7  and  C_8
REMARK    5  A    between atoms: N_11  and  C_12
REMARK    6  A    between atoms: C_12  and  C_13
REMARK    7  A    between atoms: C_13  and  C_14
REMARK    8  A    between atoms: N_16  and  C_17
REMARK    9  A    between atoms: N_16  and  C_18
REMARK                            x       y       z     vdW  Elec       q    Type
REMARK                         _______ _______ _______ _____ _____    ______ ____
ROOT
ATOM      1  N   UNL     1       7.499   5.874  18.332  0.00  0.00    +0.000 N 
ATOM      2  C   UNL     1       7.718   5.560  19.737  0.00  0.00    +0.000 C 
ATOM      3  C   UNL     1       7.747   7.114  17.761  0.00  0.00    +0.000 C 
ATOM      4  O   UNL     1       7.539   7.372  16.579  0.00  0.00    +0.000 OA
ATOM      5  N   UNL     1       8.261   8.048  18.625  0.00  0.00    +0.000 N 
ATOM      6  H   UNL     1       8.035   7.951  19.605  0.00  0.00    +0.000 HD
ENDROOT
BRANCH   1   7
ATOM      7  C   UNL     1       6.791   4.868  17.540  0.00  0.00    +0.000 C 
BRANCH   7  12
ATOM      8  C   UNL     1       1.513   3.980  17.864  0.00  0.00    +0.000 C 
ATOM      9  C   UNL     1       2.858   4.620  17.812  0.00  0.00    +0.000 A 
ATOM     10  C   UNL     1       3.181   5.945  18.022  0.00  0.00    +0.000 A 
ATOM     11  C   UNL     1       4.579   6.188  17.896  0.00  0.00    +0.000 A 
ATOM     12  C   UNL     1       5.298   5.040  17.617  0.00  0.00    +0.000 A 
ATOM     13  S   UNL     1       4.251   3.688  17.459  0.00  0.00    +0.000 S 
ENDBRANCH   7  12
ENDBRANCH   1   7
BRANCH   5  14
ATOM     14  C   UNL     1       8.588   9.410  18.238  0.00  0.00    +0.000 C 
BRANCH  14  15
ATOM     15  C   UNL     1       9.334  10.182  19.326  0.00  0.00    +0.000 C 
BRANCH  15  16
ATOM     16  C   UNL     1       9.999  11.446  18.792  0.00  0.00    +0.000 C 
ATOM     17  O   UNL     1      10.676  11.414  17.760  0.00  0.00    +0.000 OA
ATOM     18  N   UNL     1       9.827  12.615  19.521  0.00  0.00    +0.000 N 
ATOM     19  C   UNL     1       9.064  12.737  20.755  0.00  0.00    +0.000 C 
ATOM     20  C   UNL     1      10.475  13.836  19.062  0.00  0.00    +0.000 C 
ENDBRANCH  15  16
ENDBRANCH  14  15
ENDBRANCH   5  14
TORSDOF 5
ENDMDL
MODEL 6
REMARK VINA RESULT:      -6.1      6.106      9.146
REMARK  Name = 
REMARK  9 active torsions:
REMARK  status: ('A' for Active; 'I' for Inactive)
REMARK    1  A    between atoms: C_1  and  C_2
REMARK    2  A    between atoms: C_5  and  C_6
REMARK    3  A    between atoms: C_6  and  N_7
REMARK    4  A    between atoms: N_7  and  C_8
REMARK    5  A    between atoms: N_11  and  C_12
REMARK    6  A    between atoms: C_12  and  C_13
REMARK    7  A    between atoms: C_13  and  C_14
REMARK    8  A    between atoms: N_16  and  C_17
REMARK    9  A    between atoms: N_16  and  C_18
REMARK                            x       y       z     vdW  Elec       q    Type
REMARK                         _______ _______ _______ _____ _____    ______ ____
ROOT
ATOM      1  N   UNL     1       0.781   9.577  19.348  0.00  0.00    +0.000 N 
ATOM      2  C   UNL     1       0.446   9.356  20.748  0.00  0.00    +0.000 C 
ATOM      3  C   UNL     1       1.651   8.780  18.618  0.00  0.00    +0.000 C 
ATOM      4  O   UNL     1       1.941   8.988  17.443  0.00  0.00    +0.000 OA
ATOM      5  N   UNL     1       2.169   7.715  19.312  0.00  0.00    +0.000 N 
ATOM      6  H   UNL     1       2.248   7.806  20.315  0.00  0.00    +0.000 HD
ENDROOT
BRANCH   1   7
ATOM      7  C   UNL     1       0.315  10.830  18.754  0.00  0.00    +0.000 C 
BRANCH   7  12
ATOM      8  C   UNL     1      -4.837  11.754  17.588  0.00  0.00    +0.000 C 
ATOM      9  C   UNL     1      -3.466  11.173  17.661  0.00  0.00    +0.000 A 
ATOM     10  C   UNL     1      -2.944  10.124  16.934  0.00  0.00    +0.000 A 
ATOM     11  C   UNL     1      -1.587   9.852  17.274  0.00  0.00    +0.000 A 
ATOM     12  C   UNL     1      -1.094  10.716  18.235  0.00  0.00    +0.000 A 
ATOM     13  S   UNL     1      -2.309  11.814  18.750  0.00  0.00    +0.000 S 
ENDBRANCH   7  12
ENDBRANCH   1   7
BRANCH   5  14
ATOM     14  C   UNL     1       3.102   6.758  18.741  0.00  0.00    +0.000 C 
BRANCH  14  15
ATOM     15  C   UNL     1       2.500   5.364  18.565  0.00  0.00    +0.000 C 
BRANCH  15  16
ATOM     16  C   UNL     1       2.138   4.713  19.896  0.00  0.00    +0.000 C 
ATOM     17  O   UNL     1       1.321   5.242  20.655  0.00  0.00    +0.000 OA
ATOM     18  N   UNL     1       2.779   3.524  20.220  0.00  0.00    +0.000 N 
ATOM     19  C   UNL     1       3.768   2.845  19.395  0.00  0.00    +0.000 C 
ATOM     20  C   UNL     1       2.485   2.890  21.498  0.00  0.00    +0.000 C 
ENDBRANCH  15  16
ENDBRANCH  14  15
ENDBRANCH   5  14
TORSDOF 5
ENDMDL
MODEL 7
REMARK VINA RESULT:      -6.0      5.488      7.608
REMARK  Name = 
REMARK  9 active torsions:
REMARK  status: ('A' for Active; 'I' for Inactive)
REMARK    1  A    between atoms: C_1  and  C_2
REMARK    2  A    between atoms: C_5  and  C_6
REMARK    3  A    between atoms: C_6  and  N_7
REMARK    4  A    between atoms: N_7  and  C_8
REMARK    5  A    between atoms: N_11  and  C_12
REMARK    6  A    between atoms: C_12  and  C_13
REMARK    7  A    between atoms: C_13  and  C_14
REMARK    8  A    between atoms: N_16  and  C_17
REMARK    9  A    between atoms: N_16  and  C_18
REMARK                            x       y       z     vdW  Elec       q    Type
REMARK                         _______ _______ _______ _____ _____    ______ ____
ROOT
ATOM      1  N   UNL     1       2.408   5.024  20.049  0.00  0.00    +0.000 N 
ATOM      2  C   UNL     1       2.258   4.274  21.288  0.00  0.00    +0.000 C 
ATOM      3  C   UNL     1       2.144   6.379  19.920  0.00  0.00    +0.000 C 
ATOM      4  O   UNL     1       2.256   6.996  18.864  0.00  0.00    +0.000 OA
ATOM      5  N   UNL     1       1.751   6.998  21.080  0.00  0.00    +0.000 N 
ATOM      6  H   UNL     1       1.288   6.432  21.777  0.00  0.00    +0.000 HD
ENDROOT
BRANCH   1   7
ATOM      7  C   UNL     1       2.664   4.242  18.839  0.00  0.00    +0.000 C 
BRANCH   7  12
ATOM      8  C   UNL     1       7.118   4.569  15.871  0.00  0.00    +0.000 C 
ATOM      9  C   UNL     1       6.147   4.554  17.003  0.00  0.00    +0.000 A 
ATOM     10  C   UNL     1       6.373   4.879  18.325  0.00  0.00    +0.000 A 
ATOM     11  C   UNL     1       5.198   4.752  19.120  0.00  0.00    +0.000 A 
ATOM     12  C   UNL     1       4.095   4.359  18.386  0.00  0.00    +0.000 A 
ATOM     13  S   UNL     1       4.518   4.095  16.742  0.00  0.00    +0.000 S 
ENDBRANCH   7  12
ENDBRANCH   1   7
BRANCH   5  14
ATOM     14  C   UNL     1       1.421   8.411  21.168  0.00  0.00    +0.000 C 
BRANCH  14  15
ATOM     15  C   UNL     1      -0.027   8.665  21.585  0.00  0.00    +0.000 C 
BRANCH  15  16
ATOM     16  C   UNL     1      -0.175   9.915  22.446  0.00  0.00    +0.000 C 
ATOM     17  O   UNL     1       0.103   9.889  23.649  0.00  0.00    +0.000 OA
ATOM     18  N   UNL     1      -0.650  11.064  21.827  0.00  0.00    +0.000 N 
ATOM     19  C   UNL     1      -1.019  11.176  20.423  0.00  0.00    +0.000 C 
ATOM     20  C   UNL     1      -0.837  12.269  22.623  0.00  0.00    +0.000 C 
ENDBRANCH  15  16
ENDBRANCH  14  15
ENDBRANCH   5  14
TORSDOF 5
ENDMDL
MODEL 8
REMARK VINA RESULT:      -6.0      4.822      8.190
REMARK  Name = 
REMARK  9 active torsions:
REMARK  status: ('A' for Active; 'I' for Inactive)
REMARK    1  A    between atoms: C_1  and  C_2
REMARK    2  A    between atoms: C_5  and  C_6
REMARK    3  A    between atoms: C_6  and  N_7
REMARK    4  A    between atoms: N_7  and  C_8
REMARK    5  A    between atoms: N_11  and  C_12
REMARK    6  A    between atoms: C_12  and  C_13
REMARK    7  A    between atoms: C_13  and  C_14
REMARK    8  A    between atoms: N_16  and  C_17
REMARK    9  A    between atoms: N_16  and  C_18
REMARK                            x       y       z     vdW  Elec       q    Type
REMARK                         _______ _______ _______ _____ _____    ______ ____
ROOT
ATOM      1  N   UNL     1       4.714   6.064  18.629  0.00  0.00    +0.000 N 
ATOM      2  C   UNL     1       5.800   5.282  19.204  0.00  0.00    +0.000 C 
ATOM      3  C   UNL     1       3.407   6.042  19.091  0.00  0.00    +0.000 C 
ATOM      4  O   UNL     1       2.495   6.691  18.585  0.00  0.00    +0.000 OA
ATOM      5  N   UNL     1       3.200   5.236  20.183  0.00  0.00    +0.000 N 
ATOM      6  H   UNL     1       3.817   4.446  20.303  0.00  0.00    +0.000 HD
ENDROOT
BRANCH   1   7
ATOM      7  C   UNL     1       5.000   6.753  17.371  0.00  0.00    +0.000 C 
BRANCH   7  12
ATOM      8  C   UNL     1       6.201   3.506  13.276  0.00  0.00    +0.000 C 
ATOM      9  C   UNL     1       6.278   4.396  14.469  0.00  0.00    +0.000 A 
ATOM     10  C   UNL     1       7.404   4.890  15.095  0.00  0.00    +0.000 A 
ATOM     11  C   UNL     1       7.084   5.720  16.207  0.00  0.00    +0.000 A 
ATOM     12  C   UNL     1       5.721   5.863  16.393  0.00  0.00    +0.000 A 
ATOM     13  S   UNL     1       4.848   4.939  15.240  0.00  0.00    +0.000 S 
ENDBRANCH   7  12
ENDBRANCH   1   7
BRANCH   5  14
ATOM     14  C   UNL     1       1.907   5.064  20.824  0.00  0.00    +0.000 C 
BRANCH  14  15
ATOM     15  C   UNL     1       1.523   3.597  21.018  0.00  0.00    +0.000 C 
BRANCH  15  16
ATOM     16  C   UNL     1       2.620   2.642  20.559  0.00  0.00    +0.000 C 
ATOM     17  O   UNL     1       3.532   2.315  21.324  0.00  0.00    +0.000 OA
ATOM     18  N   UNL     1       2.558   2.181  19.251  0.00  0.00    +0.000 N 
ATOM     19  C   UNL     1       1.533   2.532  18.279  0.00  0.00    +0.000 C 
ATOM     20  C   UNL     1       3.607   1.295  18.765  0.00  0.00    +0.000 C 
ENDBRANCH  15  16
ENDBRANCH  14  15
ENDBRANCH   5  14
TORSDOF 5
ENDMDL
MODEL 9
REMARK VINA RESULT:      -6.0      1.264      1.334
REMARK  Name = 
REMARK  9 active torsions:
REMARK  status: ('A' for Active; 'I' for Inactive)
REMARK    1  A    between atoms: C_1  and  C_2
REMARK    2  A    between atoms: C_5  and  C_6
REMARK    3  A    between atoms: C_6  and  N_7
REMARK    4  A    between atoms: N_7  and  C_8
REMARK    5  A    between atoms: N_11  and  C_12
REMARK    6  A    between atoms: C_12  and  C_13
REMARK    7  A    between atoms: C_13  and  C_14
REMARK    8  A    between atoms: N_16  and  C_17
REMARK    9  A    between atoms: N_16  and  C_18
REMARK                            x       y       z     vdW  Elec       q    Type
REMARK                         _______ _______ _______ _____ _____    ______ ____
ROOT
ATOM      1  N   UNL     1       6.754   5.492  17.298  0.00  0.00    +0.000 N 
ATOM      2  C   UNL     1       7.707   4.715  18.078  0.00  0.00    +0.000 C 
ATOM      3  C   UNL     1       6.781   6.874  17.183  0.00  0.00    +0.000 C 
ATOM      4  O   UNL     1       5.959   7.519  16.538  0.00  0.00    +0.000 OA
ATOM      5  N   UNL     1       7.819   7.482  17.845  0.00  0.00    +0.000 N 
ATOM      6  H   UNL     1       8.196   7.010  18.654  0.00  0.00    +0.000 HD
ENDROOT
BRANCH   1   7
ATOM      7  C   UNL     1       5.593   4.769  16.776  0.00  0.00    +0.000 C 
BRANCH   7  12
ATOM      8  C   UNL     1       2.215   4.671  20.938  0.00  0.00    +0.000 C 
ATOM      9  C   UNL     1       3.066   4.294  19.775  0.00  0.00    +0.000 A 
ATOM     10  C   UNL     1       3.134   3.078  19.126  0.00  0.00    +0.000 A 
ATOM     11  C   UNL     1       4.063   3.093  18.045  0.00  0.00    +0.000 A 
ATOM     12  C   UNL     1       4.665   4.327  17.875  0.00  0.00    +0.000 A 
ATOM     13  S   UNL     1       4.131   5.437  19.071  0.00  0.00    +0.000 S 
ENDBRANCH   7  12
ENDBRANCH   1   7
BRANCH   5  14
ATOM     14  C   UNL     1       8.032   8.919  17.860  0.00  0.00    +0.000 C 
BRANCH  14  15
ATOM     15  C   UNL     1       8.950   9.379  18.993  0.00  0.00    +0.000 C 
BRANCH  15  16
ATOM     16  C   UNL     1       9.513  10.776  18.756  0.00  0.00    +0.000 C 
ATOM     17  O   UNL     1       9.947  11.102  17.648  0.00  0.00    +0.000 OA
ATOM     18  N   UNL     1       9.533  11.647  19.838  0.00  0.00    +0.000 N 
ATOM     19  C   UNL     1       9.062  11.339  21.181  0.00  0.00    +0.000 C 
ATOM     20  C   UNL     1      10.095  12.980  19.660  0.00  0.00    +0.000 C 
ENDBRANCH  15  16
ENDBRANCH  14  15
ENDBRANCH   5  14
TORSDOF 5
ENDMDL
