MODEL 1
REMARK VINA RESULT:      -6.4      0.000      0.000
REMARK  Name = 
REMARK  2 active torsions:
REMARK  status: ('A' for Active; 'I' for Inactive)
REMARK    1  A    between atoms: C_1  and  C_2
REMARK    2  A    between atoms: N_5  and  C_6
REMARK                            x       y       z     vdW  Elec       q    Type
REMARK                         _______ _______ _______ _____ _____    ______ ____
ROOT
ATOM      1  C   UNL     1       7.970   7.741  17.476  0.00  0.00    +0.000 C 
ATOM      2  C   UNL     1       7.012   6.681  17.821  0.00  0.00    +0.000 A 
ATOM      3  C   UNL     1       7.093   5.455  18.434  0.00  0.00    +0.000 A 
ATOM      4  C   UNL     1       5.755   4.993  18.480  0.00  0.00    +0.000 A 
ATOM      5  N   UNL     1       5.398   3.824  19.084  0.00  0.00    +0.000 N 
ATOM      6  N   UNL     1       4.938   5.880  17.900  0.00  0.00    +0.000 NA
ATOM      7  O   UNL     1       5.721   6.930  17.491  0.00  0.00    +0.000 OA
ATOM      8  H   UNL     1       6.068   3.387  19.709  0.00  0.00    +0.000 HD
ENDROOT
BRANCH   5   9
ATOM      9  C   UNL     1       4.128   3.251  19.127  0.00  0.00    +0.000 C 
ATOM     10  C   UNL     1       3.266   3.395  20.157  0.00  0.00    +0.000 C 
ATOM     11  C   UNL     1       1.947   2.724  20.197  0.00  0.00    +0.000 C 
ATOM     12  O   UNL     1       1.225   2.866  21.179  0.00  0.00    +0.000 OA
ATOM     13  C   UNL     1       1.567   1.825  19.049  0.00  0.00    +0.000 C 
ATOM     14  C   UNL     1       2.214   2.299  17.758  0.00  0.00    +0.000 C 
ATOM     15  C   UNL     1       3.728   2.430  17.915  0.00  0.00    +0.000 C 
ENDBRANCH   5   9
TORSDOF 1
ENDMDL
MODEL 2
REMARK VINA RESULT:      -6.4      2.431      2.963
REMARK  Name = 
REMARK  2 active torsions:
REMARK  status: ('A' for Active; 'I' for Inactive)
REMARK    1  A    between atoms: C_1  and  C_2
REMARK    2  A    between atoms: N_5  and  C_6
REMARK                            x       y       z     vdW  Elec       q    Type
REMARK                         _______ _______ _______ _____ _____    ______ ____
ROOT
ATOM      1  C   UNL     1       7.215   5.015  14.408  0.00  0.00    +0.000 C 
ATOM      2  C   UNL     1       6.143   4.909  15.408  0.00  0.00    +0.000 A 
ATOM      3  C   UNL     1       5.315   5.797  16.049  0.00  0.00    +0.000 A 
ATOM      4  C   UNL     1       4.477   4.986  16.853  0.00  0.00    +0.000 A 
ATOM      5  N   UNL     1       3.458   5.492  17.603  0.00  0.00    +0.000 N 
ATOM      6  N   UNL     1       4.814   3.697  16.717  0.00  0.00    +0.000 NA
ATOM      7  O   UNL     1       5.849   3.651  15.819  0.00  0.00    +0.000 OA
ATOM      8  H   UNL     1       3.149   6.439  17.408  0.00  0.00    +0.000 HD
ENDROOT
BRANCH   5   9
ATOM      9  C   UNL     1       2.624   4.792  18.473  0.00  0.00    +0.000 C 
ATOM     10  C   UNL     1       1.843   3.753  18.103  0.00  0.00    +0.000 C 
ATOM     11  C   UNL     1       0.924   3.070  19.041  0.00  0.00    +0.000 C 
ATOM     12  O   UNL     1       0.214   2.156  18.634  0.00  0.00    +0.000 OA
ATOM     13  C   UNL     1       0.843   3.574  20.458  0.00  0.00    +0.000 C 
ATOM     14  C   UNL     1       2.170   4.173  20.893  0.00  0.00    +0.000 C 
ATOM     15  C   UNL     1       2.632   5.255  19.918  0.00  0.00    +0.000 C 
ENDBRANCH   5   9
TORSDOF 1
ENDMDL
MODEL 3
REMARK VINA RESULT:      -6.3      2.193      2.383
REMARK  Name = 
REMARK  2 active torsions:
REMARK  status: ('A' for Active; 'I' for Inactive)
REMARK    1  A    between atoms: C_1  and  C_2
REMARK    2  A    between atoms: N_5  and  C_6
REMARK                            x       y       z     vdW  Elec       q    Type
REMARK                         _______ _______ _______ _____ _____    ______ ____
ROOT
ATOM      1  C   UNL     1       7.156   5.157  14.221  0.00  0.00    +0.000 C 
ATOM      2  C   UNL     1       6.209   4.696  15.247  0.00  0.00    +0.000 A 
ATOM      3  C   UNL     1       5.775   3.473  15.695  0.00  0.00    +0.000 A 
ATOM      4  C   UNL     1       4.887   3.777  16.755  0.00  0.00    +0.000 A 
ATOM      5  N   UNL     1       4.290   2.818  17.516  0.00  0.00    +0.000 N 
ATOM      6  N   UNL     1       4.780   5.103  16.902  0.00  0.00    +0.000 NA
ATOM      7  O   UNL     1       5.603   5.673  15.964  0.00  0.00    +0.000 OA
ATOM      8  H   UNL     1       4.661   1.874  17.470  0.00  0.00    +0.000 HD
ENDROOT
BRANCH   5   9
ATOM      9  C   UNL     1       3.355   3.010  18.533  0.00  0.00    +0.000 C 
ATOM     10  C   UNL     1       3.573   2.702  19.830  0.00  0.00    +0.000 C 
ATOM     11  C   UNL     1       2.537   2.863  20.875  0.00  0.00    +0.000 C 
ATOM     12  O   UNL     1       2.785   2.531  22.030  0.00  0.00    +0.000 OA
ATOM     13  C   UNL     1       1.178   3.368  20.465  0.00  0.00    +0.000 C 
ATOM     14  C   UNL     1       1.289   4.291  19.262  0.00  0.00    +0.000 C 
ATOM     15  C   UNL     1       2.027   3.611  18.111  0.00  0.00    +0.000 C 
ENDBRANCH   5   9
TORSDOF 1
ENDMDL
MODEL 4
REMARK VINA RESULT:      -6.3      2.004      5.699
REMARK  Name = 
REMARK  2 active torsions:
REMARK  status: ('A' for Active; 'I' for Inactive)
REMARK    1  A    between atoms: C_1  and  C_2
REMARK    2  A    between atoms: N_5  and  C_6
REMARK                            x       y       z     vdW  Elec       q    Type
REMARK                         _______ _______ _______ _____ _____    ______ ____
ROOT
ATOM      1  C   UNL     1       1.444   2.599  21.740  0.00  0.00    +0.000 C 
ATOM      2  C   UNL     1       2.248   3.132  20.631  0.00  0.00    +0.000 A 
ATOM      3  C   UNL     1       2.048   4.060  19.639  0.00  0.00    +0.000 A 
ATOM      4  C   UNL     1       3.282   4.111  18.946  0.00  0.00    +0.000 A 
ATOM      5  N   UNL     1       3.517   4.975  17.919  0.00  0.00    +0.000 N 
ATOM      6  N   UNL     1       4.149   3.242  19.480  0.00  0.00    +0.000 NA
ATOM      7  O   UNL     1       3.505   2.635  20.528  0.00  0.00    +0.000 OA
ATOM      8  H   UNL     1       2.875   5.752  17.794  0.00  0.00    +0.000 HD
ENDROOT
BRANCH   5   9
ATOM      9  C   UNL     1       4.667   5.060  17.135  0.00  0.00    +0.000 C 
ATOM     10  C   UNL     1       5.678   5.925  17.363  0.00  0.00    +0.000 C 
ATOM     11  C   UNL     1       6.858   6.029  16.475  0.00  0.00    +0.000 C 
ATOM     12  O   UNL     1       7.726   6.862  16.717  0.00  0.00    +0.000 OA
ATOM     13  C   UNL     1       6.915   5.148  15.255  0.00  0.00    +0.000 C 
ATOM     14  C   UNL     1       6.180   3.841  15.500  0.00  0.00    +0.000 C 
ATOM     15  C   UNL     1       4.747   4.094  15.967  0.00  0.00    +0.000 C 
ENDBRANCH   5   9
TORSDOF 1
ENDMDL
MODEL 5
REMARK VINA RESULT:      -6.3      1.757      2.424
REMARK  Name = 
REMARK  2 active torsions:
REMARK  status: ('A' for Active; 'I' for Inactive)
REMARK    1  A    between atoms: C_1  and  C_2
REMARK    2  A    between atoms: N_5  and  C_6
REMARK                            x       y       z     vdW  Elec       q    Type
REMARK                         _______ _______ _______ _____ _____    ______ ____
ROOT
ATOM      1  C   UNL     1       7.753   7.451  17.306  0.00  0.00    +0.000 C 
ATOM      2  C   UNL     1       6.482   6.818  17.687  0.00  0.00    +0.000 A 
ATOM      3  C   UNL     1       5.175   6.934  17.281  0.00  0.00    +0.000 A 
ATOM      4  C   UNL     1       4.477   5.971  18.051  0.00  0.00    +0.000 A 
ATOM      5  N   UNL     1       3.147   5.722  17.893  0.00  0.00    +0.000 N 
ATOM      6  N   UNL     1       5.320   5.346  18.883  0.00  0.00    +0.000 NA
ATOM      7  O   UNL     1       6.565   5.874  18.655  0.00  0.00    +0.000 OA
ATOM      8  H   UNL     1       2.694   6.072  17.055  0.00  0.00    +0.000 HD
ENDROOT
BRANCH   5   9
ATOM      9  C   UNL     1       2.359   4.848  18.640  0.00  0.00    +0.000 C 
ATOM     10  C   UNL     1       1.739   3.762  18.129  0.00  0.00    +0.000 C 
ATOM     11  C   UNL     1       0.860   2.888  18.939  0.00  0.00    +0.000 C 
ATOM     12  O   UNL     1       0.296   1.936  18.407  0.00  0.00    +0.000 OA
ATOM     13  C   UNL     1       0.632   3.244  20.385  0.00  0.00    +0.000 C 
ATOM     14  C   UNL     1       1.845   3.956  20.960  0.00  0.00    +0.000 C 
ATOM     15  C   UNL     1       2.223   5.172  20.117  0.00  0.00    +0.000 C 
ENDBRANCH   5   9
TORSDOF 1
ENDMDL
MODEL 6
REMARK VINA RESULT:      -6.1      1.697      5.746
REMARK  Name = 
REMARK  2 active torsions:
REMARK  status: ('A' for Active; 'I' for Inactive)
REMARK    1  A    between atoms: C_1  and  C_2
REMARK    2  A    between atoms: N_5  and  C_6
REMARK                            x       y       z     vdW  Elec       q    Type
REMARK                         _______ _______ _______ _____ _____    ______ ____
ROOT
ATOM      1  C   UNL     1       1.464   2.464  21.898  0.00  0.00    +0.000 C 
ATOM      2  C   UNL     1       2.499   3.045  21.032  0.00  0.00    +0.000 A 
ATOM      3  C   UNL     1       3.632   2.575  20.415  0.00  0.00    +0.000 A 
ATOM      4  C   UNL     1       4.126   3.684  19.686  0.00  0.00    +0.000 A 
ATOM      5  N   UNL     1       5.216   3.606  18.872  0.00  0.00    +0.000 N 
ATOM      6  N   UNL     1       3.348   4.754  19.887  0.00  0.00    +0.000 NA
ATOM      7  O   UNL     1       2.337   4.355  20.724  0.00  0.00    +0.000 OA
ATOM      8  H   UNL     1       5.547   2.683  18.606  0.00  0.00    +0.000 HD
ENDROOT
BRANCH   5   9
ATOM      9  C   UNL     1       5.818   4.647  18.167  0.00  0.00    +0.000 C 
ATOM     10  C   UNL     1       5.265   5.257  17.096  0.00  0.00    +0.000 C 
ATOM     11  C   UNL     1       5.958   6.320  16.334  0.00  0.00    +0.000 C 
ATOM     12  O   UNL     1       5.416   6.809  15.347  0.00  0.00    +0.000 OA
ATOM     13  C   UNL     1       7.347   6.717  16.760  0.00  0.00    +0.000 C 
ATOM     14  C   UNL     1       7.525   6.524  18.258  0.00  0.00    +0.000 C 
ATOM     15  C   UNL     1       7.176   5.097  18.675  0.00  0.00    +0.000 C 
ENDBRANCH   5   9
TORSDOF 1
ENDMDL
MODEL 7
REMARK VINA RESULT:      -6.1      1.897      5.544
REMARK  Name = 
REMARK  2 active torsions:
REMARK  status: ('A' for Active; 'I' for Inactive)
REMARK    1  A    between atoms: C_1  and  C_2
REMARK    2  A    between atoms: N_5  and  C_6
REMARK                            x       y       z     vdW  Elec       q    Type
REMARK                         _______ _______ _______ _____ _____    ______ ____
ROOT
ATOM      1  C   UNL     1       1.484   2.635  21.878  0.00  0.00    +0.000 C 
ATOM      2  C   UNL     1       2.461   3.039  20.857  0.00  0.00    +0.000 A 
ATOM      3  C   UNL     1       3.723   2.633  20.499  0.00  0.00    +0.000 A 
ATOM      4  C   UNL     1       4.051   3.436  19.379  0.00  0.00    +0.000 A 
ATOM      5  N   UNL     1       5.211   3.289  18.680  0.00  0.00    +0.000 N 
ATOM      6  N   UNL     1       3.052   4.287  19.112  0.00  0.00    +0.000 NA
ATOM      7  O   UNL     1       2.065   4.038  20.031  0.00  0.00    +0.000 OA
ATOM      8  H   UNL     1       5.750   2.441  18.824  0.00  0.00    +0.000 HD
ENDROOT
BRANCH   5   9
ATOM      9  C   UNL     1       5.654   4.067  17.610  0.00  0.00    +0.000 C 
ATOM     10  C   UNL     1       6.542   5.079  17.726  0.00  0.00    +0.000 C 
ATOM     11  C   UNL     1       6.946   5.923  16.580  0.00  0.00    +0.000 C 
ATOM     12  O   UNL     1       7.729   6.851  16.757  0.00  0.00    +0.000 OA
ATOM     13  C   UNL     1       6.320   5.653  15.236  0.00  0.00    +0.000 C 
ATOM     14  C   UNL     1       5.966   4.182  15.094  0.00  0.00    +0.000 C 
ATOM     15  C   UNL     1       5.084   3.713  16.249  0.00  0.00    +0.000 C 
ENDBRANCH   5   9
TORSDOF 1
ENDMDL
MODEL 8
REMARK VINA RESULT:      -6.1      2.159      5.698
REMARK  Name = 
REMARK  2 active torsions:
REMARK  status: ('A' for Active; 'I' for Inactive)
REMARK    1  A    between atoms: C_1  and  C_2
REMARK    2  A    between atoms: N_5  and  C_6
REMARK                            x       y       z     vdW  Elec       q    Type
REMARK                         _______ _______ _______ _____ _____    ______ ____
ROOT
ATOM      1  C   UNL     1       1.107   2.572  21.976  0.00  0.00    +0.000 C 
ATOM      2  C   UNL     1       2.043   3.220  21.047  0.00  0.00    +0.000 A 
ATOM      3  C   UNL     1       2.520   4.496  20.873  0.00  0.00    +0.000 A 
ATOM      4  C   UNL     1       3.445   4.388  19.806  0.00  0.00    +0.000 A 
ATOM      5  N   UNL     1       4.194   5.439  19.369  0.00  0.00    +0.000 N 
ATOM      6  N   UNL     1       3.486   3.128  19.355  0.00  0.00    +0.000 NA
ATOM      7  O   UNL     1       2.615   2.403  20.128  0.00  0.00    +0.000 OA
ATOM      8  H   UNL     1       4.258   6.258  19.965  0.00  0.00    +0.000 HD
ENDROOT
BRANCH   5   9
ATOM      9  C   UNL     1       5.078   5.453  18.291  0.00  0.00    +0.000 C 
ATOM     10  C   UNL     1       6.227   4.744  18.243  0.00  0.00    +0.000 C 
ATOM     11  C   UNL     1       7.172   4.829  17.107  0.00  0.00    +0.000 C 
ATOM     12  O   UNL     1       8.218   4.187  17.140  0.00  0.00    +0.000 OA
ATOM     13  C   UNL     1       6.846   5.764  15.972  0.00  0.00    +0.000 C 
ATOM     14  C   UNL     1       5.341   5.903  15.806  0.00  0.00    +0.000 C 
ATOM     15  C   UNL     1       4.679   6.328  17.116  0.00  0.00    +0.000 C 
ENDBRANCH   5   9
TORSDOF 1
ENDMDL
MODEL 9
REMARK VINA RESULT:      -6.1      2.345      2.729
REMARK  Name = 
REMARK  2 active torsions:
REMARK  status: ('A' for Active; 'I' for Inactive)
REMARK    1  A    between atoms: C_1  and  C_2
REMARK    2  A    between atoms: N_5  and  C_6
REMARK                            x       y       z     vdW  Elec       q    Type
REMARK                         _______ _______ _______ _____ _____    ______ ____
ROOT
ATOM      1  C   UNL     1       7.531   5.286  13.813  0.00  0.00    +0.000 C 
ATOM      2  C   UNL     1       6.543   4.850  14.810  0.00  0.00    +0.000 A 
ATOM      3  C   UNL     1       6.318   3.696  15.521  0.00  0.00    +0.000 A 
ATOM      4  C   UNL     1       5.210   4.000  16.349  0.00  0.00    +0.000 A 
ATOM      5  N   UNL     1       4.714   3.125  17.269  0.00  0.00    +0.000 N 
ATOM      6  N   UNL     1       4.788   5.249  16.118  0.00  0.00    +0.000 NA
ATOM      7  O   UNL     1       5.618   5.776  15.161  0.00  0.00    +0.000 OA
ATOM      8  H   UNL     1       5.287   2.327  17.524  0.00  0.00    +0.000 HD
ENDROOT
BRANCH   5   9
ATOM      9  C   UNL     1       3.595   3.302  18.081  0.00  0.00    +0.000 C 
ATOM     10  C   UNL     1       2.416   2.668  17.895  0.00  0.00    +0.000 C 
ATOM     11  C   UNL     1       1.229   2.923  18.742  0.00  0.00    +0.000 C 
ATOM     12  O   UNL     1       0.176   2.341  18.499  0.00  0.00    +0.000 OA
ATOM     13  C   UNL     1       1.338   3.950  19.838  0.00  0.00    +0.000 C 
ATOM     14  C   UNL     1       2.761   4.021  20.369  0.00  0.00    +0.000 C 
ATOM     15  C   UNL     1       3.759   4.269  19.239  0.00  0.00    +0.000 C 
ENDBRANCH   5   9
TORSDOF 1
ENDMDL
