MODEL 1
REMARK VINA RESULT:      -9.1      0.000      0.000
REMARK  Name = 
REMARK  6 active torsions:
REMARK  status: ('A' for Active; 'I' for Inactive)
REMARK    1  A    between atoms: C_1  and  C_2
REMARK    2  A    between atoms: N_4  and  C_5
REMARK    3  A    between atoms: N_8  and  C_9
REMARK    4  A    between atoms: C_9  and  C_10
REMARK    5  A    between atoms: C_14  and  O_15
REMARK    6  A    between atoms: O_15  and  C_16
REMARK                            x       y       z     vdW  Elec       q    Type
REMARK                         _______ _______ _______ _____ _____    ______ ____
ROOT
ATOM      1  C   UNL     1       0.794  10.224  19.451  0.00  0.00    +0.000 C 
ATOM      2  C   UNL     1       1.533   9.337  18.447  0.00  0.00    +0.000 C 
ATOM      3  C   UNL     1       1.433   7.854  18.763  0.00  0.00    +0.000 C 
ATOM      4  N   UNL     1       1.892   7.582  20.134  0.00  0.00    +0.000 NA
ATOM      5  C   UNL     1       1.035   8.258  21.115  0.00  0.00    +0.000 C 
ATOM      6  C   UNL     1       0.984   9.772  20.904  0.00  0.00    +0.000 C 
ENDROOT
BRANCH   1  10
ATOM      7  C   UNL     1      -2.856   9.901  16.040  0.00  0.00    +0.000 C 
ATOM      8  C   UNL     1      -2.284  10.393  17.331  0.00  0.00    +0.000 A 
ATOM      9  C   UNL     1      -1.142   9.960  17.881  0.00  0.00    +0.000 A 
ATOM     10  N   UNL     1      -0.602  10.513  19.030  0.00  0.00    +0.000 N 
ATOM     11  C   UNL     1      -1.288  11.512  19.728  0.00  0.00    +0.000 A 
ATOM     12  O   UNL     1      -0.875  12.073  20.741  0.00  0.00    +0.000 OA
ATOM     13  N   UNL     1      -2.491  11.890  19.199  0.00  0.00    +0.000 N 
ATOM     14  C   UNL     1      -3.019  11.480  18.012  0.00  0.00    +0.000 A 
ATOM     15  O   UNL     1      -4.030  11.985  17.536  0.00  0.00    +0.000 OA
ATOM     16  H   UNL     1      -2.958  12.653  19.666  0.00  0.00    +0.000 HD
ENDBRANCH   1  10
BRANCH   4  17
ATOM     17  C   UNL     1       1.943   6.125  20.407  0.00  0.00    +0.000 C 
BRANCH  17  18
ATOM     18  C   UNL     1       2.322   5.302  19.188  0.00  0.00    +0.000 A 
ATOM     19  C   UNL     1       1.550   4.201  18.780  0.00  0.00    +0.000 A 
ATOM     20  C   UNL     1       2.042   3.305  17.833  0.00  0.00    +0.000 A 
ATOM     21  C   UNL     1       3.268   3.549  17.219  0.00  0.00    +0.000 A 
ATOM     22  C   UNL     1       3.981   4.710  17.517  0.00  0.00    +0.000 A 
ATOM     23  C   UNL     1       3.520   5.575  18.513  0.00  0.00    +0.000 A 
BRANCH  22  24
ATOM     24  O   UNL     1       5.181   4.873  16.863  0.00  0.00    +0.000 OA
BRANCH  24  25
ATOM     25  C   UNL     1       6.116   5.748  17.367  0.00  0.00    +0.000 A 
ATOM     26  C   UNL     1       6.347   7.034  16.861  0.00  0.00    +0.000 A 
ATOM     27  C   UNL     1       7.331   7.845  17.431  0.00  0.00    +0.000 A 
ATOM     28  C   UNL     1       8.106   7.351  18.474  0.00  0.00    +0.000 A 
ATOM     29  F   UNL     1       9.062   8.127  19.005  0.00  0.00    +0.000 F 
ATOM     30  C   UNL     1       7.895   6.061  18.957  0.00  0.00    +0.000 A 
ATOM     31  F   UNL     1       8.658   5.589  19.951  0.00  0.00    +0.000 F 
ATOM     32  C   UNL     1       6.909   5.260  18.407  0.00  0.00    +0.000 A 
ENDBRANCH  24  25
ENDBRANCH  22  24
ENDBRANCH  17  18
ENDBRANCH   4  17
TORSDOF 5
ENDMDL
MODEL 2
REMARK VINA RESULT:      -8.8      4.685     10.054
REMARK  Name = 
REMARK  6 active torsions:
REMARK  status: ('A' for Active; 'I' for Inactive)
REMARK    1  A    between atoms: C_1  and  C_2
REMARK    2  A    between atoms: N_4  and  C_5
REMARK    3  A    between atoms: N_8  and  C_9
REMARK    4  A    between atoms: C_9  and  C_10
REMARK    5  A    between atoms: C_14  and  O_15
REMARK    6  A    between atoms: O_15  and  C_16
REMARK                            x       y       z     vdW  Elec       q    Type
REMARK                         _______ _______ _______ _____ _____    ______ ____
ROOT
ATOM      1  C   UNL     1       2.682   5.765  18.713  0.00  0.00    +0.000 C 
ATOM      2  C   UNL     1       2.317   6.971  17.844  0.00  0.00    +0.000 C 
ATOM      3  C   UNL     1       2.259   8.278  18.617  0.00  0.00    +0.000 C 
ATOM      4  N   UNL     1       1.342   8.165  19.762  0.00  0.00    +0.000 NA
ATOM      5  C   UNL     1       1.821   7.157  20.717  0.00  0.00    +0.000 C 
ATOM      6  C   UNL     1       1.984   5.776  20.078  0.00  0.00    +0.000 C 
ENDROOT
BRANCH   1  10
ATOM      7  C   UNL     1       7.329   7.054  17.371  0.00  0.00    +0.000 C 
ATOM      8  C   UNL     1       6.335   6.125  17.990  0.00  0.00    +0.000 A 
ATOM      9  C   UNL     1       5.053   6.424  18.239  0.00  0.00    +0.000 A 
ATOM     10  N   UNL     1       4.145   5.500  18.725  0.00  0.00    +0.000 N 
ATOM     11  C   UNL     1       4.558   4.208  19.066  0.00  0.00    +0.000 A 
ATOM     12  O   UNL     1       3.818   3.319  19.483  0.00  0.00    +0.000 OA
ATOM     13  N   UNL     1       5.886   3.939  18.882  0.00  0.00    +0.000 N 
ATOM     14  C   UNL     1       6.804   4.756  18.294  0.00  0.00    +0.000 A 
ATOM     15  O   UNL     1       7.939   4.378  18.026  0.00  0.00    +0.000 OA
ATOM     16  H   UNL     1       6.174   2.991  19.069  0.00  0.00    +0.000 HD
ENDBRANCH   1  10
BRANCH   4  17
ATOM     17  C   UNL     1       1.159   9.473  20.438  0.00  0.00    +0.000 C 
BRANCH  17  18
ATOM     18  C   UNL     1       0.592  10.543  19.523  0.00  0.00    +0.000 A 
ATOM     19  C   UNL     1       1.226  11.788  19.372  0.00  0.00    +0.000 A 
ATOM     20  C   UNL     1       0.568  12.845  18.745  0.00  0.00    +0.000 A 
ATOM     21  C   UNL     1      -0.692  12.644  18.185  0.00  0.00    +0.000 A 
ATOM     22  C   UNL     1      -1.273  11.377  18.210  0.00  0.00    +0.000 A 
ATOM     23  C   UNL     1      -0.643  10.333  18.894  0.00  0.00    +0.000 A 
BRANCH  22  24
ATOM     24  O   UNL     1      -2.517  11.266  17.632  0.00  0.00    +0.000 OA
BRANCH  24  25
ATOM     25  C   UNL     1      -3.642  11.521  18.384  0.00  0.00    +0.000 A 
ATOM     26  C   UNL     1      -3.657  12.321  19.534  0.00  0.00    +0.000 A 
ATOM     27  C   UNL     1      -4.847  12.508  20.241  0.00  0.00    +0.000 A 
ATOM     28  C   UNL     1      -6.003  11.861  19.820  0.00  0.00    +0.000 A 
ATOM     29  F   UNL     1      -7.139  12.029  20.512  0.00  0.00    +0.000 F 
ATOM     30  C   UNL     1      -5.979  11.041  18.693  0.00  0.00    +0.000 A 
ATOM     31  F   UNL     1      -7.094  10.409  18.305  0.00  0.00    +0.000 F 
ATOM     32  C   UNL     1      -4.806  10.867  17.979  0.00  0.00    +0.000 A 
ENDBRANCH  24  25
ENDBRANCH  22  24
ENDBRANCH  17  18
ENDBRANCH   4  17
TORSDOF 5
ENDMDL
MODEL 3
REMARK VINA RESULT:      -8.8      4.678     10.174
REMARK  Name = 
REMARK  6 active torsions:
REMARK  status: ('A' for Active; 'I' for Inactive)
REMARK    1  A    between atoms: C_1  and  C_2
REMARK    2  A    between atoms: N_4  and  C_5
REMARK    3  A    between atoms: N_8  and  C_9
REMARK    4  A    between atoms: C_9  and  C_10
REMARK    5  A    between atoms: C_14  and  O_15
REMARK    6  A    between atoms: O_15  and  C_16
REMARK                            x       y       z     vdW  Elec       q    Type
REMARK                         _______ _______ _______ _____ _____    ______ ____
ROOT
ATOM      1  C   UNL     1       2.814   5.771  18.595  0.00  0.00    +0.000 C 
ATOM      2  C   UNL     1       2.417   6.770  17.505  0.00  0.00    +0.000 C 
ATOM      3  C   UNL     1       2.395   8.212  17.987  0.00  0.00    +0.000 C 
ATOM      4  N   UNL     1       1.526   8.353  19.165  0.00  0.00    +0.000 NA
ATOM      5  C   UNL     1       2.040   7.565  20.291  0.00  0.00    +0.000 C 
ATOM      6  C   UNL     1       2.173   6.078  19.953  0.00  0.00    +0.000 C 
ENDROOT
BRANCH   1  10
ATOM      7  C   UNL     1       7.480   7.114  17.377  0.00  0.00    +0.000 C 
ATOM      8  C   UNL     1       6.476   6.155  17.929  0.00  0.00    +0.000 A 
ATOM      9  C   UNL     1       5.193   6.445  18.183  0.00  0.00    +0.000 A 
ATOM     10  N   UNL     1       4.275   5.497  18.604  0.00  0.00    +0.000 N 
ATOM     11  C   UNL     1       4.679   4.186  18.870  0.00  0.00    +0.000 A 
ATOM     12  O   UNL     1       3.931   3.277  19.225  0.00  0.00    +0.000 OA
ATOM     13  N   UNL     1       6.008   3.921  18.683  0.00  0.00    +0.000 N 
ATOM     14  C   UNL     1       6.936   4.767  18.154  0.00  0.00    +0.000 A 
ATOM     15  O   UNL     1       8.071   4.400  17.874  0.00  0.00    +0.000 OA
ATOM     16  H   UNL     1       6.289   2.961  18.814  0.00  0.00    +0.000 HD
ENDBRANCH   1  10
BRANCH   4  17
ATOM     17  C   UNL     1       1.374   9.776  19.556  0.00  0.00    +0.000 C 
BRANCH  17  18
ATOM     18  C   UNL     1       0.010  10.348  19.211  0.00  0.00    +0.000 A 
ATOM     19  C   UNL     1      -0.722   9.878  18.108  0.00  0.00    +0.000 A 
ATOM     20  C   UNL     1      -1.837  10.578  17.650  0.00  0.00    +0.000 A 
ATOM     21  C   UNL     1      -2.283  11.702  18.342  0.00  0.00    +0.000 A 
ATOM     22  C   UNL     1      -1.644  12.099  19.516  0.00  0.00    +0.000 A 
ATOM     23  C   UNL     1      -0.489  11.436  19.940  0.00  0.00    +0.000 A 
BRANCH  22  24
ATOM     24  O   UNL     1      -2.151  13.218  20.137  0.00  0.00    +0.000 OA
BRANCH  24  25
ATOM     25  C   UNL     1      -3.232  13.096  20.980  0.00  0.00    +0.000 A 
ATOM     26  C   UNL     1      -4.560  13.328  20.598  0.00  0.00    +0.000 A 
ATOM     27  C   UNL     1      -5.591  13.194  21.531  0.00  0.00    +0.000 A 
ATOM     28  C   UNL     1      -5.285  12.871  22.848  0.00  0.00    +0.000 A 
ATOM     29  F   UNL     1      -6.276  12.762  23.744  0.00  0.00    +0.000 F 
ATOM     30  C   UNL     1      -3.960  12.671  23.233  0.00  0.00    +0.000 A 
ATOM     31  F   UNL     1      -3.674  12.377  24.508  0.00  0.00    +0.000 F 
ATOM     32  C   UNL     1      -2.937  12.785  22.308  0.00  0.00    +0.000 A 
ENDBRANCH  24  25
ENDBRANCH  22  24
ENDBRANCH  17  18
ENDBRANCH   4  17
TORSDOF 5
ENDMDL
MODEL 4
REMARK VINA RESULT:      -8.8      1.055      1.262
REMARK  Name = 
REMARK  6 active torsions:
REMARK  status: ('A' for Active; 'I' for Inactive)
REMARK    1  A    between atoms: C_1  and  C_2
REMARK    2  A    between atoms: N_4  and  C_5
REMARK    3  A    between atoms: N_8  and  C_9
REMARK    4  A    between atoms: C_9  and  C_10
REMARK    5  A    between atoms: C_14  and  O_15
REMARK    6  A    between atoms: O_15  and  C_16
REMARK                            x       y       z     vdW  Elec       q    Type
REMARK                         _______ _______ _______ _____ _____    ______ ____
ROOT
ATOM      1  C   UNL     1       0.595  10.557  18.780  0.00  0.00    +0.000 C 
ATOM      2  C   UNL     1       1.266   9.325  18.168  0.00  0.00    +0.000 C 
ATOM      3  C   UNL     1       1.142   8.079  19.030  0.00  0.00    +0.000 C 
ATOM      4  N   UNL     1       1.656   8.332  20.385  0.00  0.00    +0.000 NA
ATOM      5  C   UNL     1       0.860   9.365  21.061  0.00  0.00    +0.000 C 
ATOM      6  C   UNL     1       0.839  10.685  20.289  0.00  0.00    +0.000 C 
ENDROOT
BRANCH   1  10
ATOM      7  C   UNL     1      -3.027   9.570  15.468  0.00  0.00    +0.000 C 
ATOM      8  C   UNL     1      -2.480  10.275  16.669  0.00  0.00    +0.000 A 
ATOM      9  C   UNL     1      -1.323   9.978  17.273  0.00  0.00    +0.000 A 
ATOM     10  N   UNL     1      -0.810  10.720  18.324  0.00  0.00    +0.000 N 
ATOM     11  C   UNL     1      -1.539  11.783  18.866  0.00  0.00    +0.000 A 
ATOM     12  O   UNL     1      -1.154  12.507  19.782  0.00  0.00    +0.000 OA
ATOM     13  N   UNL     1      -2.756  12.026  18.291  0.00  0.00    +0.000 N 
ATOM     14  C   UNL     1      -3.263  11.420  17.181  0.00  0.00    +0.000 A 
ATOM     15  O   UNL     1      -4.292  11.805  16.638  0.00  0.00    +0.000 OA
ATOM     16  H   UNL     1      -3.256  12.830  18.639  0.00  0.00    +0.000 HD
ENDBRANCH   1  10
BRANCH   4  17
ATOM     17  C   UNL     1       1.682   7.088  21.193  0.00  0.00    +0.000 C 
BRANCH  17  18
ATOM     18  C   UNL     1       1.874   5.836  20.355  0.00  0.00    +0.000 A 
ATOM     19  C   UNL     1       0.895   4.829  20.310  0.00  0.00    +0.000 A 
ATOM     20  C   UNL     1       1.187   3.583  19.757  0.00  0.00    +0.000 A 
ATOM     21  C   UNL     1       2.429   3.361  19.165  0.00  0.00    +0.000 A 
ATOM     22  C   UNL     1       3.359   4.396  19.084  0.00  0.00    +0.000 A 
ATOM     23  C   UNL     1       3.091   5.625  19.694  0.00  0.00    +0.000 A 
BRANCH  22  24
ATOM     24  O   UNL     1       4.558   4.092  18.481  0.00  0.00    +0.000 OA
BRANCH  24  25
ATOM     25  C   UNL     1       5.405   5.108  18.099  0.00  0.00    +0.000 A 
ATOM     26  C   UNL     1       5.210   5.915  16.971  0.00  0.00    +0.000 A 
ATOM     27  C   UNL     1       6.136   6.914  16.656  0.00  0.00    +0.000 A 
ATOM     28  C   UNL     1       7.269   7.070  17.446  0.00  0.00    +0.000 A 
ATOM     29  F   UNL     1       8.163   8.018  17.129  0.00  0.00    +0.000 F 
ATOM     30  C   UNL     1       7.476   6.246  18.551  0.00  0.00    +0.000 A 
ATOM     31  F   UNL     1       8.580   6.394  19.295  0.00  0.00    +0.000 F 
ATOM     32  C   UNL     1       6.553   5.267  18.877  0.00  0.00    +0.000 A 
ENDBRANCH  24  25
ENDBRANCH  22  24
ENDBRANCH  17  18
ENDBRANCH   4  17
TORSDOF 5
ENDMDL
MODEL 5
REMARK VINA RESULT:      -8.7      4.895     10.215
REMARK  Name = 
REMARK  6 active torsions:
REMARK  status: ('A' for Active; 'I' for Inactive)
REMARK    1  A    between atoms: C_1  and  C_2
REMARK    2  A    between atoms: N_4  and  C_5
REMARK    3  A    between atoms: N_8  and  C_9
REMARK    4  A    between atoms: C_9  and  C_10
REMARK    5  A    between atoms: C_14  and  O_15
REMARK    6  A    between atoms: O_15  and  C_16
REMARK                            x       y       z     vdW  Elec       q    Type
REMARK                         _______ _______ _______ _____ _____    ______ ____
ROOT
ATOM      1  C   UNL     1       2.690   5.497  18.112  0.00  0.00    +0.000 C 
ATOM      2  C   UNL     1       2.401   6.983  17.886  0.00  0.00    +0.000 C 
ATOM      3  C   UNL     1       2.441   7.807  19.162  0.00  0.00    +0.000 C 
ATOM      4  N   UNL     1       1.530   7.247  20.172  0.00  0.00    +0.000 NA
ATOM      5  C   UNL     1       1.946   5.894  20.558  0.00  0.00    +0.000 C 
ATOM      6  C   UNL     1       2.007   4.937  19.366  0.00  0.00    +0.000 C 
ENDROOT
BRANCH   1  10
ATOM      7  C   UNL     1       7.450   6.991  17.693  0.00  0.00    +0.000 C 
ATOM      8  C   UNL     1       6.378   5.948  17.676  0.00  0.00    +0.000 A 
ATOM      9  C   UNL     1       5.113   6.139  18.071  0.00  0.00    +0.000 A 
ATOM     10  N   UNL     1       4.131   5.170  17.947  0.00  0.00    +0.000 N 
ATOM     11  C   UNL     1       4.447   3.894  17.473  0.00  0.00    +0.000 A 
ATOM     12  O   UNL     1       3.639   2.982  17.310  0.00  0.00    +0.000 OA
ATOM     13  N   UNL     1       5.760   3.687  17.147  0.00  0.00    +0.000 N 
ATOM     14  C   UNL     1       6.747   4.626  17.126  0.00  0.00    +0.000 A 
ATOM     15  O   UNL     1       7.861   4.393  16.672  0.00  0.00    +0.000 OA
ATOM     16  H   UNL     1       5.978   2.787  16.747  0.00  0.00    +0.000 HD
ENDBRANCH   1  10
BRANCH   4  17
ATOM     17  C   UNL     1       1.444   8.124  21.366  0.00  0.00    +0.000 C 
BRANCH  17  18
ATOM     18  C   UNL     1       0.494   9.293  21.181  0.00  0.00    +0.000 A 
ATOM     19  C   UNL     1      -0.095   9.568  19.935  0.00  0.00    +0.000 A 
ATOM     20  C   UNL     1      -0.749  10.779  19.714  0.00  0.00    +0.000 A 
ATOM     21  C   UNL     1      -0.898  11.688  20.759  0.00  0.00    +0.000 A 
ATOM     22  C   UNL     1      -0.436  11.368  22.035  0.00  0.00    +0.000 A 
ATOM     23  C   UNL     1       0.275  10.183  22.242  0.00  0.00    +0.000 A 
BRANCH  22  24
ATOM     24  O   UNL     1      -0.626  12.321  23.009  0.00  0.00    +0.000 OA
BRANCH  24  25
ATOM     25  C   UNL     1      -1.884  12.842  23.214  0.00  0.00    +0.000 A 
ATOM     26  C   UNL     1      -3.008  12.077  23.554  0.00  0.00    +0.000 A 
ATOM     27  C   UNL     1      -4.249  12.695  23.726  0.00  0.00    +0.000 A 
ATOM     28  C   UNL     1      -4.367  14.065  23.517  0.00  0.00    +0.000 A 
ATOM     29  F   UNL     1      -5.564  14.650  23.666  0.00  0.00    +0.000 F 
ATOM     30  C   UNL     1      -3.254  14.819  23.150  0.00  0.00    +0.000 A 
ATOM     31  F   UNL     1      -3.382  16.134  22.934  0.00  0.00    +0.000 F 
ATOM     32  C   UNL     1      -2.018  14.213  22.995  0.00  0.00    +0.000 A 
ENDBRANCH  24  25
ENDBRANCH  22  24
ENDBRANCH  17  18
ENDBRANCH   4  17
TORSDOF 5
ENDMDL
MODEL 6
REMARK VINA RESULT:      -8.5      4.208      9.527
REMARK  Name = 
REMARK  6 active torsions:
REMARK  status: ('A' for Active; 'I' for Inactive)
REMARK    1  A    between atoms: C_1  and  C_2
REMARK    2  A    between atoms: N_4  and  C_5
REMARK    3  A    between atoms: N_8  and  C_9
REMARK    4  A    between atoms: C_9  and  C_10
REMARK    5  A    between atoms: C_14  and  O_15
REMARK    6  A    between atoms: O_15  and  C_16
REMARK                            x       y       z     vdW  Elec       q    Type
REMARK                         _______ _______ _______ _____ _____    ______ ____
ROOT
ATOM      1  C   UNL     1       2.730   5.460  18.079  0.00  0.00    +0.000 C 
ATOM      2  C   UNL     1       2.439   6.953  17.910  0.00  0.00    +0.000 C 
ATOM      3  C   UNL     1       2.428   7.719  19.222  0.00  0.00    +0.000 C 
ATOM      4  N   UNL     1       1.485   7.110  20.172  0.00  0.00    +0.000 NA
ATOM      5  C   UNL     1       1.896   5.742  20.512  0.00  0.00    +0.000 C 
ATOM      6  C   UNL     1       2.006   4.841  19.281  0.00  0.00    +0.000 C 
ENDROOT
BRANCH   1  10
ATOM      7  C   UNL     1       7.484   7.003  17.803  0.00  0.00    +0.000 C 
ATOM      8  C   UNL     1       6.424   5.950  17.749  0.00  0.00    +0.000 A 
ATOM      9  C   UNL     1       5.146   6.126  18.109  0.00  0.00    +0.000 A 
ATOM     10  N   UNL     1       4.177   5.149  17.951  0.00  0.00    +0.000 N 
ATOM     11  C   UNL     1       4.519   3.879  17.476  0.00  0.00    +0.000 A 
ATOM     12  O   UNL     1       3.724   2.961  17.284  0.00  0.00    +0.000 OA
ATOM     13  N   UNL     1       5.842   3.687  17.186  0.00  0.00    +0.000 N 
ATOM     14  C   UNL     1       6.820   4.636  17.199  0.00  0.00    +0.000 A 
ATOM     15  O   UNL     1       7.949   4.417  16.774  0.00  0.00    +0.000 OA
ATOM     16  H   UNL     1       6.080   2.793  16.785  0.00  0.00    +0.000 HD
ENDBRANCH   1  10
BRANCH   4  17
ATOM     17  C   UNL     1       1.350   7.930  21.401  0.00  0.00    +0.000 C 
BRANCH  17  18
ATOM     18  C   UNL     1       0.730   9.292  21.145  0.00  0.00    +0.000 A 
ATOM     19  C   UNL     1       0.366  10.141  22.204  0.00  0.00    +0.000 A 
ATOM     20  C   UNL     1      -0.432  11.260  21.970  0.00  0.00    +0.000 A 
ATOM     21  C   UNL     1      -0.799  11.591  20.668  0.00  0.00    +0.000 A 
ATOM     22  C   UNL     1      -0.331  10.832  19.595  0.00  0.00    +0.000 A 
ATOM     23  C   UNL     1       0.416   9.675  19.833  0.00  0.00    +0.000 A 
BRANCH  22  24
ATOM     24  O   UNL     1      -0.739  11.230  18.343  0.00  0.00    +0.000 OA
BRANCH  24  25
ATOM     25  C   UNL     1      -2.084  11.350  18.072  0.00  0.00    +0.000 A 
ATOM     26  C   UNL     1      -3.029  11.851  18.977  0.00  0.00    +0.000 A 
ATOM     27  C   UNL     1      -4.377  11.920  18.615  0.00  0.00    +0.000 A 
ATOM     28  C   UNL     1      -4.776  11.448  17.370  0.00  0.00    +0.000 A 
ATOM     29  F   UNL     1      -6.074  11.499  17.035  0.00  0.00    +0.000 F 
ATOM     30  C   UNL     1      -3.839  10.922  16.483  0.00  0.00    +0.000 A 
ATOM     31  F   UNL     1      -4.237  10.454  15.293  0.00  0.00    +0.000 F 
ATOM     32  C   UNL     1      -2.500  10.869  16.830  0.00  0.00    +0.000 A 
ENDBRANCH  24  25
ENDBRANCH  22  24
ENDBRANCH  17  18
ENDBRANCH   4  17
TORSDOF 5
ENDMDL
MODEL 7
REMARK VINA RESULT:      -8.5      1.404      1.747
REMARK  Name = 
REMARK  6 active torsions:
REMARK  status: ('A' for Active; 'I' for Inactive)
REMARK    1  A    between atoms: C_1  and  C_2
REMARK    2  A    between atoms: N_4  and  C_5
REMARK    3  A    between atoms: N_8  and  C_9
REMARK    4  A    between atoms: C_9  and  C_10
REMARK    5  A    between atoms: C_14  and  O_15
REMARK    6  A    between atoms: O_15  and  C_16
REMARK                            x       y       z     vdW  Elec       q    Type
REMARK                         _______ _______ _______ _____ _____    ______ ____
ROOT
ATOM      1  C   UNL     1       0.946  10.277  18.990  0.00  0.00    +0.000 C 
ATOM      2  C   UNL     1       1.589   9.058  18.325  0.00  0.00    +0.000 C 
ATOM      3  C   UNL     1       1.289   7.751  19.040  0.00  0.00    +0.000 C 
ATOM      4  N   UNL     1       1.672   7.833  20.457  0.00  0.00    +0.000 NA
ATOM      5  C   UNL     1       0.884   8.858  21.153  0.00  0.00    +0.000 C 
ATOM      6  C   UNL     1       1.037  10.243  20.521  0.00  0.00    +0.000 C 
ENDROOT
BRANCH   1  10
ATOM      7  C   UNL     1      -2.832   9.126  15.914  0.00  0.00    +0.000 C 
ATOM      8  C   UNL     1      -2.130  10.032  16.874  0.00  0.00    +0.000 A 
ATOM      9  C   UNL     1      -1.065   9.692  17.613  0.00  0.00    +0.000 A 
ATOM     10  N   UNL     1      -0.389  10.594  18.418  0.00  0.00    +0.000 N 
ATOM     11  C   UNL     1      -0.852  11.905  18.561  0.00  0.00    +0.000 A 
ATOM     12  O   UNL     1      -0.304  12.776  19.234  0.00  0.00    +0.000 OA
ATOM     13  N   UNL     1      -1.986  12.217  17.862  0.00  0.00    +0.000 N 
ATOM     14  C   UNL     1      -2.626  11.422  16.960  0.00  0.00    +0.000 A 
ATOM     15  O   UNL     1      -3.544  11.834  16.261  0.00  0.00    +0.000 OA
ATOM     16  H   UNL     1      -2.285  13.179  17.915  0.00  0.00    +0.000 HD
ENDBRANCH   1  10
BRANCH   4  17
ATOM     17  C   UNL     1       1.526   6.521  21.133  0.00  0.00    +0.000 C 
BRANCH  17  18
ATOM     18  C   UNL     1       2.031   5.359  20.296  0.00  0.00    +0.000 A 
ATOM     19  C   UNL     1       1.171   4.326  19.884  0.00  0.00    +0.000 A 
ATOM     20  C   UNL     1       1.688   3.148  19.349  0.00  0.00    +0.000 A 
ATOM     21  C   UNL     1       3.060   3.025  19.137  0.00  0.00    +0.000 A 
ATOM     22  C   UNL     1       3.908   4.095  19.417  0.00  0.00    +0.000 A 
ATOM     23  C   UNL     1       3.399   5.252  20.012  0.00  0.00    +0.000 A 
BRANCH  22  24
ATOM     24  O   UNL     1       5.248   3.889  19.176  0.00  0.00    +0.000 OA
BRANCH  24  25
ATOM     25  C   UNL     1       6.018   4.922  18.690  0.00  0.00    +0.000 A 
ATOM     26  C   UNL     1       7.159   5.423  19.329  0.00  0.00    +0.000 A 
ATOM     27  C   UNL     1       7.868   6.486  18.764  0.00  0.00    +0.000 A 
ATOM     28  C   UNL     1       7.407   7.069  17.588  0.00  0.00    +0.000 A 
ATOM     29  F   UNL     1       8.080   8.101  17.060  0.00  0.00    +0.000 F 
ATOM     30  C   UNL     1       6.254   6.588  16.970  0.00  0.00    +0.000 A 
ATOM     31  F   UNL     1       5.809   7.166  15.848  0.00  0.00    +0.000 F 
ATOM     32  C   UNL     1       5.559   5.523  17.517  0.00  0.00    +0.000 A 
ENDBRANCH  24  25
ENDBRANCH  22  24
ENDBRANCH  17  18
ENDBRANCH   4  17
TORSDOF 5
ENDMDL
MODEL 8
REMARK VINA RESULT:      -8.5      2.628      3.594
REMARK  Name = 
REMARK  6 active torsions:
REMARK  status: ('A' for Active; 'I' for Inactive)
REMARK    1  A    between atoms: C_1  and  C_2
REMARK    2  A    between atoms: N_4  and  C_5
REMARK    3  A    between atoms: N_8  and  C_9
REMARK    4  A    between atoms: C_9  and  C_10
REMARK    5  A    between atoms: C_14  and  O_15
REMARK    6  A    between atoms: O_15  and  C_16
REMARK                            x       y       z     vdW  Elec       q    Type
REMARK                         _______ _______ _______ _____ _____    ______ ____
ROOT
ATOM      1  C   UNL     1      -0.693  10.735  19.002  0.00  0.00    +0.000 C 
ATOM      2  C   UNL     1      -0.488  10.172  20.410  0.00  0.00    +0.000 C 
ATOM      3  C   UNL     1       0.901   9.599  20.636  0.00  0.00    +0.000 C 
ATOM      4  N   UNL     1       1.216   8.584  19.619  0.00  0.00    +0.000 NA
ATOM      5  C   UNL     1       1.243   9.180  18.277  0.00  0.00    +0.000 C 
ATOM      6  C   UNL     1      -0.081   9.852  17.908  0.00  0.00    +0.000 C 
ENDROOT
BRANCH   1  10
ATOM      7  C   UNL     1       2.648  14.436  18.556  0.00  0.00    +0.000 C 
ATOM      8  C   UNL     1       1.265  13.915  18.783  0.00  0.00    +0.000 A 
ATOM      9  C   UNL     1       0.884  12.643  18.609  0.00  0.00    +0.000 A 
ATOM     10  N   UNL     1      -0.385  12.187  18.924  0.00  0.00    +0.000 N 
ATOM     11  C   UNL     1      -1.371  13.075  19.366  0.00  0.00    +0.000 A 
ATOM     12  O   UNL     1      -2.513  12.756  19.688  0.00  0.00    +0.000 OA
ATOM     13  N   UNL     1      -0.991  14.386  19.465  0.00  0.00    +0.000 N 
ATOM     14  C   UNL     1       0.267  14.880  19.293  0.00  0.00    +0.000 A 
ATOM     15  O   UNL     1       0.553  16.043  19.553  0.00  0.00    +0.000 OA
ATOM     16  H   UNL     1      -1.681  15.017  19.843  0.00  0.00    +0.000 HD
ENDBRANCH   1  10
BRANCH   4  17
ATOM     17  C   UNL     1       2.504   7.909  19.911  0.00  0.00    +0.000 C 
BRANCH  17  18
ATOM     18  C   UNL     1       2.415   6.395  19.837  0.00  0.00    +0.000 A 
ATOM     19  C   UNL     1       1.331   5.697  20.397  0.00  0.00    +0.000 A 
ATOM     20  C   UNL     1       1.386   4.314  20.554  0.00  0.00    +0.000 A 
ATOM     21  C   UNL     1       2.484   3.604  20.073  0.00  0.00    +0.000 A 
ATOM     22  C   UNL     1       3.504   4.270  19.394  0.00  0.00    +0.000 A 
ATOM     23  C   UNL     1       3.480   5.663  19.293  0.00  0.00    +0.000 A 
BRANCH  22  24
ATOM     24  O   UNL     1       4.549   3.492  18.950  0.00  0.00    +0.000 OA
BRANCH  24  25
ATOM     25  C   UNL     1       5.343   3.944  17.920  0.00  0.00    +0.000 A 
ATOM     26  C   UNL     1       6.575   4.586  18.097  0.00  0.00    +0.000 A 
ATOM     27  C   UNL     1       7.303   5.024  16.987  0.00  0.00    +0.000 A 
ATOM     28  C   UNL     1       6.774   4.855  15.713  0.00  0.00    +0.000 A 
ATOM     29  F   UNL     1       7.468   5.293  14.652  0.00  0.00    +0.000 F 
ATOM     30  C   UNL     1       5.534   4.243  15.541  0.00  0.00    +0.000 A 
ATOM     31  F   UNL     1       5.026   4.101  14.310  0.00  0.00    +0.000 F 
ATOM     32  C   UNL     1       4.818   3.792  16.636  0.00  0.00    +0.000 A 
ENDBRANCH  24  25
ENDBRANCH  22  24
ENDBRANCH  17  18
ENDBRANCH   4  17
TORSDOF 5
ENDMDL
MODEL 9
REMARK VINA RESULT:      -8.5      2.791      3.993
REMARK  Name = 
REMARK  6 active torsions:
REMARK  status: ('A' for Active; 'I' for Inactive)
REMARK    1  A    between atoms: C_1  and  C_2
REMARK    2  A    between atoms: N_4  and  C_5
REMARK    3  A    between atoms: N_8  and  C_9
REMARK    4  A    between atoms: C_9  and  C_10
REMARK    5  A    between atoms: C_14  and  O_15
REMARK    6  A    between atoms: O_15  and  C_16
REMARK                            x       y       z     vdW  Elec       q    Type
REMARK                         _______ _______ _______ _____ _____    ______ ____
ROOT
ATOM      1  C   UNL     1      -0.809  10.631  20.870  0.00  0.00    +0.000 C 
ATOM      2  C   UNL     1      -0.139   9.625  21.809  0.00  0.00    +0.000 C 
ATOM      3  C   UNL     1       1.213   9.142  21.312  0.00  0.00    +0.000 C 
ATOM      4  N   UNL     1       1.101   8.590  19.953  0.00  0.00    +0.000 NA
ATOM      5  C   UNL     1       0.673   9.625  19.003  0.00  0.00    +0.000 C 
ATOM      6  C   UNL     1      -0.665  10.258  19.390  0.00  0.00    +0.000 C 
ENDROOT
BRANCH   1  10
ATOM      7  C   UNL     1       2.347  14.516  20.754  0.00  0.00    +0.000 C 
ATOM      8  C   UNL     1       1.094  13.835  21.204  0.00  0.00    +0.000 A 
ATOM      9  C   UNL     1       0.628  12.680  20.713  0.00  0.00    +0.000 A 
ATOM     10  N   UNL     1      -0.487  12.038  21.227  0.00  0.00    +0.000 N 
ATOM     11  C   UNL     1      -1.239  12.627  22.248  0.00  0.00    +0.000 A 
ATOM     12  O   UNL     1      -2.226  12.121  22.777  0.00  0.00    +0.000 OA
ATOM     13  N   UNL     1      -0.798  13.846  22.686  0.00  0.00    +0.000 N 
ATOM     14  C   UNL     1       0.354  14.472  22.315  0.00  0.00    +0.000 A 
ATOM     15  O   UNL     1       0.755  15.488  22.872  0.00  0.00    +0.000 OA
ATOM     16  H   UNL     1      -1.302  14.243  23.464  0.00  0.00    +0.000 HD
ENDBRANCH   1  10
BRANCH   4  17
ATOM     17  C   UNL     1       2.378   7.979  19.511  0.00  0.00    +0.000 C 
BRANCH  17  18
ATOM     18  C   UNL     1       2.410   6.471  19.686  0.00  0.00    +0.000 A 
ATOM     19  C   UNL     1       1.451   5.805  20.469  0.00  0.00    +0.000 A 
ATOM     20  C   UNL     1       1.639   4.473  20.834  0.00  0.00    +0.000 A 
ATOM     21  C   UNL     1       2.738   3.768  20.349  0.00  0.00    +0.000 A 
ATOM     22  C   UNL     1       3.624   4.380  19.462  0.00  0.00    +0.000 A 
ATOM     23  C   UNL     1       3.472   5.732  19.146  0.00  0.00    +0.000 A 
BRANCH  22  24
ATOM     24  O   UNL     1       4.680   3.611  19.030  0.00  0.00    +0.000 OA
BRANCH  24  25
ATOM     25  C   UNL     1       5.435   4.034  17.959  0.00  0.00    +0.000 A 
ATOM     26  C   UNL     1       6.670   4.685  18.072  0.00  0.00    +0.000 A 
ATOM     27  C   UNL     1       7.356   5.091  16.924  0.00  0.00    +0.000 A 
ATOM     28  C   UNL     1       6.783   4.881  15.675  0.00  0.00    +0.000 A 
ATOM     29  F   UNL     1       7.437   5.289  14.577  0.00  0.00    +0.000 F 
ATOM     30  C   UNL     1       5.540   4.260  15.566  0.00  0.00    +0.000 A 
ATOM     31  F   UNL     1       4.990   4.078  14.358  0.00  0.00    +0.000 F 
ATOM     32  C   UNL     1       4.866   3.840  16.699  0.00  0.00    +0.000 A 
ENDBRANCH  24  25
ENDBRANCH  22  24
ENDBRANCH  17  18
ENDBRANCH   4  17
TORSDOF 5
ENDMDL
