MODEL 1
REMARK VINA RESULT:      -8.6      0.000      0.000
REMARK  Name = 
REMARK  11 active torsions:
REMARK  status: ('A' for Active; 'I' for Inactive)
REMARK    1  A    between atoms: C_1  and  C_2
REMARK    2  A    between atoms: C_2  and  C_3
REMARK    3  A    between atoms: C_3  and  C_4
REMARK    4  A    between atoms: C_4  and  C_5
REMARK    5  A    between atoms: C_5  and  N_6
REMARK    6  A    between atoms: N_6  and  C_7
REMARK    7  A    between atoms: N_6  and  S_24
REMARK    8  A    between atoms: C_11  and  C_12
REMARK    9  A    between atoms: C_12  and  C_13
REMARK   10  A    between atoms: C_13  and  O_15
REMARK   11  A    between atoms: S_24  and  C_27
REMARK                            x       y       z     vdW  Elec       q    Type
REMARK                         _______ _______ _______ _____ _____    ______ ____
ROOT
ATOM      1  C   UNL     1       1.577   9.049  19.385  0.00  0.00    +0.000 C 
ATOM      2  C   UNL     1       1.677   8.852  17.864  0.00  0.00    +0.000 C 
ATOM      3  C   UNL     1       2.946   8.077  17.507  0.00  0.00    +0.000 C 
ATOM      4  C   UNL     1       3.030   6.802  18.285  0.00  0.00    +0.000 A 
ATOM      5  C   UNL     1       3.672   5.603  18.006  0.00  0.00    +0.000 A 
ATOM      6  C   UNL     1       3.354   4.700  19.078  0.00  0.00    +0.000 A 
ATOM      7  C   UNL     1       3.668   3.352  19.360  0.00  0.00    +0.000 A 
ATOM      8  C   UNL     1       3.129   2.733  20.496  0.00  0.00    +0.000 A 
ATOM      9  C   UNL     1       2.284   3.433  21.350  0.00  0.00    +0.000 A 
ATOM     10  C   UNL     1       1.969   4.770  21.105  0.00  0.00    +0.000 A 
ATOM     11  C   UNL     1       2.524   5.382  19.969  0.00  0.00    +0.000 A 
ATOM     12  N   UNL     1       2.387   6.663  19.488  0.00  0.00    +0.000 N 
ATOM     13  C   UNL     1       1.583   7.696  20.124  0.00  0.00    +0.000 C 
ENDROOT
BRANCH   1  14
ATOM     14  N   UNL     1       0.415   9.962  19.808  0.00  0.00    +0.000 NA
BRANCH  14  15
ATOM     15  S   UNL     1       0.789  11.052  21.113  0.00  0.00    +0.000 S 
ATOM     16  O   UNL     1       1.321  10.293  22.221  0.00  0.00    +0.000 OA
ATOM     17  O   UNL     1       1.524  12.159  20.537  0.00  0.00    +0.000 OA
BRANCH  15  18
ATOM     18  C   UNL     1      -0.783  11.683  21.647  0.00  0.00    +0.000 A 
ATOM     19  C   UNL     1      -1.313  11.268  22.872  0.00  0.00    +0.000 A 
ATOM     20  C   UNL     1      -2.563  11.747  23.269  0.00  0.00    +0.000 A 
ATOM     21  C   UNL     1      -3.253  12.635  22.447  0.00  0.00    +0.000 A 
ATOM     22  F   UNL     1      -4.457  13.083  22.828  0.00  0.00    +0.000 F 
ATOM     23  C   UNL     1      -2.718  13.066  21.237  0.00  0.00    +0.000 A 
ATOM     24  C   UNL     1      -1.472  12.593  20.831  0.00  0.00    +0.000 A 
ENDBRANCH  15  18
ENDBRANCH  14  15
BRANCH  14  25
ATOM     25  C   UNL     1      -0.262  10.636  18.644  0.00  0.00    +0.000 C 
BRANCH  25  26
ATOM     26  C   UNL     1      -1.685  10.147  18.364  0.00  0.00    +0.000 C 
BRANCH  26  27
ATOM     27  C   UNL     1      -1.944   9.764  16.905  0.00  0.00    +0.000 C 
BRANCH  27  29
ATOM     28  C   UNL     1      -3.305  10.443  14.877  0.00  0.00    +0.000 C 
ATOM     29  C   UNL     1      -2.688  10.896  16.189  0.00  0.00    +0.000 C 
ENDBRANCH  27  29
ENDBRANCH  26  27
ENDBRANCH  25  26
ENDBRANCH  14  25
ENDBRANCH   1  14
BRANCH   5  30
ATOM     30  C   UNL     1       4.489   5.292  16.783  0.00  0.00    +0.000 C 
BRANCH  30  31
ATOM     31  C   UNL     1       5.988   5.371  16.981  0.00  0.00    +0.000 C 
ATOM     32  O   UNL     1       6.659   6.333  16.619  0.00  0.00    +0.000 OA
BRANCH  31  33
ATOM     33  O   UNL     1       6.567   4.275  17.522  0.00  0.00    +0.000 OA
ATOM     34  H   UNL     1       6.237   3.438  17.137  0.00  0.00    +0.000 HD
ENDBRANCH  31  33
ENDBRANCH  30  31
ENDBRANCH   5  30
TORSDOF 10
ENDMDL
MODEL 2
REMARK VINA RESULT:      -8.5      0.201      1.028
REMARK  Name = 
REMARK  11 active torsions:
REMARK  status: ('A' for Active; 'I' for Inactive)
REMARK    1  A    between atoms: C_1  and  C_2
REMARK    2  A    between atoms: C_2  and  C_3
REMARK    3  A    between atoms: C_3  and  C_4
REMARK    4  A    between atoms: C_4  and  C_5
REMARK    5  A    between atoms: C_5  and  N_6
REMARK    6  A    between atoms: N_6  and  C_7
REMARK    7  A    between atoms: N_6  and  S_24
REMARK    8  A    between atoms: C_11  and  C_12
REMARK    9  A    between atoms: C_12  and  C_13
REMARK   10  A    between atoms: C_13  and  O_15
REMARK   11  A    between atoms: S_24  and  C_27
REMARK                            x       y       z     vdW  Elec       q    Type
REMARK                         _______ _______ _______ _____ _____    ______ ____
ROOT
ATOM      1  C   UNL     1       1.579   9.065  19.396  0.00  0.00    +0.000 C 
ATOM      2  C   UNL     1       1.708   8.878  17.876  0.00  0.00    +0.000 C 
ATOM      3  C   UNL     1       2.981   8.100  17.539  0.00  0.00    +0.000 C 
ATOM      4  C   UNL     1       3.044   6.819  18.309  0.00  0.00    +0.000 A 
ATOM      5  C   UNL     1       3.686   5.620  18.034  0.00  0.00    +0.000 A 
ATOM      6  C   UNL     1       3.344   4.710  19.093  0.00  0.00    +0.000 A 
ATOM      7  C   UNL     1       3.646   3.359  19.371  0.00  0.00    +0.000 A 
ATOM      8  C   UNL     1       3.082   2.735  20.493  0.00  0.00    +0.000 A 
ATOM      9  C   UNL     1       2.224   3.432  21.335  0.00  0.00    +0.000 A 
ATOM     10  C   UNL     1       1.920   4.772  21.094  0.00  0.00    +0.000 A 
ATOM     11  C   UNL     1       2.499   5.390  19.973  0.00  0.00    +0.000 A 
ATOM     12  N   UNL     1       2.377   6.675  19.498  0.00  0.00    +0.000 N 
ATOM     13  C   UNL     1       1.566   7.707  20.125  0.00  0.00    +0.000 C 
ENDROOT
BRANCH   1  14
ATOM     14  N   UNL     1       0.414   9.980  19.803  0.00  0.00    +0.000 NA
BRANCH  14  15
ATOM     15  S   UNL     1       0.770  11.065  21.117  0.00  0.00    +0.000 S 
ATOM     16  O   UNL     1       1.311  10.305  22.220  0.00  0.00    +0.000 OA
ATOM     17  O   UNL     1       1.490  12.187  20.551  0.00  0.00    +0.000 OA
BRANCH  15  18
ATOM     18  C   UNL     1      -0.813  11.670  21.654  0.00  0.00    +0.000 A 
ATOM     19  C   UNL     1      -1.520  12.562  20.844  0.00  0.00    +0.000 A 
ATOM     20  C   UNL     1      -2.748  13.054  21.288  0.00  0.00    +0.000 A 
ATOM     21  C   UNL     1      -3.252  12.641  22.519  0.00  0.00    +0.000 A 
ATOM     22  F   UNL     1      -4.427  13.125  22.945  0.00  0.00    +0.000 F 
ATOM     23  C   UNL     1      -2.560  11.736  23.317  0.00  0.00    +0.000 A 
ATOM     24  C   UNL     1      -1.332  11.240  22.884  0.00  0.00    +0.000 A 
ENDBRANCH  15  18
ENDBRANCH  14  15
BRANCH  14  25
ATOM     25  C   UNL     1      -0.242  10.660  18.630  0.00  0.00    +0.000 C 
BRANCH  25  26
ATOM     26  C   UNL     1      -1.657  10.167  18.318  0.00  0.00    +0.000 C 
BRANCH  26  27
ATOM     27  C   UNL     1      -1.882   9.784  16.853  0.00  0.00    +0.000 C 
BRANCH  27  29
ATOM     28  C   UNL     1      -3.325  10.289  14.830  0.00  0.00    +0.000 C 
ATOM     29  C   UNL     1      -3.176  10.422  16.336  0.00  0.00    +0.000 C 
ENDBRANCH  27  29
ENDBRANCH  26  27
ENDBRANCH  25  26
ENDBRANCH  14  25
ENDBRANCH   1  14
BRANCH   5  30
ATOM     30  C   UNL     1       4.525   5.313  16.825  0.00  0.00    +0.000 C 
BRANCH  30  31
ATOM     31  C   UNL     1       6.001   5.614  16.981  0.00  0.00    +0.000 C 
ATOM     32  O   UNL     1       6.783   4.848  17.535  0.00  0.00    +0.000 OA
BRANCH  31  33
ATOM     33  O   UNL     1       6.404   6.825  16.531  0.00  0.00    +0.000 OA
ATOM     34  H   UNL     1       6.851   7.358  17.218  0.00  0.00    +0.000 HD
ENDBRANCH  31  33
ENDBRANCH  30  31
ENDBRANCH   5  30
TORSDOF 10
ENDMDL
MODEL 3
REMARK VINA RESULT:      -8.4      3.266      8.161
REMARK  Name = 
REMARK  11 active torsions:
REMARK  status: ('A' for Active; 'I' for Inactive)
REMARK    1  A    between atoms: C_1  and  C_2
REMARK    2  A    between atoms: C_2  and  C_3
REMARK    3  A    between atoms: C_3  and  C_4
REMARK    4  A    between atoms: C_4  and  C_5
REMARK    5  A    between atoms: C_5  and  N_6
REMARK    6  A    between atoms: N_6  and  C_7
REMARK    7  A    between atoms: N_6  and  S_24
REMARK    8  A    between atoms: C_11  and  C_12
REMARK    9  A    between atoms: C_12  and  C_13
REMARK   10  A    between atoms: C_13  and  O_15
REMARK   11  A    between atoms: S_24  and  C_27
REMARK                            x       y       z     vdW  Elec       q    Type
REMARK                         _______ _______ _______ _____ _____    ______ ____
ROOT
ATOM      1  C   UNL     1       2.765   7.001  18.488  0.00  0.00    +0.000 C 
ATOM      2  C   UNL     1       2.981   8.246  17.614  0.00  0.00    +0.000 C 
ATOM      3  C   UNL     1       1.675   9.028  17.465  0.00  0.00    +0.000 C 
ATOM      4  C   UNL     1       1.076   9.328  18.802  0.00  0.00    +0.000 A 
ATOM      5  C   UNL     1       0.227  10.346  19.214  0.00  0.00    +0.000 A 
ATOM      6  C   UNL     1       0.031  10.180  20.628  0.00  0.00    +0.000 A 
ATOM      7  C   UNL     1      -0.684  10.892  21.616  0.00  0.00    +0.000 A 
ATOM      8  C   UNL     1      -0.614  10.485  22.956  0.00  0.00    +0.000 A 
ATOM      9  C   UNL     1       0.157   9.389  23.325  0.00  0.00    +0.000 A 
ATOM     10  C   UNL     1       0.862   8.658  22.368  0.00  0.00    +0.000 A 
ATOM     11  C   UNL     1       0.775   9.069  21.027  0.00  0.00    +0.000 A 
ATOM     12  N   UNL     1       1.355   8.547  19.894  0.00  0.00    +0.000 N 
ATOM     13  C   UNL     1       2.227   7.382  19.881  0.00  0.00    +0.000 C 
ENDROOT
BRANCH   1  14
ATOM     14  N   UNL     1       3.991   6.075  18.548  0.00  0.00    +0.000 NA
BRANCH  14  15
ATOM     15  S   UNL     1       3.676   4.426  18.085  0.00  0.00    +0.000 S 
ATOM     16  O   UNL     1       2.788   4.419  16.946  0.00  0.00    +0.000 OA
ATOM     17  O   UNL     1       4.957   3.750  18.046  0.00  0.00    +0.000 OA
BRANCH  15  18
ATOM     18  C   UNL     1       2.757   3.738  19.441  0.00  0.00    +0.000 A 
ATOM     19  C   UNL     1       1.361   3.804  19.432  0.00  0.00    +0.000 A 
ATOM     20  C   UNL     1       0.650   3.287  20.517  0.00  0.00    +0.000 A 
ATOM     21  C   UNL     1       1.338   2.707  21.579  0.00  0.00    +0.000 A 
ATOM     22  F   UNL     1       0.651   2.222  22.622  0.00  0.00    +0.000 F 
ATOM     23  C   UNL     1       2.727   2.620  21.580  0.00  0.00    +0.000 A 
ATOM     24  C   UNL     1       3.447   3.135  20.503  0.00  0.00    +0.000 A 
ENDBRANCH  15  18
ENDBRANCH  14  15
BRANCH  14  25
ATOM     25  C   UNL     1       5.207   6.660  17.879  0.00  0.00    +0.000 C 
BRANCH  25  26
ATOM     26  C   UNL     1       5.458   6.151  16.458  0.00  0.00    +0.000 C 
BRANCH  26  27
ATOM     27  C   UNL     1       6.907   5.738  16.183  0.00  0.00    +0.000 C 
BRANCH  27  29
ATOM     28  C   UNL     1       5.579   4.378  14.506  0.00  0.00    +0.000 C 
ATOM     29  C   UNL     1       6.962   4.774  14.994  0.00  0.00    +0.000 C 
ENDBRANCH  27  29
ENDBRANCH  26  27
ENDBRANCH  25  26
ENDBRANCH  14  25
ENDBRANCH   1  14
BRANCH   5  30
ATOM     30  C   UNL     1      -0.327  11.448  18.354  0.00  0.00    +0.000 C 
BRANCH  30  31
ATOM     31  C   UNL     1      -1.718  11.194  17.812  0.00  0.00    +0.000 C 
ATOM     32  O   UNL     1      -2.737  11.543  18.399  0.00  0.00    +0.000 OA
BRANCH  31  33
ATOM     33  O   UNL     1      -1.778  10.487  16.660  0.00  0.00    +0.000 OA
ATOM     34  H   UNL     1      -2.150  11.000  15.915  0.00  0.00    +0.000 HD
ENDBRANCH  31  33
ENDBRANCH  30  31
ENDBRANCH   5  30
TORSDOF 10
ENDMDL
MODEL 4
REMARK VINA RESULT:      -8.2      2.168      2.656
REMARK  Name = 
REMARK  11 active torsions:
REMARK  status: ('A' for Active; 'I' for Inactive)
REMARK    1  A    between atoms: C_1  and  C_2
REMARK    2  A    between atoms: C_2  and  C_3
REMARK    3  A    between atoms: C_3  and  C_4
REMARK    4  A    between atoms: C_4  and  C_5
REMARK    5  A    between atoms: C_5  and  N_6
REMARK    6  A    between atoms: N_6  and  C_7
REMARK    7  A    between atoms: N_6  and  S_24
REMARK    8  A    between atoms: C_11  and  C_12
REMARK    9  A    between atoms: C_12  and  C_13
REMARK   10  A    between atoms: C_13  and  O_15
REMARK   11  A    between atoms: S_24  and  C_27
REMARK                            x       y       z     vdW  Elec       q    Type
REMARK                         _______ _______ _______ _____ _____    ______ ____
ROOT
ATOM      1  C   UNL     1       1.300   9.178  19.366  0.00  0.00    +0.000 C 
ATOM      2  C   UNL     1       1.600   9.051  17.865  0.00  0.00    +0.000 C 
ATOM      3  C   UNL     1       2.963   8.392  17.646  0.00  0.00    +0.000 C 
ATOM      4  C   UNL     1       3.057   7.098  18.390  0.00  0.00    +0.000 A 
ATOM      5  C   UNL     1       3.825   5.966  18.157  0.00  0.00    +0.000 A 
ATOM      6  C   UNL     1       3.455   4.998  19.154  0.00  0.00    +0.000 A 
ATOM      7  C   UNL     1       3.843   3.669  19.432  0.00  0.00    +0.000 A 
ATOM      8  C   UNL     1       3.223   2.965  20.474  0.00  0.00    +0.000 A 
ATOM      9  C   UNL     1       2.225   3.562  21.237  0.00  0.00    +0.000 A 
ATOM     10  C   UNL     1       1.833   4.878  20.994  0.00  0.00    +0.000 A 
ATOM     11  C   UNL     1       2.469   5.577  19.955  0.00  0.00    +0.000 A 
ATOM     12  N   UNL     1       2.286   6.862  19.499  0.00  0.00    +0.000 N 
ATOM     13  C   UNL     1       1.328   7.802  20.060  0.00  0.00    +0.000 C 
ENDROOT
BRANCH   1  14
ATOM     14  N   UNL     1       0.023   9.980  19.669  0.00  0.00    +0.000 NA
BRANCH  14  15
ATOM     15  S   UNL     1       0.205  11.191  20.907  0.00  0.00    +0.000 S 
ATOM     16  O   UNL     1      -1.090  11.477  21.479  0.00  0.00    +0.000 OA
ATOM     17  O   UNL     1       1.320  10.778  21.736  0.00  0.00    +0.000 OA
BRANCH  15  18
ATOM     18  C   UNL     1       0.706  12.659  20.041  0.00  0.00    +0.000 A 
ATOM     19  C   UNL     1       1.973  12.715  19.454  0.00  0.00    +0.000 A 
ATOM     20  C   UNL     1       2.368  13.884  18.802  0.00  0.00    +0.000 A 
ATOM     21  C   UNL     1       1.495  14.966  18.737  0.00  0.00    +0.000 A 
ATOM     22  F   UNL     1       1.883  16.090  18.119  0.00  0.00    +0.000 F 
ATOM     23  C   UNL     1       0.225  14.905  19.303  0.00  0.00    +0.000 A 
ATOM     24  C   UNL     1      -0.179  13.744  19.958  0.00  0.00    +0.000 A 
ENDBRANCH  15  18
ENDBRANCH  14  15
BRANCH  14  25
ATOM     25  C   UNL     1      -0.660  10.494  18.429  0.00  0.00    +0.000 C 
BRANCH  25  26
ATOM     26  C   UNL     1      -2.182  10.607  18.543  0.00  0.00    +0.000 C 
BRANCH  26  27
ATOM     27  C   UNL     1      -2.955   9.750  17.536  0.00  0.00    +0.000 C 
BRANCH  27  29
ATOM     28  C   UNL     1      -3.283  10.774  15.240  0.00  0.00    +0.000 C 
ATOM     29  C   UNL     1      -2.376   9.942  16.130  0.00  0.00    +0.000 C 
ENDBRANCH  27  29
ENDBRANCH  26  27
ENDBRANCH  25  26
ENDBRANCH  14  25
ENDBRANCH   1  14
BRANCH   5  30
ATOM     30  C   UNL     1       4.807   5.768  17.036  0.00  0.00    +0.000 C 
BRANCH  30  31
ATOM     31  C   UNL     1       6.200   6.296  17.309  0.00  0.00    +0.000 C 
ATOM     32  O   UNL     1       6.691   7.234  16.689  0.00  0.00    +0.000 OA
BRANCH  31  33
ATOM     33  O   UNL     1       6.911   5.621  18.241  0.00  0.00    +0.000 OA
ATOM     34  H   UNL     1       7.871   5.608  18.054  0.00  0.00    +0.000 HD
ENDBRANCH  31  33
ENDBRANCH  30  31
ENDBRANCH   5  30
TORSDOF 10
ENDMDL
MODEL 5
REMARK VINA RESULT:      -8.2      3.419      8.144
REMARK  Name = 
REMARK  11 active torsions:
REMARK  status: ('A' for Active; 'I' for Inactive)
REMARK    1  A    between atoms: C_1  and  C_2
REMARK    2  A    between atoms: C_2  and  C_3
REMARK    3  A    between atoms: C_3  and  C_4
REMARK    4  A    between atoms: C_4  and  C_5
REMARK    5  A    between atoms: C_5  and  N_6
REMARK    6  A    between atoms: N_6  and  C_7
REMARK    7  A    between atoms: N_6  and  S_24
REMARK    8  A    between atoms: C_11  and  C_12
REMARK    9  A    between atoms: C_12  and  C_13
REMARK   10  A    between atoms: C_13  and  O_15
REMARK   11  A    between atoms: S_24  and  C_27
REMARK                            x       y       z     vdW  Elec       q    Type
REMARK                         _______ _______ _______ _____ _____    ______ ____
ROOT
ATOM      1  C   UNL     1       2.571   7.065  18.250  0.00  0.00    +0.000 C 
ATOM      2  C   UNL     1       3.059   8.348  17.561  0.00  0.00    +0.000 C 
ATOM      3  C   UNL     1       1.922   9.366  17.456  0.00  0.00    +0.000 C 
ATOM      4  C   UNL     1       1.292   9.603  18.793  0.00  0.00    +0.000 A 
ATOM      5  C   UNL     1       0.605  10.699  19.296  0.00  0.00    +0.000 A 
ATOM      6  C   UNL     1       0.286  10.399  20.665  0.00  0.00    +0.000 A 
ATOM      7  C   UNL     1      -0.362  11.101  21.705  0.00  0.00    +0.000 A 
ATOM      8  C   UNL     1      -0.457  10.528  22.981  0.00  0.00    +0.000 A 
ATOM      9  C   UNL     1       0.086   9.273  23.235  0.00  0.00    +0.000 A 
ATOM     10  C   UNL     1       0.718   8.551  22.223  0.00  0.00    +0.000 A 
ATOM     11  C   UNL     1       0.796   9.131  20.946  0.00  0.00    +0.000 A 
ATOM     12  N   UNL     1       1.355   8.656  19.782  0.00  0.00    +0.000 N 
ATOM     13  C   UNL     1       2.011   7.364  19.655  0.00  0.00    +0.000 C 
ENDROOT
BRANCH   1  14
ATOM     14  N   UNL     1       3.611   5.933  18.244  0.00  0.00    +0.000 NA
BRANCH  14  15
ATOM     15  S   UNL     1       2.977   4.370  17.811  0.00  0.00    +0.000 S 
ATOM     16  O   UNL     1       1.800   4.550  16.992  0.00  0.00    +0.000 OA
ATOM     17  O   UNL     1       4.099   3.576  17.353  0.00  0.00    +0.000 OA
BRANCH  15  18
ATOM     18  C   UNL     1       2.419   3.662  19.342  0.00  0.00    +0.000 A 
ATOM     19  C   UNL     1       3.355   3.164  20.252  0.00  0.00    +0.000 A 
ATOM     20  C   UNL     1       2.905   2.583  21.439  0.00  0.00    +0.000 A 
ATOM     21  C   UNL     1       1.539   2.519  21.701  0.00  0.00    +0.000 A 
ATOM     22  F   UNL     1       1.112   1.951  22.837  0.00  0.00    +0.000 F 
ATOM     23  C   UNL     1       0.606   3.035  20.805  0.00  0.00    +0.000 A 
ATOM     24  C   UNL     1       1.045   3.615  19.617  0.00  0.00    +0.000 A 
ENDBRANCH  15  18
ENDBRANCH  14  15
BRANCH  14  25
ATOM     25  C   UNL     1       4.871   6.292  17.501  0.00  0.00    +0.000 C 
BRANCH  25  26
ATOM     26  C   UNL     1       6.156   6.137  18.316  0.00  0.00    +0.000 C 
BRANCH  26  27
ATOM     27  C   UNL     1       7.425   6.579  17.583  0.00  0.00    +0.000 C 
BRANCH  27  29
ATOM     28  C   UNL     1       8.097   9.001  17.910  0.00  0.00    +0.000 C 
ATOM     29  C   UNL     1       8.205   7.582  18.440  0.00  0.00    +0.000 C 
ENDBRANCH  27  29
ENDBRANCH  26  27
ENDBRANCH  25  26
ENDBRANCH  14  25
ENDBRANCH   1  14
BRANCH   5  30
ATOM     30  C   UNL     1       0.310  11.980  18.566  0.00  0.00    +0.000 C 
BRANCH  30  31
ATOM     31  C   UNL     1       1.450  12.976  18.543  0.00  0.00    +0.000 C 
ATOM     32  O   UNL     1       1.607  13.830  19.411  0.00  0.00    +0.000 OA
BRANCH  31  33
ATOM     33  O   UNL     1       2.257  12.920  17.459  0.00  0.00    +0.000 OA
ATOM     34  H   UNL     1       2.826  13.710  17.364  0.00  0.00    +0.000 HD
ENDBRANCH  31  33
ENDBRANCH  30  31
ENDBRANCH   5  30
TORSDOF 10
ENDMDL
MODEL 6
REMARK VINA RESULT:      -8.2      4.118      9.142
REMARK  Name = 
REMARK  11 active torsions:
REMARK  status: ('A' for Active; 'I' for Inactive)
REMARK    1  A    between atoms: C_1  and  C_2
REMARK    2  A    between atoms: C_2  and  C_3
REMARK    3  A    between atoms: C_3  and  C_4
REMARK    4  A    between atoms: C_4  and  C_5
REMARK    5  A    between atoms: C_5  and  N_6
REMARK    6  A    between atoms: N_6  and  C_7
REMARK    7  A    between atoms: N_6  and  S_24
REMARK    8  A    between atoms: C_11  and  C_12
REMARK    9  A    between atoms: C_12  and  C_13
REMARK   10  A    between atoms: C_13  and  O_15
REMARK   11  A    between atoms: S_24  and  C_27
REMARK                            x       y       z     vdW  Elec       q    Type
REMARK                         _______ _______ _______ _____ _____    ______ ____
ROOT
ATOM      1  C   UNL     1       2.544   6.934  18.780  0.00  0.00    +0.000 C 
ATOM      2  C   UNL     1       2.959   8.146  17.931  0.00  0.00    +0.000 C 
ATOM      3  C   UNL     1       1.758   9.062  17.684  0.00  0.00    +0.000 C 
ATOM      4  C   UNL     1       1.093   9.429  18.972  0.00  0.00    +0.000 A 
ATOM      5  C   UNL     1       0.327  10.533  19.321  0.00  0.00    +0.000 A 
ATOM      6  C   UNL     1       0.006  10.395  20.715  0.00  0.00    +0.000 A 
ATOM      7  C   UNL     1      -0.703  11.183  21.648  0.00  0.00    +0.000 A 
ATOM      8  C   UNL     1      -0.780  10.777  22.988  0.00  0.00    +0.000 A 
ATOM      9  C   UNL     1      -0.161   9.606  23.410  0.00  0.00    +0.000 A 
ATOM     10  C   UNL     1       0.534   8.801  22.508  0.00  0.00    +0.000 A 
ATOM     11  C   UNL     1       0.595   9.212  21.166  0.00  0.00    +0.000 A 
ATOM     12  N   UNL     1       1.202   8.628  20.079  0.00  0.00    +0.000 N 
ATOM     13  C   UNL     1       1.944   7.377  20.128  0.00  0.00    +0.000 C 
ENDROOT
BRANCH   1  14
ATOM     14  N   UNL     1       3.657   5.884  18.930  0.00  0.00    +0.000 NA
BRANCH  14  15
ATOM     15  S   UNL     1       3.426   4.444  17.979  0.00  0.00    +0.000 S 
ATOM     16  O   UNL     1       3.834   3.297  18.757  0.00  0.00    +0.000 OA
ATOM     17  O   UNL     1       2.100   4.530  17.403  0.00  0.00    +0.000 OA
BRANCH  15  18
ATOM     18  C   UNL     1       4.592   4.585  16.646  0.00  0.00    +0.000 A 
ATOM     19  C   UNL     1       4.638   5.761  15.892  0.00  0.00    +0.000 A 
ATOM     20  C   UNL     1       5.536   5.850  14.828  0.00  0.00    +0.000 A 
ATOM     21  C   UNL     1       6.376   4.777  14.542  0.00  0.00    +0.000 A 
ATOM     22  F   UNL     1       7.229   4.864  13.513  0.00  0.00    +0.000 F 
ATOM     23  C   UNL     1       6.347   3.613  15.305  0.00  0.00    +0.000 A 
ATOM     24  C   UNL     1       5.453   3.513  16.368  0.00  0.00    +0.000 A 
ENDBRANCH  15  18
ENDBRANCH  14  15
BRANCH  14  25
ATOM     25  C   UNL     1       5.040   6.466  18.806  0.00  0.00    +0.000 C 
BRANCH  25  26
ATOM     26  C   UNL     1       6.157   5.577  19.359  0.00  0.00    +0.000 C 
BRANCH  26  27
ATOM     27  C   UNL     1       7.555   5.929  18.846  0.00  0.00    +0.000 C 
BRANCH  27  29
ATOM     28  C   UNL     1       8.138   8.251  18.014  0.00  0.00    +0.000 C 
ATOM     29  C   UNL     1       7.455   6.933  17.693  0.00  0.00    +0.000 C 
ENDBRANCH  27  29
ENDBRANCH  26  27
ENDBRANCH  25  26
ENDBRANCH  14  25
ENDBRANCH   1  14
BRANCH   5  30
ATOM     30  C   UNL     1      -0.039  11.684  18.426  0.00  0.00    +0.000 C 
BRANCH  30  31
ATOM     31  C   UNL     1      -1.500  11.748  18.036  0.00  0.00    +0.000 C 
ATOM     32  O   UNL     1      -2.407  11.836  18.857  0.00  0.00    +0.000 OA
BRANCH  31  33
ATOM     33  O   UNL     1      -1.760  11.629  16.713  0.00  0.00    +0.000 OA
ATOM     34  H   UNL     1      -1.282  12.285  16.168  0.00  0.00    +0.000 HD
ENDBRANCH  31  33
ENDBRANCH  30  31
ENDBRANCH   5  30
TORSDOF 10
ENDMDL
MODEL 7
REMARK VINA RESULT:      -8.2      3.262      8.119
REMARK  Name = 
REMARK  11 active torsions:
REMARK  status: ('A' for Active; 'I' for Inactive)
REMARK    1  A    between atoms: C_1  and  C_2
REMARK    2  A    between atoms: C_2  and  C_3
REMARK    3  A    between atoms: C_3  and  C_4
REMARK    4  A    between atoms: C_4  and  C_5
REMARK    5  A    between atoms: C_5  and  N_6
REMARK    6  A    between atoms: N_6  and  C_7
REMARK    7  A    between atoms: N_6  and  S_24
REMARK    8  A    between atoms: C_11  and  C_12
REMARK    9  A    between atoms: C_12  and  C_13
REMARK   10  A    between atoms: C_13  and  O_15
REMARK   11  A    between atoms: S_24  and  C_27
REMARK                            x       y       z     vdW  Elec       q    Type
REMARK                         _______ _______ _______ _____ _____    ______ ____
ROOT
ATOM      1  C   UNL     1       2.761   7.000  18.510  0.00  0.00    +0.000 C 
ATOM      2  C   UNL     1       2.981   8.245  17.636  0.00  0.00    +0.000 C 
ATOM      3  C   UNL     1       1.676   9.029  17.483  0.00  0.00    +0.000 C 
ATOM      4  C   UNL     1       1.074   9.330  18.819  0.00  0.00    +0.000 A 
ATOM      5  C   UNL     1       0.225  10.349  19.228  0.00  0.00    +0.000 A 
ATOM      6  C   UNL     1       0.026  10.184  20.643  0.00  0.00    +0.000 A 
ATOM      7  C   UNL     1      -0.690  10.897  21.629  0.00  0.00    +0.000 A 
ATOM      8  C   UNL     1      -0.624  10.491  22.969  0.00  0.00    +0.000 A 
ATOM      9  C   UNL     1       0.145   9.394  23.340  0.00  0.00    +0.000 A 
ATOM     10  C   UNL     1       0.851   8.662  22.385  0.00  0.00    +0.000 A 
ATOM     11  C   UNL     1       0.768   9.072  21.043  0.00  0.00    +0.000 A 
ATOM     12  N   UNL     1       1.350   8.549  19.912  0.00  0.00    +0.000 N 
ATOM     13  C   UNL     1       2.221   7.384  19.901  0.00  0.00    +0.000 C 
ENDROOT
BRANCH   1  14
ATOM     14  N   UNL     1       3.986   6.073  18.573  0.00  0.00    +0.000 NA
BRANCH  14  15
ATOM     15  S   UNL     1       3.673   4.427  18.101  0.00  0.00    +0.000 S 
ATOM     16  O   UNL     1       2.784   4.425  16.963  0.00  0.00    +0.000 OA
ATOM     17  O   UNL     1       4.954   3.753  18.058  0.00  0.00    +0.000 OA
BRANCH  15  18
ATOM     18  C   UNL     1       2.755   3.730  19.454  0.00  0.00    +0.000 A 
ATOM     19  C   UNL     1       1.360   3.799  19.449  0.00  0.00    +0.000 A 
ATOM     20  C   UNL     1       0.650   3.276  20.531  0.00  0.00    +0.000 A 
ATOM     21  C   UNL     1       1.339   2.686  21.587  0.00  0.00    +0.000 A 
ATOM     22  F   UNL     1       0.653   2.194  22.628  0.00  0.00    +0.000 F 
ATOM     23  C   UNL     1       2.728   2.596  21.584  0.00  0.00    +0.000 A 
ATOM     24  C   UNL     1       3.446   3.117  20.510  0.00  0.00    +0.000 A 
ENDBRANCH  15  18
ENDBRANCH  14  15
BRANCH  14  25
ATOM     25  C   UNL     1       5.207   6.660  17.914  0.00  0.00    +0.000 C 
BRANCH  25  26
ATOM     26  C   UNL     1       5.389   6.266  16.446  0.00  0.00    +0.000 C 
BRANCH  26  27
ATOM     27  C   UNL     1       6.818   5.862  16.076  0.00  0.00    +0.000 C 
BRANCH  27  29
ATOM     28  C   UNL     1       5.699   4.317  14.406  0.00  0.00    +0.000 C 
ATOM     29  C   UNL     1       6.820   4.478  15.419  0.00  0.00    +0.000 C 
ENDBRANCH  27  29
ENDBRANCH  26  27
ENDBRANCH  25  26
ENDBRANCH  14  25
ENDBRANCH   1  14
BRANCH   5  30
ATOM     30  C   UNL     1      -0.326  11.451  18.367  0.00  0.00    +0.000 C 
BRANCH  30  31
ATOM     31  C   UNL     1       0.350  12.794  18.542  0.00  0.00    +0.000 C 
ATOM     32  O   UNL     1      -0.143  13.710  19.193  0.00  0.00    +0.000 OA
BRANCH  31  33
ATOM     33  O   UNL     1       1.514  12.957  17.871  0.00  0.00    +0.000 OA
ATOM     34  H   UNL     1       1.572  12.403  17.067  0.00  0.00    +0.000 HD
ENDBRANCH  31  33
ENDBRANCH  30  31
ENDBRANCH   5  30
TORSDOF 10
ENDMDL
MODEL 8
REMARK VINA RESULT:      -8.1      2.127      2.699
REMARK  Name = 
REMARK  11 active torsions:
REMARK  status: ('A' for Active; 'I' for Inactive)
REMARK    1  A    between atoms: C_1  and  C_2
REMARK    2  A    between atoms: C_2  and  C_3
REMARK    3  A    between atoms: C_3  and  C_4
REMARK    4  A    between atoms: C_4  and  C_5
REMARK    5  A    between atoms: C_5  and  N_6
REMARK    6  A    between atoms: N_6  and  C_7
REMARK    7  A    between atoms: N_6  and  S_24
REMARK    8  A    between atoms: C_11  and  C_12
REMARK    9  A    between atoms: C_12  and  C_13
REMARK   10  A    between atoms: C_13  and  O_15
REMARK   11  A    between atoms: S_24  and  C_27
REMARK                            x       y       z     vdW  Elec       q    Type
REMARK                         _______ _______ _______ _____ _____    ______ ____
ROOT
ATOM      1  C   UNL     1       1.486   8.913  19.322  0.00  0.00    +0.000 C 
ATOM      2  C   UNL     1       1.845   8.737  17.839  0.00  0.00    +0.000 C 
ATOM      3  C   UNL     1       3.200   8.042  17.695  0.00  0.00    +0.000 C 
ATOM      4  C   UNL     1       3.233   6.767  18.477  0.00  0.00    +0.000 A 
ATOM      5  C   UNL     1       3.983   5.612  18.307  0.00  0.00    +0.000 A 
ATOM      6  C   UNL     1       3.549   4.681  19.313  0.00  0.00    +0.000 A 
ATOM      7  C   UNL     1       3.893   3.352  19.642  0.00  0.00    +0.000 A 
ATOM      8  C   UNL     1       3.214   2.691  20.676  0.00  0.00    +0.000 A 
ATOM      9  C   UNL     1       2.200   3.331  21.379  0.00  0.00    +0.000 A 
ATOM     10  C   UNL     1       1.849   4.649  21.086  0.00  0.00    +0.000 A 
ATOM     11  C   UNL     1       2.545   5.304  20.055  0.00  0.00    +0.000 A 
ATOM     12  N   UNL     1       2.411   6.579  19.558  0.00  0.00    +0.000 N 
ATOM     13  C   UNL     1       1.453   7.556  20.053  0.00  0.00    +0.000 C 
ENDROOT
BRANCH   1  14
ATOM     14  N   UNL     1       0.218   9.751  19.550  0.00  0.00    +0.000 NA
BRANCH  14  15
ATOM     15  S   UNL     1       0.340  10.914  20.839  0.00  0.00    +0.000 S 
ATOM     16  O   UNL     1      -0.972  11.129  21.404  0.00  0.00    +0.000 OA
ATOM     17  O   UNL     1       1.458  10.508  21.665  0.00  0.00    +0.000 OA
BRANCH  15  18
ATOM     18  C   UNL     1       0.797  12.435  20.042  0.00  0.00    +0.000 A 
ATOM     19  C   UNL     1      -0.097  13.509  20.041  0.00  0.00    +0.000 A 
ATOM     20  C   UNL     1       0.260  14.689  19.386  0.00  0.00    +0.000 A 
ATOM     21  C   UNL     1       1.499  14.781  18.758  0.00  0.00    +0.000 A 
ATOM     22  F   UNL     1       1.833  15.912  18.122  0.00  0.00    +0.000 F 
ATOM     23  C   UNL     1       2.400  13.720  18.776  0.00  0.00    +0.000 A 
ATOM     24  C   UNL     1       2.053  12.537  19.425  0.00  0.00    +0.000 A 
ENDBRANCH  15  18
ENDBRANCH  14  15
BRANCH  14  25
ATOM     25  C   UNL     1      -0.345  10.329  18.277  0.00  0.00    +0.000 C 
BRANCH  25  26
ATOM     26  C   UNL     1      -1.845  10.097  18.082  0.00  0.00    +0.000 C 
BRANCH  26  27
ATOM     27  C   UNL     1      -2.648  11.369  17.798  0.00  0.00    +0.000 C 
BRANCH  27  29
ATOM     28  C   UNL     1      -2.926  10.117  15.611  0.00  0.00    +0.000 C 
ATOM     29  C   UNL     1      -3.490  11.187  16.531  0.00  0.00    +0.000 C 
ENDBRANCH  27  29
ENDBRANCH  26  27
ENDBRANCH  25  26
ENDBRANCH  14  25
ENDBRANCH   1  14
BRANCH   5  30
ATOM     30  C   UNL     1       5.006   5.361  17.234  0.00  0.00    +0.000 C 
BRANCH  30  31
ATOM     31  C   UNL     1       6.445   5.418  17.701  0.00  0.00    +0.000 C 
ATOM     32  O   UNL     1       6.975   4.514  18.339  0.00  0.00    +0.000 OA
BRANCH  31  33
ATOM     33  O   UNL     1       7.104   6.569  17.434  0.00  0.00    +0.000 OA
ATOM     34  H   UNL     1       8.076   6.467  17.457  0.00  0.00    +0.000 HD
ENDBRANCH  31  33
ENDBRANCH  30  31
ENDBRANCH   5  30
TORSDOF 10
ENDMDL
MODEL 9
REMARK VINA RESULT:      -8.1      2.119      4.444
REMARK  Name = 
REMARK  11 active torsions:
REMARK  status: ('A' for Active; 'I' for Inactive)
REMARK    1  A    between atoms: C_1  and  C_2
REMARK    2  A    between atoms: C_2  and  C_3
REMARK    3  A    between atoms: C_3  and  C_4
REMARK    4  A    between atoms: C_4  and  C_5
REMARK    5  A    between atoms: C_5  and  N_6
REMARK    6  A    between atoms: N_6  and  C_7
REMARK    7  A    between atoms: N_6  and  S_24
REMARK    8  A    between atoms: C_11  and  C_12
REMARK    9  A    between atoms: C_12  and  C_13
REMARK   10  A    between atoms: C_13  and  O_15
REMARK   11  A    between atoms: S_24  and  C_27
REMARK                            x       y       z     vdW  Elec       q    Type
REMARK                         _______ _______ _______ _____ _____    ______ ____
ROOT
ATOM      1  C   UNL     1       1.410   7.643  19.464  0.00  0.00    +0.000 C 
ATOM      2  C   UNL     1       1.607   6.640  20.612  0.00  0.00    +0.000 C 
ATOM      3  C   UNL     1       1.629   5.208  20.074  0.00  0.00    +0.000 C 
ATOM      4  C   UNL     1       2.632   5.067  18.973  0.00  0.00    +0.000 A 
ATOM      5  C   UNL     1       3.336   3.961  18.517  0.00  0.00    +0.000 A 
ATOM      6  C   UNL     1       4.215   4.425  17.478  0.00  0.00    +0.000 A 
ATOM      7  C   UNL     1       5.187   3.810  16.660  0.00  0.00    +0.000 A 
ATOM      8  C   UNL     1       5.934   4.585  15.761  0.00  0.00    +0.000 A 
ATOM      9  C   UNL     1       5.730   5.957  15.670  0.00  0.00    +0.000 A 
ATOM     10  C   UNL     1       4.765   6.589  16.455  0.00  0.00    +0.000 A 
ATOM     11  C   UNL     1       4.016   5.800  17.344  0.00  0.00    +0.000 A 
ATOM     12  N   UNL     1       3.019   6.149  18.225  0.00  0.00    +0.000 N 
ATOM     13  C   UNL     1       2.521   7.504  18.405  0.00  0.00    +0.000 C 
ENDROOT
BRANCH   1  14
ATOM     14  N   UNL     1       1.211   9.090  19.943  0.00  0.00    +0.000 NA
BRANCH  14  15
ATOM     15  S   UNL     1       1.161  10.274  18.668  0.00  0.00    +0.000 S 
ATOM     16  O   UNL     1       1.713  11.516  19.158  0.00  0.00    +0.000 OA
ATOM     17  O   UNL     1       1.687   9.633  17.480  0.00  0.00    +0.000 OA
BRANCH  15  18
ATOM     18  C   UNL     1      -0.568  10.571  18.386  0.00  0.00    +0.000 A 
ATOM     19  C   UNL     1      -1.200  11.634  19.036  0.00  0.00    +0.000 A 
ATOM     20  C   UNL     1      -2.566  11.840  18.831  0.00  0.00    +0.000 A 
ATOM     21  C   UNL     1      -3.270  10.994  17.978  0.00  0.00    +0.000 A 
ATOM     22  F   UNL     1      -4.583  11.191  17.793  0.00  0.00    +0.000 F 
ATOM     23  C   UNL     1      -2.638   9.948  17.313  0.00  0.00    +0.000 A 
ATOM     24  C   UNL     1      -1.276   9.733  17.511  0.00  0.00    +0.000 A 
ENDBRANCH  15  18
ENDBRANCH  14  15
BRANCH  14  25
ATOM     25  C   UNL     1       0.087   9.235  20.935  0.00  0.00    +0.000 C 
BRANCH  25  26
ATOM     26  C   UNL     1       0.418  10.107  22.149  0.00  0.00    +0.000 C 
BRANCH  26  27
ATOM     27  C   UNL     1      -0.780  10.407  23.054  0.00  0.00    +0.000 C 
BRANCH  27  29
ATOM     28  C   UNL     1      -2.684  12.048  23.377  0.00  0.00    +0.000 C 
ATOM     29  C   UNL     1      -1.308  11.817  22.776  0.00  0.00    +0.000 C 
ENDBRANCH  27  29
ENDBRANCH  26  27
ENDBRANCH  25  26
ENDBRANCH  14  25
ENDBRANCH   1  14
BRANCH   5  30
ATOM     30  C   UNL     1       3.244   2.560  19.055  0.00  0.00    +0.000 C 
BRANCH  30  31
ATOM     31  C   UNL     1       3.992   2.324  20.350  0.00  0.00    +0.000 C 
ATOM     32  O   UNL     1       5.173   1.994  20.388  0.00  0.00    +0.000 OA
BRANCH  31  33
ATOM     33  O   UNL     1       3.256   2.429  21.480  0.00  0.00    +0.000 OA
ATOM     34  H   UNL     1       2.909   1.570  21.793  0.00  0.00    +0.000 HD
ENDBRANCH  31  33
ENDBRANCH  30  31
ENDBRANCH   5  30
TORSDOF 10
ENDMDL
