MODEL 1
REMARK VINA RESULT:      -6.6      0.000      0.000
REMARK  Name = 
REMARK  6 active torsions:
REMARK  status: ('A' for Active; 'I' for Inactive)
REMARK    1  A    between atoms: C_1  and  N_2
REMARK    2  A    between atoms: C_6  and  C_7
REMARK    3  A    between atoms: C_9  and  C_10
REMARK    4  A    between atoms: N_11  and  C_12
REMARK    5  A    between atoms: C_20  and  C_21
REMARK    6  A    between atoms: N_24  and  C_25
REMARK                            x       y       z     vdW  Elec       q    Type
REMARK                         _______ _______ _______ _____ _____    ______ ____
ROOT
ATOM      1  C   UNL     1      -0.924  12.815  19.584  0.00  0.00    +0.000 A 
ATOM      2  C   UNL     1      -1.753  12.190  18.650  0.00  0.00    +0.000 A 
ATOM      3  C   UNL     1      -1.172  10.983  18.313  0.00  0.00    +0.000 A 
ATOM      4  C   UNL     1      -1.784   9.959  17.415  0.00  0.00    +0.000 C 
ATOM      5  N   UNL     1       0.021  10.842  19.039  0.00  0.00    +0.000 N 
ATOM      6  C   UNL     1       0.191  12.019  19.785  0.00  0.00    +0.000 A 
ATOM      7  C   UNL     1       1.401  12.379  20.591  0.00  0.00    +0.000 C 
ENDROOT
BRANCH   1  13
ATOM      8  C   UNL     1      -5.815  15.431  23.794  0.00  0.00    +0.000 C 
ATOM      9  N   UNL     1      -4.571  15.905  23.240  0.00  0.00    +0.000 NA
ATOM     10  C   UNL     1      -3.636  15.117  22.868  0.00  0.00    +0.000 C 
ATOM     11  S   UNL     1      -2.314  15.798  21.937  0.00  0.00    +0.000 S 
ATOM     12  C   UNL     1      -1.855  14.239  21.362  0.00  0.00    +0.000 C 
ATOM     13  C   UNL     1      -1.158  14.058  20.235  0.00  0.00    +0.000 C 
ATOM     14  C   UNL     1      -2.472  13.193  22.226  0.00  0.00    +0.000 C 
ATOM     15  O   UNL     1      -2.134  12.022  22.249  0.00  0.00    +0.000 OA
ATOM     16  N   UNL     1      -3.459  13.765  23.011  0.00  0.00    +0.000 N 
ATOM     17  C   UNL     1      -4.123  12.946  24.008  0.00  0.00    +0.000 C 
ENDBRANCH   1  13
BRANCH   5  18
ATOM     18  C   UNL     1       0.890   9.699  19.021  0.00  0.00    +0.000 A 
ATOM     19  C   UNL     1       1.670   9.411  17.892  0.00  0.00    +0.000 A 
ATOM     20  C   UNL     1       2.487   8.276  17.855  0.00  0.00    +0.000 A 
ATOM     21  C   UNL     1       2.567   7.441  18.965  0.00  0.00    +0.000 A 
ATOM     22 CL   UNL     1       3.585   6.056  18.922  0.00  0.00    +0.000 Cl
ATOM     23  C   UNL     1       1.823   7.721  20.103  0.00  0.00    +0.000 A 
ATOM     24  C   UNL     1       0.972   8.828  20.116  0.00  0.00    +0.000 A 
ATOM     25  F   UNL     1       0.190   8.977  21.194  0.00  0.00    +0.000 F 
ENDBRANCH   5  18
TORSDOF 2
ENDMDL
MODEL 2
REMARK VINA RESULT:      -6.2      0.970      1.366
REMARK  Name = 
REMARK  6 active torsions:
REMARK  status: ('A' for Active; 'I' for Inactive)
REMARK    1  A    between atoms: C_1  and  N_2
REMARK    2  A    between atoms: C_6  and  C_7
REMARK    3  A    between atoms: C_9  and  C_10
REMARK    4  A    between atoms: N_11  and  C_12
REMARK    5  A    between atoms: C_20  and  C_21
REMARK    6  A    between atoms: N_24  and  C_25
REMARK                            x       y       z     vdW  Elec       q    Type
REMARK                         _______ _______ _______ _____ _____    ______ ____
ROOT
ATOM      1  C   UNL     1      -1.164  12.769  19.867  0.00  0.00    +0.000 A 
ATOM      2  C   UNL     1      -1.979  12.122  18.935  0.00  0.00    +0.000 A 
ATOM      3  C   UNL     1      -1.407  10.895  18.657  0.00  0.00    +0.000 A 
ATOM      4  C   UNL     1      -2.012   9.848  17.781  0.00  0.00    +0.000 C 
ATOM      5  N   UNL     1      -0.236  10.764  19.419  0.00  0.00    +0.000 N 
ATOM      6  C   UNL     1      -0.067  11.964  20.126  0.00  0.00    +0.000 A 
ATOM      7  C   UNL     1       1.127  12.336  20.949  0.00  0.00    +0.000 C 
ENDROOT
BRANCH   1  13
ATOM      8  C   UNL     1      -6.130  15.614  23.833  0.00  0.00    +0.000 C 
ATOM      9  N   UNL     1      -4.863  16.047  23.300  0.00  0.00    +0.000 NA
ATOM     10  C   UNL     1      -3.931  15.232  22.984  0.00  0.00    +0.000 C 
ATOM     11  S   UNL     1      -2.571  15.857  22.069  0.00  0.00    +0.000 S 
ATOM     12  C   UNL     1      -2.123  14.271  21.563  0.00  0.00    +0.000 C 
ATOM     13  C   UNL     1      -1.396  14.037  20.465  0.00  0.00    +0.000 C 
ATOM     14  C   UNL     1      -2.782  13.267  22.446  0.00  0.00    +0.000 C 
ATOM     15  O   UNL     1      -2.465  12.092  22.521  0.00  0.00    +0.000 OA
ATOM     16  N   UNL     1      -3.781  13.882  23.181  0.00  0.00    +0.000 N 
ATOM     17  C   UNL     1      -4.487  13.111  24.186  0.00  0.00    +0.000 C 
ENDBRANCH   1  13
BRANCH   5  18
ATOM     18  C   UNL     1       0.615   9.608  19.466  0.00  0.00    +0.000 A 
ATOM     19  C   UNL     1       0.635   8.781  20.598  0.00  0.00    +0.000 A 
ATOM     20  C   UNL     1       1.493   7.677  20.664  0.00  0.00    +0.000 A 
ATOM     21  C   UNL     1       2.305   7.362  19.580  0.00  0.00    +0.000 A 
ATOM     22 CL   UNL     1       3.345   5.995  19.657  0.00  0.00    +0.000 Cl
ATOM     23  C   UNL     1       2.283   8.153  18.438  0.00  0.00    +0.000 A 
ATOM     24  C   UNL     1       1.462   9.281  18.398  0.00  0.00    +0.000 A 
ATOM     25  F   UNL     1       1.574  10.072  17.321  0.00  0.00    +0.000 F 
ENDBRANCH   5  18
TORSDOF 2
ENDMDL
MODEL 3
REMARK VINA RESULT:      -6.2      4.988      8.958
REMARK  Name = 
REMARK  6 active torsions:
REMARK  status: ('A' for Active; 'I' for Inactive)
REMARK    1  A    between atoms: C_1  and  N_2
REMARK    2  A    between atoms: C_6  and  C_7
REMARK    3  A    between atoms: C_9  and  C_10
REMARK    4  A    between atoms: N_11  and  C_12
REMARK    5  A    between atoms: C_20  and  C_21
REMARK    6  A    between atoms: N_24  and  C_25
REMARK                            x       y       z     vdW  Elec       q    Type
REMARK                         _______ _______ _______ _____ _____    ______ ____
ROOT
ATOM      1  C   UNL     1       1.923   7.952  19.641  0.00  0.00    +0.000 A 
ATOM      2  C   UNL     1       1.534   7.798  20.973  0.00  0.00    +0.000 A 
ATOM      3  C   UNL     1       0.871   8.949  21.354  0.00  0.00    +0.000 A 
ATOM      4  C   UNL     1       0.207   9.157  22.674  0.00  0.00    +0.000 C 
ATOM      5  N   UNL     1       0.835   9.827  20.259  0.00  0.00    +0.000 N 
ATOM      6  C   UNL     1       1.544   9.215  19.215  0.00  0.00    +0.000 A 
ATOM      7  C   UNL     1       1.897   9.848  17.905  0.00  0.00    +0.000 C 
ENDROOT
BRANCH   1  13
ATOM      8  C   UNL     1       4.876   1.726  20.646  0.00  0.00    +0.000 C 
ATOM      9  N   UNL     1       4.640   2.584  19.511  0.00  0.00    +0.000 NA
ATOM     10  C   UNL     1       3.703   3.453  19.484  0.00  0.00    +0.000 C 
ATOM     11  S   UNL     1       3.714   4.630  18.184  0.00  0.00    +0.000 S 
ATOM     12  C   UNL     1       2.664   5.678  19.062  0.00  0.00    +0.000 C 
ATOM     13  C   UNL     1       2.594   6.994  18.833  0.00  0.00    +0.000 C 
ATOM     14  C   UNL     1       2.002   4.911  20.156  0.00  0.00    +0.000 C 
ATOM     15  O   UNL     1       1.021   5.288  20.774  0.00  0.00    +0.000 OA
ATOM     16  N   UNL     1       2.654   3.702  20.333  0.00  0.00    +0.000 N 
ATOM     17  C   UNL     1       2.111   2.747  21.279  0.00  0.00    +0.000 C 
ENDBRANCH   1  13
BRANCH   5  18
ATOM     18  C   UNL     1       0.180  11.105  20.224  0.00  0.00    +0.000 A 
ATOM     19  C   UNL     1       0.761  12.222  20.842  0.00  0.00    +0.000 A 
ATOM     20  C   UNL     1       0.108  13.460  20.846  0.00  0.00    +0.000 A 
ATOM     21  C   UNL     1      -1.112  13.604  20.192  0.00  0.00    +0.000 A 
ATOM     22 CL   UNL     1      -1.904  15.130  20.183  0.00  0.00    +0.000 Cl
ATOM     23  C   UNL     1      -1.692  12.516  19.552  0.00  0.00    +0.000 A 
ATOM     24  C   UNL     1      -1.060  11.273  19.594  0.00  0.00    +0.000 A 
ATOM     25  F   UNL     1      -1.726  10.237  19.065  0.00  0.00    +0.000 F 
ENDBRANCH   5  18
TORSDOF 2
ENDMDL
MODEL 4
REMARK VINA RESULT:      -6.2      1.892      1.945
REMARK  Name = 
REMARK  6 active torsions:
REMARK  status: ('A' for Active; 'I' for Inactive)
REMARK    1  A    between atoms: C_1  and  N_2
REMARK    2  A    between atoms: C_6  and  C_7
REMARK    3  A    between atoms: C_9  and  C_10
REMARK    4  A    between atoms: N_11  and  C_12
REMARK    5  A    between atoms: C_20  and  C_21
REMARK    6  A    between atoms: N_24  and  C_25
REMARK                            x       y       z     vdW  Elec       q    Type
REMARK                         _______ _______ _______ _____ _____    ______ ____
ROOT
ATOM      1  C   UNL     1      -0.254  13.271  18.864  0.00  0.00    +0.000 A 
ATOM      2  C   UNL     1      -1.385  12.550  18.473  0.00  0.00    +0.000 A 
ATOM      3  C   UNL     1      -1.034  11.215  18.415  0.00  0.00    +0.000 A 
ATOM      4  C   UNL     1      -1.977  10.094  18.131  0.00  0.00    +0.000 C 
ATOM      5  N   UNL     1       0.317  11.091  18.777  0.00  0.00    +0.000 N 
ATOM      6  C   UNL     1       0.805  12.388  18.998  0.00  0.00    +0.000 A 
ATOM      7  C   UNL     1       2.234  12.755  19.256  0.00  0.00    +0.000 C 
ENDROOT
BRANCH   1  13
ATOM      8  C   UNL     1      -2.722  17.731  23.607  0.00  0.00    +0.000 C 
ATOM      9  N   UNL     1      -1.865  17.825  22.452  0.00  0.00    +0.000 NA
ATOM     10  C   UNL     1      -1.196  16.832  22.004  0.00  0.00    +0.000 C 
ATOM     11  S   UNL     1      -0.441  16.996  20.430  0.00  0.00    +0.000 S 
ATOM     12  C   UNL     1      -0.286  15.286  20.275  0.00  0.00    +0.000 C 
ATOM     13  C   UNL     1      -0.174  14.671  19.093  0.00  0.00    +0.000 C 
ATOM     14  C   UNL     1      -0.442  14.653  21.616  0.00  0.00    +0.000 C 
ATOM     15  O   UNL     1      -0.126  13.506  21.884  0.00  0.00    +0.000 OA
ATOM     16  N   UNL     1      -0.969  15.575  22.504  0.00  0.00    +0.000 N 
ATOM     17  C   UNL     1      -1.107  15.203  23.899  0.00  0.00    +0.000 C 
ENDBRANCH   1  13
BRANCH   5  18
ATOM     18  C   UNL     1       1.047   9.861  18.902  0.00  0.00    +0.000 A 
ATOM     19  C   UNL     1       1.775   9.348  17.819  0.00  0.00    +0.000 A 
ATOM     20  C   UNL     1       2.454   8.129  17.924  0.00  0.00    +0.000 A 
ATOM     21  C   UNL     1       2.451   7.434  19.129  0.00  0.00    +0.000 A 
ATOM     22 CL   UNL     1       3.301   5.945  19.261  0.00  0.00    +0.000 Cl
ATOM     23  C   UNL     1       1.758   7.937  20.223  0.00  0.00    +0.000 A 
ATOM     24  C   UNL     1       1.041   9.128  20.096  0.00  0.00    +0.000 A 
ATOM     25  F   UNL     1       0.294   9.498  21.146  0.00  0.00    +0.000 F 
ENDBRANCH   5  18
TORSDOF 2
ENDMDL
MODEL 5
REMARK VINA RESULT:      -6.0      4.976      8.933
REMARK  Name = 
REMARK  6 active torsions:
REMARK  status: ('A' for Active; 'I' for Inactive)
REMARK    1  A    between atoms: C_1  and  N_2
REMARK    2  A    between atoms: C_6  and  C_7
REMARK    3  A    between atoms: C_9  and  C_10
REMARK    4  A    between atoms: N_11  and  C_12
REMARK    5  A    between atoms: C_20  and  C_21
REMARK    6  A    between atoms: N_24  and  C_25
REMARK                            x       y       z     vdW  Elec       q    Type
REMARK                         _______ _______ _______ _____ _____    ______ ____
ROOT
ATOM      1  C   UNL     1       1.903   8.063  19.691  0.00  0.00    +0.000 A 
ATOM      2  C   UNL     1       1.602   7.918  21.047  0.00  0.00    +0.000 A 
ATOM      3  C   UNL     1       0.929   9.055  21.452  0.00  0.00    +0.000 A 
ATOM      4  C   UNL     1       0.342   9.265  22.808  0.00  0.00    +0.000 C 
ATOM      5  N   UNL     1       0.798   9.914  20.349  0.00  0.00    +0.000 N 
ATOM      6  C   UNL     1       1.460   9.307  19.272  0.00  0.00    +0.000 A 
ATOM      7  C   UNL     1       1.711   9.929  17.933  0.00  0.00    +0.000 C 
ENDROOT
BRANCH   1  13
ATOM      8  C   UNL     1       4.824   1.800  20.546  0.00  0.00    +0.000 C 
ATOM      9  N   UNL     1       4.574   2.677  19.429  0.00  0.00    +0.000 NA
ATOM     10  C   UNL     1       3.644   3.553  19.433  0.00  0.00    +0.000 C 
ATOM     11  S   UNL     1       3.641   4.750  18.151  0.00  0.00    +0.000 S 
ATOM     12  C   UNL     1       2.615   5.792  19.064  0.00  0.00    +0.000 C 
ATOM     13  C   UNL     1       2.551   7.112  18.856  0.00  0.00    +0.000 C 
ATOM     14  C   UNL     1       1.967   5.014  20.158  0.00  0.00    +0.000 C 
ATOM     15  O   UNL     1       1.001   5.388  20.800  0.00  0.00    +0.000 OA
ATOM     16  N   UNL     1       2.613   3.797  20.305  0.00  0.00    +0.000 N 
ATOM     17  C   UNL     1       2.080   2.832  21.246  0.00  0.00    +0.000 C 
ENDBRANCH   1  13
BRANCH   5  18
ATOM     18  C   UNL     1       0.104  11.171  20.338  0.00  0.00    +0.000 A 
ATOM     19  C   UNL     1      -1.253  11.236  19.988  0.00  0.00    +0.000 A 
ATOM     20  C   UNL     1      -1.922  12.463  19.936  0.00  0.00    +0.000 A 
ATOM     21  C   UNL     1      -1.254  13.635  20.278  0.00  0.00    +0.000 A 
ATOM     22 CL   UNL     1      -2.084  15.140  20.229  0.00  0.00    +0.000 Cl
ATOM     23  C   UNL     1       0.083  13.591  20.651  0.00  0.00    +0.000 A 
ATOM     24  C   UNL     1       0.759  12.369  20.653  0.00  0.00    +0.000 A 
ATOM     25  F   UNL     1       2.075  12.407  20.903  0.00  0.00    +0.000 F 
ENDBRANCH   5  18
TORSDOF 2
ENDMDL
MODEL 6
REMARK VINA RESULT:      -5.9      2.480      3.296
REMARK  Name = 
REMARK  6 active torsions:
REMARK  status: ('A' for Active; 'I' for Inactive)
REMARK    1  A    between atoms: C_1  and  N_2
REMARK    2  A    between atoms: C_6  and  C_7
REMARK    3  A    between atoms: C_9  and  C_10
REMARK    4  A    between atoms: N_11  and  C_12
REMARK    5  A    between atoms: C_20  and  C_21
REMARK    6  A    between atoms: N_24  and  C_25
REMARK                            x       y       z     vdW  Elec       q    Type
REMARK                         _______ _______ _______ _____ _____    ______ ____
ROOT
ATOM      1  C   UNL     1      -1.359  12.507  19.963  0.00  0.00    +0.000 A 
ATOM      2  C   UNL     1      -2.117  11.928  18.943  0.00  0.00    +0.000 A 
ATOM      3  C   UNL     1      -1.433  10.816  18.490  0.00  0.00    +0.000 A 
ATOM      4  C   UNL     1      -1.943   9.855  17.468  0.00  0.00    +0.000 C 
ATOM      5  N   UNL     1      -0.246  10.689  19.229  0.00  0.00    +0.000 N 
ATOM      6  C   UNL     1      -0.186  11.783  20.105  0.00  0.00    +0.000 A 
ATOM      7  C   UNL     1       0.975  12.145  20.978  0.00  0.00    +0.000 C 
ENDROOT
BRANCH   1  13
ATOM      8  C   UNL     1       1.593  18.625  21.497  0.00  0.00    +0.000 C 
ATOM      9  N   UNL     1       0.338  17.982  21.796  0.00  0.00    +0.000 NA
ATOM     10  C   UNL     1      -0.166  17.070  21.056  0.00  0.00    +0.000 C 
ATOM     11  S   UNL     1      -1.528  16.163  21.687  0.00  0.00    +0.000 S 
ATOM     12  C   UNL     1      -1.272  14.896  20.546  0.00  0.00    +0.000 C 
ATOM     13  C   UNL     1      -1.705  13.646  20.740  0.00  0.00    +0.000 C 
ATOM     14  C   UNL     1      -0.403  15.394  19.442  0.00  0.00    +0.000 C 
ATOM     15  O   UNL     1      -0.258  14.839  18.366  0.00  0.00    +0.000 OA
ATOM     16  N   UNL     1       0.183  16.591  19.819  0.00  0.00    +0.000 N 
ATOM     17  C   UNL     1       0.991  17.310  18.852  0.00  0.00    +0.000 C 
ENDBRANCH   1  13
BRANCH   5  18
ATOM     18  C   UNL     1       0.712   9.627  19.109  0.00  0.00    +0.000 A 
ATOM     19  C   UNL     1       1.458   9.467  17.932  0.00  0.00    +0.000 A 
ATOM     20  C   UNL     1       2.364   8.409  17.795  0.00  0.00    +0.000 A 
ATOM     21  C   UNL     1       2.567   7.527  18.851  0.00  0.00    +0.000 A 
ATOM     22 CL   UNL     1       3.693   6.238  18.686  0.00  0.00    +0.000 Cl
ATOM     23  C   UNL     1       1.857   7.682  20.035  0.00  0.00    +0.000 A 
ATOM     24  C   UNL     1       0.919   8.709  20.147  0.00  0.00    +0.000 A 
ATOM     25  F   UNL     1       0.180   8.733  21.265  0.00  0.00    +0.000 F 
ENDBRANCH   5  18
TORSDOF 2
ENDMDL
MODEL 7
REMARK VINA RESULT:      -5.9      1.981      2.660
REMARK  Name = 
REMARK  6 active torsions:
REMARK  status: ('A' for Active; 'I' for Inactive)
REMARK    1  A    between atoms: C_1  and  N_2
REMARK    2  A    between atoms: C_6  and  C_7
REMARK    3  A    between atoms: C_9  and  C_10
REMARK    4  A    between atoms: N_11  and  C_12
REMARK    5  A    between atoms: C_20  and  C_21
REMARK    6  A    between atoms: N_24  and  C_25
REMARK                            x       y       z     vdW  Elec       q    Type
REMARK                         _______ _______ _______ _____ _____    ______ ____
ROOT
ATOM      1  C   UNL     1      -1.766  11.988  19.303  0.00  0.00    +0.000 A 
ATOM      2  C   UNL     1      -0.746  12.695  19.945  0.00  0.00    +0.000 A 
ATOM      3  C   UNL     1       0.378  11.890  19.961  0.00  0.00    +0.000 A 
ATOM      4  C   UNL     1       1.719  12.303  20.470  0.00  0.00    +0.000 C 
ATOM      5  N   UNL     1       0.069  10.678  19.323  0.00  0.00    +0.000 N 
ATOM      6  C   UNL     1      -1.287  10.732  18.969  0.00  0.00    +0.000 A 
ATOM      7  C   UNL     1      -2.091   9.602  18.403  0.00  0.00    +0.000 C 
ENDROOT
BRANCH   1  13
ATOM      8  C   UNL     1      -7.917  11.889  22.566  0.00  0.00    +0.000 C 
ATOM      9  N   UNL     1      -7.414  12.435  21.329  0.00  0.00    +0.000 NA
ATOM     10  C   UNL     1      -6.181  12.717  21.149  0.00  0.00    +0.000 C 
ATOM     11  S   UNL     1      -5.655  13.081  19.516  0.00  0.00    +0.000 S 
ATOM     12  C   UNL     1      -4.008  12.782  19.930  0.00  0.00    +0.000 C 
ATOM     13  C   UNL     1      -3.080  12.453  19.026  0.00  0.00    +0.000 C 
ATOM     14  C   UNL     1      -3.859  12.813  21.414  0.00  0.00    +0.000 C 
ATOM     15  O   UNL     1      -2.796  12.904  22.004  0.00  0.00    +0.000 OA
ATOM     16  N   UNL     1      -5.110  12.754  22.005  0.00  0.00    +0.000 N 
ATOM     17  C   UNL     1      -5.208  12.877  23.447  0.00  0.00    +0.000 C 
ENDBRANCH   1  13
BRANCH   5  18
ATOM     18  C   UNL     1       0.983   9.598  19.077  0.00  0.00    +0.000 A 
ATOM     19  C   UNL     1       1.655   9.497  17.850  0.00  0.00    +0.000 A 
ATOM     20  C   UNL     1       2.516   8.425  17.590  0.00  0.00    +0.000 A 
ATOM     21  C   UNL     1       2.749   7.467  18.572  0.00  0.00    +0.000 A 
ATOM     22 CL   UNL     1       3.820   6.160  18.257  0.00  0.00    +0.000 Cl
ATOM     23  C   UNL     1       2.113   7.562  19.804  0.00  0.00    +0.000 A 
ATOM     24  C   UNL     1       1.218   8.607  20.038  0.00  0.00    +0.000 A 
ATOM     25  F   UNL     1       0.544   8.577  21.197  0.00  0.00    +0.000 F 
ENDBRANCH   5  18
TORSDOF 2
ENDMDL
MODEL 8
REMARK VINA RESULT:      -5.8      4.679      6.946
REMARK  Name = 
REMARK  6 active torsions:
REMARK  status: ('A' for Active; 'I' for Inactive)
REMARK    1  A    between atoms: C_1  and  N_2
REMARK    2  A    between atoms: C_6  and  C_7
REMARK    3  A    between atoms: C_9  and  C_10
REMARK    4  A    between atoms: N_11  and  C_12
REMARK    5  A    between atoms: C_20  and  C_21
REMARK    6  A    between atoms: N_24  and  C_25
REMARK                            x       y       z     vdW  Elec       q    Type
REMARK                         _______ _______ _______ _____ _____    ______ ____
ROOT
ATOM      1  C   UNL     1       1.330  12.807  18.784  0.00  0.00    +0.000 A 
ATOM      2  C   UNL     1       1.321  11.460  19.153  0.00  0.00    +0.000 A 
ATOM      3  C   UNL     1       0.062  11.164  19.638  0.00  0.00    +0.000 A 
ATOM      4  C   UNL     1      -0.400   9.806  20.050  0.00  0.00    +0.000 C 
ATOM      5  N   UNL     1      -0.728  12.323  19.569  0.00  0.00    +0.000 N 
ATOM      6  C   UNL     1       0.094  13.354  19.087  0.00  0.00    +0.000 A 
ATOM      7  C   UNL     1      -0.279  14.801  18.995  0.00  0.00    +0.000 C 
ENDROOT
BRANCH   1  13
ATOM      8  C   UNL     1       5.294  18.254  20.546  0.00  0.00    +0.000 C 
ATOM      9  N   UNL     1       5.244  17.331  19.440  0.00  0.00    +0.000 NA
ATOM     10  C   UNL     1       4.738  16.161  19.538  0.00  0.00    +0.000 C 
ATOM     11  S   UNL     1       4.462  15.262  18.057  0.00  0.00    +0.000 S 
ATOM     12  C   UNL     1       3.351  14.209  18.850  0.00  0.00    +0.000 C 
ATOM     13  C   UNL     1       2.408  13.523  18.195  0.00  0.00    +0.000 C 
ATOM     14  C   UNL     1       3.535  14.317  20.325  0.00  0.00    +0.000 C 
ATOM     15  O   UNL     1       3.099  13.522  21.141  0.00  0.00    +0.000 OA
ATOM     16  N   UNL     1       4.298  15.435  20.615  0.00  0.00    +0.000 N 
ATOM     17  C   UNL     1       4.691  15.678  21.990  0.00  0.00    +0.000 C 
ENDBRANCH   1  13
BRANCH   5  18
ATOM     18  C   UNL     1      -2.117  12.419  19.919  0.00  0.00    +0.000 A 
ATOM     19  C   UNL     1      -2.504  12.821  21.205  0.00  0.00    +0.000 A 
ATOM     20  C   UNL     1      -3.856  12.877  21.562  0.00  0.00    +0.000 A 
ATOM     21  C   UNL     1      -4.836  12.575  20.623  0.00  0.00    +0.000 A 
ATOM     22 CL   UNL     1      -6.497  12.661  21.060  0.00  0.00    +0.000 Cl
ATOM     23  C   UNL     1      -4.476  12.199  19.335  0.00  0.00    +0.000 A 
ATOM     24  C   UNL     1      -3.125  12.098  19.000  0.00  0.00    +0.000 A 
ATOM     25  F   UNL     1      -2.839  11.613  17.783  0.00  0.00    +0.000 F 
ENDBRANCH   5  18
TORSDOF 2
ENDMDL
MODEL 9
REMARK VINA RESULT:      -5.7      3.328      4.447
REMARK  Name = 
REMARK  6 active torsions:
REMARK  status: ('A' for Active; 'I' for Inactive)
REMARK    1  A    between atoms: C_1  and  N_2
REMARK    2  A    between atoms: C_6  and  C_7
REMARK    3  A    between atoms: C_9  and  C_10
REMARK    4  A    between atoms: N_11  and  C_12
REMARK    5  A    between atoms: C_20  and  C_21
REMARK    6  A    between atoms: N_24  and  C_25
REMARK                            x       y       z     vdW  Elec       q    Type
REMARK                         _______ _______ _______ _____ _____    ______ ____
ROOT
ATOM      1  C   UNL     1      -0.310  12.999  19.359  0.00  0.00    +0.000 A 
ATOM      2  C   UNL     1      -1.155  12.399  18.423  0.00  0.00    +0.000 A 
ATOM      3  C   UNL     1      -0.760  11.082  18.282  0.00  0.00    +0.000 A 
ATOM      4  C   UNL     1      -1.462  10.062  17.449  0.00  0.00    +0.000 C 
ATOM      5  N   UNL     1       0.330  10.849  19.136  0.00  0.00    +0.000 N 
ATOM      6  C   UNL     1       0.635  12.069  19.758  0.00  0.00    +0.000 A 
ATOM      7  C   UNL     1       1.820  12.333  20.635  0.00  0.00    +0.000 C 
ENDROOT
BRANCH   1  13
ATOM      8  C   UNL     1       4.242  18.056  20.841  0.00  0.00    +0.000 C 
ATOM      9  N   UNL     1       2.806  17.928  20.846  0.00  0.00    +0.000 NA
ATOM     10  C   UNL     1       2.185  17.076  20.122  0.00  0.00    +0.000 C 
ATOM     11  S   UNL     1       0.481  16.814  20.446  0.00  0.00    +0.000 S 
ATOM     12  C   UNL     1       0.508  15.306  19.612  0.00  0.00    +0.000 C 
ATOM     13  C   UNL     1      -0.383  14.335  19.840  0.00  0.00    +0.000 C 
ATOM     14  C   UNL     1       1.724  15.238  18.752  0.00  0.00    +0.000 C 
ATOM     15  O   UNL     1       1.895  14.435  17.851  0.00  0.00    +0.000 OA
ATOM     16  N   UNL     1       2.605  16.242  19.117  0.00  0.00    +0.000 N 
ATOM     17  C   UNL     1       3.814  16.429  18.340  0.00  0.00    +0.000 C 
ENDBRANCH   1  13
BRANCH   5  18
ATOM     18  C   UNL     1       0.992   9.590  19.333  0.00  0.00    +0.000 A 
ATOM     19  C   UNL     1       1.788   9.035  18.320  0.00  0.00    +0.000 A 
ATOM     20  C   UNL     1       2.402   7.789  18.493  0.00  0.00    +0.000 A 
ATOM     21  C   UNL     1       2.264   7.107  19.697  0.00  0.00    +0.000 A 
ATOM     22 CL   UNL     1       3.034   5.585  19.913  0.00  0.00    +0.000 Cl
ATOM     23  C   UNL     1       1.501   7.651  20.723  0.00  0.00    +0.000 A 
ATOM     24  C   UNL     1       0.851   8.870  20.527  0.00  0.00    +0.000 A 
ATOM     25  F   UNL     1       0.032   9.283  21.505  0.00  0.00    +0.000 F 
ENDBRANCH   5  18
TORSDOF 2
ENDMDL
