MODEL 1
REMARK VINA RESULT:      -7.6      0.000      0.000
REMARK  Name = 
REMARK  3 active torsions:
REMARK  status: ('A' for Active; 'I' for Inactive)
REMARK    1  A    between atoms: C_2  and  C_3
REMARK    2  A    between atoms: N_6  and  C_7
REMARK    3  A    between atoms: C_12  and  C_13
REMARK                            x       y       z     vdW  Elec       q    Type
REMARK                         _______ _______ _______ _____ _____    ______ ____
ROOT
ATOM      1  C   UNL     1       5.518   5.545  16.004  0.00  0.00    +0.000 C 
ATOM      2  C   UNL     1       5.770   6.114  17.407  0.00  0.00    +0.000 C 
ATOM      3  C   UNL     1       5.694   5.063  18.517  0.00  0.00    +0.000 C 
ATOM      4  N   UNL     1       4.435   4.323  18.387  0.00  0.00    +0.000 N 
ATOM      5  C   UNL     1       4.318   3.588  17.128  0.00  0.00    +0.000 C 
ATOM      6  C   UNL     1       4.318   4.598  15.980  0.00  0.00    +0.000 C 
ENDROOT
BRANCH   1   8
ATOM      7  O   UNL     1       7.796   4.736  16.035  0.00  0.00    +0.000 OA
ATOM      8  C   UNL     1       6.747   4.872  15.419  0.00  0.00    +0.000 C 
ATOM      9  N   UNL     1       6.599   4.433  14.137  0.00  0.00    +0.000 N 
ATOM     10  C   UNL     1       7.485   3.589  13.363  0.00  0.00    +0.000 C 
ATOM     11  C   UNL     1       6.439   3.718  12.238  0.00  0.00    +0.000 C 
ATOM     12  F   UNL     1       6.176   2.599  11.527  0.00  0.00    +0.000 F 
ATOM     13  F   UNL     1       6.658   4.709  11.337  0.00  0.00    +0.000 F 
ATOM     14  C   UNL     1       5.432   4.064  13.359  0.00  0.00    +0.000 C 
ENDBRANCH   1   8
BRANCH   4  15
ATOM     15  C   UNL     1       3.628   4.043  19.488  0.00  0.00    +0.000 A 
ATOM     16  C   UNL     1       3.753   2.794  20.136  0.00  0.00    +0.000 A 
ATOM     17  N   UNL     1       3.103   2.372  21.249  0.00  0.00    +0.000 NA
ATOM     18  C   UNL     1       2.255   3.249  21.793  0.00  0.00    +0.000 A 
ATOM     19  C   UNL     1       2.015   4.501  21.257  0.00  0.00    +0.000 A 
ATOM     20  C   UNL     1       2.673   4.930  20.075  0.00  0.00    +0.000 A 
BRANCH  20  21
ATOM     21  C   UNL     1       2.291   6.279  19.565  0.00  0.00    +0.000 A 
ATOM     22  C   UNL     1       2.409   6.621  18.212  0.00  0.00    +0.000 A 
ATOM     23  C   UNL     1       2.162   7.932  17.797  0.00  0.00    +0.000 A 
ATOM     24  C   UNL     1       1.823   8.889  18.737  0.00  0.00    +0.000 A 
ATOM     25  C   UNL     1       1.662   8.468  20.039  0.00  0.00    +0.000 A 
ATOM     26  N   UNL     1       1.845   7.190  20.456  0.00  0.00    +0.000 NA
ENDBRANCH  20  21
ENDBRANCH   4  15
TORSDOF 3
ENDMDL
MODEL 2
REMARK VINA RESULT:      -7.6      1.700      3.765
REMARK  Name = 
REMARK  3 active torsions:
REMARK  status: ('A' for Active; 'I' for Inactive)
REMARK    1  A    between atoms: C_2  and  C_3
REMARK    2  A    between atoms: N_6  and  C_7
REMARK    3  A    between atoms: C_12  and  C_13
REMARK                            x       y       z     vdW  Elec       q    Type
REMARK                         _______ _______ _______ _____ _____    ______ ____
ROOT
ATOM      1  C   UNL     1       6.973   4.512  15.763  0.00  0.00    +0.000 C 
ATOM      2  C   UNL     1       5.577   3.893  15.921  0.00  0.00    +0.000 C 
ATOM      3  C   UNL     1       4.445   4.924  15.913  0.00  0.00    +0.000 C 
ATOM      4  N   UNL     1       4.749   5.973  16.889  0.00  0.00    +0.000 N 
ATOM      5  C   UNL     1       5.973   6.716  16.586  0.00  0.00    +0.000 C 
ATOM      6  C   UNL     1       7.152   5.746  16.648  0.00  0.00    +0.000 C 
ENDROOT
BRANCH   1   8
ATOM      7  O   UNL     1       8.132   5.678  13.989  0.00  0.00    +0.000 OA
ATOM      8  C   UNL     1       7.307   4.834  14.317  0.00  0.00    +0.000 C 
ATOM      9  N   UNL     1       6.607   4.113  13.398  0.00  0.00    +0.000 N 
ATOM     10  C   UNL     1       6.815   4.027  11.967  0.00  0.00    +0.000 C 
ATOM     11  C   UNL     1       5.624   3.047  11.968  0.00  0.00    +0.000 C 
ATOM     12  F   UNL     1       5.734   1.964  11.167  0.00  0.00    +0.000 F 
ATOM     13  F   UNL     1       4.408   3.594  11.719  0.00  0.00    +0.000 F 
ATOM     14  C   UNL     1       5.947   2.823  13.464  0.00  0.00    +0.000 C 
ENDBRANCH   1   8
BRANCH   4  15
ATOM     15  C   UNL     1       3.789   6.456  17.775  0.00  0.00    +0.000 A 
ATOM     16  C   UNL     1       3.498   7.839  17.793  0.00  0.00    +0.000 A 
ATOM     17  N   UNL     1       2.559   8.477  18.536  0.00  0.00    +0.000 NA
ATOM     18  C   UNL     1       1.823   7.698  19.334  0.00  0.00    +0.000 A 
ATOM     19  C   UNL     1       2.009   6.331  19.436  0.00  0.00    +0.000 A 
ATOM     20  C   UNL     1       3.012   5.670  18.682  0.00  0.00    +0.000 A 
BRANCH  20  21
ATOM     21  C   UNL     1       3.151   4.203  18.919  0.00  0.00    +0.000 A 
ATOM     22  C   UNL     1       4.211   3.668  19.662  0.00  0.00    +0.000 A 
ATOM     23  C   UNL     1       4.374   2.284  19.753  0.00  0.00    +0.000 A 
ATOM     24  C   UNL     1       3.494   1.451  19.084  0.00  0.00    +0.000 A 
ATOM     25  C   UNL     1       2.438   2.044  18.427  0.00  0.00    +0.000 A 
ATOM     26  N   UNL     1       2.230   3.383  18.370  0.00  0.00    +0.000 NA
ENDBRANCH  20  21
ENDBRANCH   4  15
TORSDOF 3
ENDMDL
MODEL 3
REMARK VINA RESULT:      -7.5      4.950      8.092
REMARK  Name = 
REMARK  3 active torsions:
REMARK  status: ('A' for Active; 'I' for Inactive)
REMARK    1  A    between atoms: C_2  and  C_3
REMARK    2  A    between atoms: N_6  and  C_7
REMARK    3  A    between atoms: C_12  and  C_13
REMARK                            x       y       z     vdW  Elec       q    Type
REMARK                         _______ _______ _______ _____ _____    ______ ____
ROOT
ATOM      1  C   UNL     1       0.987   8.137  19.237  0.00  0.00    +0.000 C 
ATOM      2  C   UNL     1       1.793   7.020  19.915  0.00  0.00    +0.000 C 
ATOM      3  C   UNL     1       3.271   7.002  19.517  0.00  0.00    +0.000 C 
ATOM      4  N   UNL     1       3.370   7.009  18.055  0.00  0.00    +0.000 N 
ATOM      5  C   UNL     1       2.801   8.208  17.437  0.00  0.00    +0.000 C 
ATOM      6  C   UNL     1       1.304   8.242  17.745  0.00  0.00    +0.000 C 
ENDROOT
BRANCH   1   8
ATOM      7  O   UNL     1       1.807  10.404  19.435  0.00  0.00    +0.000 OA
ATOM      8  C   UNL     1       1.165   9.481  19.920  0.00  0.00    +0.000 C 
ATOM      9  N   UNL     1       0.557   9.586  21.136  0.00  0.00    +0.000 N 
ATOM     10  C   UNL     1       0.362  10.767  21.951  0.00  0.00    +0.000 C 
ATOM     11  C   UNL     1      -0.354   9.826  22.940  0.00  0.00    +0.000 C 
ATOM     12  F   UNL     1      -1.475  10.306  23.525  0.00  0.00    +0.000 F 
ATOM     13  F   UNL     1       0.415   9.315  23.934  0.00  0.00    +0.000 F 
ATOM     14  C   UNL     1      -0.568   8.888  21.729  0.00  0.00    +0.000 C 
ENDBRANCH   1   8
BRANCH   4  15
ATOM     15  C   UNL     1       4.243   6.165  17.371  0.00  0.00    +0.000 A 
ATOM     16  C   UNL     1       5.233   6.727  16.533  0.00  0.00    +0.000 A 
ATOM     17  N   UNL     1       6.201   6.073  15.845  0.00  0.00    +0.000 NA
ATOM     18  C   UNL     1       6.217   4.745  15.988  0.00  0.00    +0.000 A 
ATOM     19  C   UNL     1       5.298   4.056  16.758  0.00  0.00    +0.000 A 
ATOM     20  C   UNL     1       4.267   4.738  17.453  0.00  0.00    +0.000 A 
BRANCH  20  21
ATOM     21  C   UNL     1       3.305   3.882  18.207  0.00  0.00    +0.000 A 
ATOM     22  C   UNL     1       1.994   3.670  17.762  0.00  0.00    +0.000 A 
ATOM     23  C   UNL     1       1.089   2.967  18.560  0.00  0.00    +0.000 A 
ATOM     24  C   UNL     1       1.494   2.504  19.800  0.00  0.00    +0.000 A 
ATOM     25  C   UNL     1       2.814   2.692  20.144  0.00  0.00    +0.000 A 
ATOM     26  N   UNL     1       3.724   3.324  19.363  0.00  0.00    +0.000 NA
ENDBRANCH  20  21
ENDBRANCH   4  15
TORSDOF 3
ENDMDL
MODEL 4
REMARK VINA RESULT:      -7.5      3.835      7.105
REMARK  Name = 
REMARK  3 active torsions:
REMARK  status: ('A' for Active; 'I' for Inactive)
REMARK    1  A    between atoms: C_2  and  C_3
REMARK    2  A    between atoms: N_6  and  C_7
REMARK    3  A    between atoms: C_12  and  C_13
REMARK                            x       y       z     vdW  Elec       q    Type
REMARK                         _______ _______ _______ _____ _____    ______ ____
ROOT
ATOM      1  C   UNL     1       1.873   5.170  18.244  0.00  0.00    +0.000 C 
ATOM      2  C   UNL     1       2.391   3.805  17.768  0.00  0.00    +0.000 C 
ATOM      3  C   UNL     1       3.912   3.748  17.609  0.00  0.00    +0.000 C 
ATOM      4  N   UNL     1       4.347   4.876  16.780  0.00  0.00    +0.000 N 
ATOM      5  C   UNL     1       4.053   6.182  17.371  0.00  0.00    +0.000 C 
ATOM      6  C   UNL     1       2.536   6.324  17.490  0.00  0.00    +0.000 C 
ENDROOT
BRANCH   1   8
ATOM      7  O   UNL     1       2.065   6.454  20.284  0.00  0.00    +0.000 OA
ATOM      8  C   UNL     1       2.014   5.356  19.744  0.00  0.00    +0.000 C 
ATOM      9  N   UNL     1       2.091   4.196  20.456  0.00  0.00    +0.000 N 
ATOM     10  C   UNL     1       2.031   4.011  21.891  0.00  0.00    +0.000 C 
ATOM     11  C   UNL     1       2.174   2.506  21.587  0.00  0.00    +0.000 C 
ATOM     12  F   UNL     1       1.414   1.666  22.326  0.00  0.00    +0.000 F 
ATOM     13  F   UNL     1       3.438   2.014  21.615  0.00  0.00    +0.000 F 
ATOM     14  C   UNL     1       1.636   2.848  20.178  0.00  0.00    +0.000 C 
ENDBRANCH   1   8
BRANCH   4  15
ATOM     15  C   UNL     1       5.270   4.719  15.749  0.00  0.00    +0.000 A 
ATOM     16  C   UNL     1       4.881   4.044  14.570  0.00  0.00    +0.000 A 
ATOM     17  N   UNL     1       5.617   3.852  13.447  0.00  0.00    +0.000 NA
ATOM     18  C   UNL     1       6.847   4.372  13.463  0.00  0.00    +0.000 A 
ATOM     19  C   UNL     1       7.371   5.040  14.555  0.00  0.00    +0.000 A 
ATOM     20  C   UNL     1       6.612   5.214  15.740  0.00  0.00    +0.000 A 
BRANCH  20  21
ATOM     21  C   UNL     1       7.304   5.904  16.867  0.00  0.00    +0.000 A 
ATOM     22  C   UNL     1       7.612   5.245  18.064  0.00  0.00    +0.000 A 
ATOM     23  C   UNL     1       8.145   5.960  19.140  0.00  0.00    +0.000 A 
ATOM     24  C   UNL     1       8.343   7.323  19.018  0.00  0.00    +0.000 A 
ATOM     25  C   UNL     1       8.079   7.893  17.792  0.00  0.00    +0.000 A 
ATOM     26  N   UNL     1       7.611   7.210  16.717  0.00  0.00    +0.000 NA
ENDBRANCH  20  21
ENDBRANCH   4  15
TORSDOF 3
ENDMDL
MODEL 5
REMARK VINA RESULT:      -7.2      5.190      7.736
REMARK  Name = 
REMARK  3 active torsions:
REMARK  status: ('A' for Active; 'I' for Inactive)
REMARK    1  A    between atoms: C_2  and  C_3
REMARK    2  A    between atoms: N_6  and  C_7
REMARK    3  A    between atoms: C_12  and  C_13
REMARK                            x       y       z     vdW  Elec       q    Type
REMARK                         _______ _______ _______ _____ _____    ______ ____
ROOT
ATOM      1  C   UNL     1       2.208   8.826  19.256  0.00  0.00    +0.000 C 
ATOM      2  C   UNL     1       2.764   8.286  17.931  0.00  0.00    +0.000 C 
ATOM      3  C   UNL     1       2.142   6.955  17.502  0.00  0.00    +0.000 C 
ATOM      4  N   UNL     1       2.226   6.008  18.618  0.00  0.00    +0.000 N 
ATOM      5  C   UNL     1       1.484   6.436  19.803  0.00  0.00    +0.000 C 
ATOM      6  C   UNL     1       2.109   7.732  20.319  0.00  0.00    +0.000 C 
ENDROOT
BRANCH   1   8
ATOM      7  O   UNL     1       0.214   9.480  18.053  0.00  0.00    +0.000 OA
ATOM      8  C   UNL     1       0.874   9.531  19.083  0.00  0.00    +0.000 C 
ATOM      9  N   UNL     1       0.463  10.244  20.169  0.00  0.00    +0.000 N 
ATOM     10  C   UNL     1      -0.826  10.859  20.412  0.00  0.00    +0.000 C 
ATOM     11  C   UNL     1      -0.233  11.299  21.766  0.00  0.00    +0.000 C 
ATOM     12  F   UNL     1      -1.051  11.213  22.838  0.00  0.00    +0.000 F 
ATOM     13  F   UNL     1       0.321  12.537  21.795  0.00  0.00    +0.000 F 
ATOM     14  C   UNL     1       0.771  10.136  21.582  0.00  0.00    +0.000 C 
ENDBRANCH   1   8
BRANCH   4  15
ATOM     15  C   UNL     1       2.638   4.690  18.435  0.00  0.00    +0.000 A 
ATOM     16  C   UNL     1       1.668   3.661  18.404  0.00  0.00    +0.000 A 
ATOM     17  N   UNL     1       1.872   2.340  18.176  0.00  0.00    +0.000 NA
ATOM     18  C   UNL     1       3.138   1.980  17.949  0.00  0.00    +0.000 A 
ATOM     19  C   UNL     1       4.194   2.873  17.969  0.00  0.00    +0.000 A 
ATOM     20  C   UNL     1       3.983   4.250  18.238  0.00  0.00    +0.000 A 
BRANCH  20  21
ATOM     21  C   UNL     1       5.206   5.103  18.285  0.00  0.00    +0.000 A 
ATOM     22  C   UNL     1       5.545   5.972  17.241  0.00  0.00    +0.000 A 
ATOM     23  C   UNL     1       6.762   6.658  17.268  0.00  0.00    +0.000 A 
ATOM     24  C   UNL     1       7.634   6.453  18.323  0.00  0.00    +0.000 A 
ATOM     25  C   UNL     1       7.207   5.636  19.346  0.00  0.00    +0.000 A 
ATOM     26  N   UNL     1       6.008   5.002  19.367  0.00  0.00    +0.000 NA
ENDBRANCH  20  21
ENDBRANCH   4  15
TORSDOF 3
ENDMDL
MODEL 6
REMARK VINA RESULT:      -7.1      9.086     10.637
REMARK  Name = 
REMARK  3 active torsions:
REMARK  status: ('A' for Active; 'I' for Inactive)
REMARK    1  A    between atoms: C_2  and  C_3
REMARK    2  A    between atoms: N_6  and  C_7
REMARK    3  A    between atoms: C_12  and  C_13
REMARK                            x       y       z     vdW  Elec       q    Type
REMARK                         _______ _______ _______ _____ _____    ______ ____
ROOT
ATOM      1  C   UNL     1       0.858  12.360  19.364  0.00  0.00    +0.000 C 
ATOM      2  C   UNL     1      -0.134  13.248  18.600  0.00  0.00    +0.000 C 
ATOM      3  C   UNL     1      -1.277  13.777  19.469  0.00  0.00    +0.000 C 
ATOM      4  N   UNL     1      -1.900  12.653  20.174  0.00  0.00    +0.000 N 
ATOM      5  C   UNL     1      -0.989  11.960  21.085  0.00  0.00    +0.000 C 
ATOM      6  C   UNL     1       0.143  11.348  20.260  0.00  0.00    +0.000 C 
ENDROOT
BRANCH   1   8
ATOM      7  O   UNL     1       1.891  13.192  21.386  0.00  0.00    +0.000 OA
ATOM      8  C   UNL     1       1.868  13.166  20.162  0.00  0.00    +0.000 C 
ATOM      9  N   UNL     1       2.752  13.877  19.407  0.00  0.00    +0.000 N 
ATOM     10  C   UNL     1       3.945  14.579  19.833  0.00  0.00    +0.000 C 
ATOM     11  C   UNL     1       4.128  14.936  18.344  0.00  0.00    +0.000 C 
ATOM     12  F   UNL     1       5.390  14.881  17.862  0.00  0.00    +0.000 F 
ATOM     13  F   UNL     1       3.613  16.128  17.953  0.00  0.00    +0.000 F 
ATOM     14  C   UNL     1       3.235  13.708  18.050  0.00  0.00    +0.000 C 
ENDBRANCH   1   8
BRANCH   4  15
ATOM     15  C   UNL     1      -3.283  12.509  20.256  0.00  0.00    +0.000 A 
ATOM     16  C   UNL     1      -3.963  13.003  21.392  0.00  0.00    +0.000 A 
ATOM     17  N   UNL     1      -5.300  13.010  21.617  0.00  0.00    +0.000 NA
ATOM     18  C   UNL     1      -6.055  12.495  20.642  0.00  0.00    +0.000 A 
ATOM     19  C   UNL     1      -5.527  11.956  19.482  0.00  0.00    +0.000 A 
ATOM     20  C   UNL     1      -4.126  11.922  19.262  0.00  0.00    +0.000 A 
BRANCH  20  21
ATOM     21  C   UNL     1      -3.677  11.268  17.998  0.00  0.00    +0.000 A 
ATOM     22  C   UNL     1      -2.612  10.359  17.972  0.00  0.00    +0.000 A 
ATOM     23  C   UNL     1      -2.142   9.868  16.751  0.00  0.00    +0.000 A 
ATOM     24  C   UNL     1      -2.722  10.304  15.574  0.00  0.00    +0.000 A 
ATOM     25  C   UNL     1      -3.807  11.147  15.679  0.00  0.00    +0.000 A 
ATOM     26  N   UNL     1      -4.314  11.596  16.854  0.00  0.00    +0.000 NA
ENDBRANCH  20  21
ENDBRANCH   4  15
TORSDOF 3
ENDMDL
MODEL 7
REMARK VINA RESULT:      -7.1      8.913     11.878
REMARK  Name = 
REMARK  3 active torsions:
REMARK  status: ('A' for Active; 'I' for Inactive)
REMARK    1  A    between atoms: C_2  and  C_3
REMARK    2  A    between atoms: N_6  and  C_7
REMARK    3  A    between atoms: C_12  and  C_13
REMARK                            x       y       z     vdW  Elec       q    Type
REMARK                         _______ _______ _______ _____ _____    ______ ____
ROOT
ATOM      1  C   UNL     1       5.144  15.854  19.146  0.00  0.00    +0.000 C 
ATOM      2  C   UNL     1       5.579  15.243  17.806  0.00  0.00    +0.000 C 
ATOM      3  C   UNL     1       6.868  14.423  17.897  0.00  0.00    +0.000 C 
ATOM      4  N   UNL     1       7.902  15.230  18.551  0.00  0.00    +0.000 N 
ATOM      5  C   UNL     1       7.566  15.605  19.925  0.00  0.00    +0.000 C 
ATOM      6  C   UNL     1       6.319  16.488  19.891  0.00  0.00    +0.000 C 
ENDROOT
BRANCH   1   8
ATOM      7  O   UNL     1       4.705  14.672  21.209  0.00  0.00    +0.000 OA
ATOM      8  C   UNL     1       4.420  14.857  20.033  0.00  0.00    +0.000 C 
ATOM      9  N   UNL     1       3.422  14.165  19.414  0.00  0.00    +0.000 N 
ATOM     10  C   UNL     1       2.421  13.300  20.004  0.00  0.00    +0.000 C 
ATOM     11  C   UNL     1       1.894  13.120  18.566  0.00  0.00    +0.000 C 
ATOM     12  F   UNL     1       0.551  13.111  18.413  0.00  0.00    +0.000 F 
ATOM     13  F   UNL     1       2.371  12.044  17.891  0.00  0.00    +0.000 F 
ATOM     14  C   UNL     1       2.605  14.458  18.252  0.00  0.00    +0.000 C 
ENDBRANCH   1   8
BRANCH   4  15
ATOM     15  C   UNL     1       9.204  15.298  18.060  0.00  0.00    +0.000 A 
ATOM     16  C   UNL     1       9.647  16.489  17.441  0.00  0.00    +0.000 A 
ATOM     17  N   UNL     1      10.887  16.760  16.963  0.00  0.00    +0.000 NA
ATOM     18  C   UNL     1      11.789  15.786  17.107  0.00  0.00    +0.000 A 
ATOM     19  C   UNL     1      11.494  14.560  17.675  0.00  0.00    +0.000 A 
ATOM     20  C   UNL     1      10.189  14.266  18.146  0.00  0.00    +0.000 A 
BRANCH  20  21
ATOM     21  C   UNL     1       9.981  12.892  18.689  0.00  0.00    +0.000 A 
ATOM     22  C   UNL     1       9.563  11.829  17.879  0.00  0.00    +0.000 A 
ATOM     23  C   UNL     1       9.258  10.591  18.450  0.00  0.00    +0.000 A 
ATOM     24  C   UNL     1       9.352  10.434  19.821  0.00  0.00    +0.000 A 
ATOM     25  C   UNL     1       9.831  11.501  20.548  0.00  0.00    +0.000 A 
ATOM     26  N   UNL     1      10.184  12.695  20.010  0.00  0.00    +0.000 NA
ENDBRANCH  20  21
ENDBRANCH   4  15
TORSDOF 3
ENDMDL
MODEL 8
REMARK VINA RESULT:      -7.0      4.643      7.250
REMARK  Name = 
REMARK  3 active torsions:
REMARK  status: ('A' for Active; 'I' for Inactive)
REMARK    1  A    between atoms: C_2  and  C_3
REMARK    2  A    between atoms: N_6  and  C_7
REMARK    3  A    between atoms: C_12  and  C_13
REMARK                            x       y       z     vdW  Elec       q    Type
REMARK                         _______ _______ _______ _____ _____    ______ ____
ROOT
ATOM      1  C   UNL     1       1.960   8.381  20.131  0.00  0.00    +0.000 C 
ATOM      2  C   UNL     1       2.145   8.037  18.646  0.00  0.00    +0.000 C 
ATOM      3  C   UNL     1       1.568   6.675  18.256  0.00  0.00    +0.000 C 
ATOM      4  N   UNL     1       2.085   5.657  19.175  0.00  0.00    +0.000 N 
ATOM      5  C   UNL     1       1.695   5.876  20.568  0.00  0.00    +0.000 C 
ATOM      6  C   UNL     1       2.305   7.197  21.035  0.00  0.00    +0.000 C 
ENDROOT
BRANCH   1   8
ATOM      7  O   UNL     1      -0.126   8.477  21.351  0.00  0.00    +0.000 OA
ATOM      8  C   UNL     1       0.570   8.907  20.439  0.00  0.00    +0.000 C 
ATOM      9  N   UNL     1       0.141   9.900  19.610  0.00  0.00    +0.000 N 
ATOM     10  C   UNL     1      -1.028  10.745  19.740  0.00  0.00    +0.000 C 
ATOM     11  C   UNL     1      -0.552  11.410  18.433  0.00  0.00    +0.000 C 
ATOM     12  F   UNL     1      -0.666  12.755  18.365  0.00  0.00    +0.000 F 
ATOM     13  F   UNL     1      -1.086  10.915  17.289  0.00  0.00    +0.000 F 
ATOM     14  C   UNL     1       0.850  10.864  18.792  0.00  0.00    +0.000 C 
ENDBRANCH   1   8
BRANCH   4  15
ATOM     15  C   UNL     1       2.560   4.428  18.721  0.00  0.00    +0.000 A 
ATOM     16  C   UNL     1       1.683   3.321  18.678  0.00  0.00    +0.000 A 
ATOM     17  N   UNL     1       1.947   2.075  18.213  0.00  0.00    +0.000 NA
ATOM     18  C   UNL     1       3.179   1.884  17.735  0.00  0.00    +0.000 A 
ATOM     19  C   UNL     1       4.150   2.868  17.732  0.00  0.00    +0.000 A 
ATOM     20  C   UNL     1       3.883   4.163  18.247  0.00  0.00    +0.000 A 
BRANCH  20  21
ATOM     21  C   UNL     1       5.025   5.122  18.238  0.00  0.00    +0.000 A 
ATOM     22  C   UNL     1       5.110   6.166  17.309  0.00  0.00    +0.000 A 
ATOM     23  C   UNL     1       6.257   6.963  17.254  0.00  0.00    +0.000 A 
ATOM     24  C   UNL     1       7.311   6.695  18.108  0.00  0.00    +0.000 A 
ATOM     25  C   UNL     1       7.133   5.696  19.039  0.00  0.00    +0.000 A 
ATOM     26  N   UNL     1       6.008   4.945  19.146  0.00  0.00    +0.000 NA
ENDBRANCH  20  21
ENDBRANCH   4  15
TORSDOF 3
ENDMDL
MODEL 9
REMARK VINA RESULT:      -7.0      4.551      7.679
REMARK  Name = 
REMARK  3 active torsions:
REMARK  status: ('A' for Active; 'I' for Inactive)
REMARK    1  A    between atoms: C_2  and  C_3
REMARK    2  A    between atoms: N_6  and  C_7
REMARK    3  A    between atoms: C_12  and  C_13
REMARK                            x       y       z     vdW  Elec       q    Type
REMARK                         _______ _______ _______ _____ _____    ______ ____
ROOT
ATOM      1  C   UNL     1       1.270   7.666  19.166  0.00  0.00    +0.000 C 
ATOM      2  C   UNL     1       1.913   6.352  19.630  0.00  0.00    +0.000 C 
ATOM      3  C   UNL     1       3.435   6.326  19.474  0.00  0.00    +0.000 C 
ATOM      4  N   UNL     1       3.780   6.711  18.103  0.00  0.00    +0.000 N 
ATOM      5  C   UNL     1       3.363   8.070  17.755  0.00  0.00    +0.000 C 
ATOM      6  C   UNL     1       1.838   8.136  17.827  0.00  0.00    +0.000 C 
ENDROOT
BRANCH   1   8
ATOM      7  O   UNL     1       2.020   8.653  21.242  0.00  0.00    +0.000 OA
ATOM      8  C   UNL     1       1.372   8.765  20.210  0.00  0.00    +0.000 C 
ATOM      9  N   UNL     1       0.673   9.897  19.914  0.00  0.00    +0.000 N 
ATOM     10  C   UNL     1       0.712  11.183  20.579  0.00  0.00    +0.000 C 
ATOM     11  C   UNL     1      -0.318  11.631  19.523  0.00  0.00    +0.000 C 
ATOM     12  F   UNL     1      -0.154  12.872  19.011  0.00  0.00    +0.000 F 
ATOM     13  F   UNL     1      -1.621  11.527  19.884  0.00  0.00    +0.000 F 
ATOM     14  C   UNL     1       0.218  10.465  18.660  0.00  0.00    +0.000 C 
ENDBRANCH   1   8
BRANCH   4  15
ATOM     15  C   UNL     1       4.729   6.013  17.358  0.00  0.00    +0.000 A 
ATOM     16  C   UNL     1       5.705   6.733  16.632  0.00  0.00    +0.000 A 
ATOM     17  N   UNL     1       6.735   6.229  15.908  0.00  0.00    +0.000 NA
ATOM     18  C   UNL     1       6.835   4.897  15.892  0.00  0.00    +0.000 A 
ATOM     19  C   UNL     1       5.941   4.064  16.538  0.00  0.00    +0.000 A 
ATOM     20  C   UNL     1       4.846   4.591  17.270  0.00  0.00    +0.000 A 
BRANCH  20  21
ATOM     21  C   UNL     1       3.920   3.591  17.877  0.00  0.00    +0.000 A 
ATOM     22  C   UNL     1       2.653   3.330  17.341  0.00  0.00    +0.000 A 
ATOM     23  C   UNL     1       1.770   2.481  18.012  0.00  0.00    +0.000 A 
ATOM     24  C   UNL     1       2.150   1.921  19.219  0.00  0.00    +0.000 A 
ATOM     25  C   UNL     1       3.434   2.169  19.654  0.00  0.00    +0.000 A 
ATOM     26  N   UNL     1       4.327   2.947  18.992  0.00  0.00    +0.000 NA
ENDBRANCH  20  21
ENDBRANCH   4  15
TORSDOF 3
ENDMDL
