MODEL 1
REMARK VINA RESULT:      -7.5      0.000      0.000
REMARK  Name = 
REMARK  8 active torsions:
REMARK  status: ('A' for Active; 'I' for Inactive)
REMARK    1  A    between atoms: C_1  and  O_2
REMARK    2  A    between atoms: O_2  and  C_3
REMARK    3  A    between atoms: C_3  and  C_4
REMARK    4  A    between atoms: C_4  and  N_5
REMARK    5  A    between atoms: C_9  and  C_10
REMARK    6  A    between atoms: C_13  and  C_14
REMARK    7  A    between atoms: C_15  and  C_16
REMARK    8  A    between atoms: C_17  and  C_18
REMARK                            x       y       z     vdW  Elec       q    Type
REMARK                         _______ _______ _______ _____ _____    ______ ____
ROOT
ATOM      1  N   UNL     1       6.703   5.021  14.677  0.00  0.00    +0.000 N 
ATOM      2  C   UNL     1       5.702   5.392  15.552  0.00  0.00    +0.000 A 
ATOM      3  N   UNL     1       5.513   6.704  15.708  0.00  0.00    +0.000 NA
ATOM      4  C   UNL     1       4.628   7.084  16.654  0.00  0.00    +0.000 A 
ATOM      5  C   UNL     1       3.892   6.225  17.444  0.00  0.00    +0.000 A 
ATOM      6  C   UNL     1       4.107   4.888  17.140  0.00  0.00    +0.000 A 
ATOM      7  N   UNL     1       5.013   4.466  16.221  0.00  0.00    +0.000 NA
ATOM      8  H   UNL     1       6.900   5.814  14.071  0.00  0.00    +0.000 HD
ENDROOT
BRANCH   5   9
ATOM      9  C   UNL     1       3.059   6.733  18.525  0.00  0.00    +0.000 A 
ATOM     10  O   UNL     1       3.079   5.996  19.674  0.00  0.00    +0.000 OA
ATOM     11  N   UNL     1       2.295   6.591  20.637  0.00  0.00    +0.000 NA
ATOM     12  C   UNL     1       1.821   7.708  20.079  0.00  0.00    +0.000 A 
ATOM     13  C   UNL     1       0.961   8.617  20.871  0.00  0.00    +0.000 C 
ATOM     14  C   UNL     1       2.275   7.856  18.737  0.00  0.00    +0.000 A 
ATOM     15  C   UNL     1       1.975   8.969  17.806  0.00  0.00    +0.000 C 
ENDBRANCH   5   9
BRANCH   6  16
ATOM     16  C   UNL     1       3.388   3.773  17.745  0.00  0.00    +0.000 A 
ATOM     17  C   UNL     1       2.104   3.279  17.617  0.00  0.00    +0.000 A 
ATOM     18  C   UNL     1       2.008   2.168  18.489  0.00  0.00    +0.000 A 
ATOM     19  C   UNL     1       3.227   2.067  19.114  0.00  0.00    +0.000 A 
ATOM     20  O   UNL     1       4.061   3.052  18.692  0.00  0.00    +0.000 OA
ENDBRANCH   6  16
BRANCH   1  21
ATOM     21  C   UNL     1       6.512   3.771  13.952  0.00  0.00    +0.000 C 
BRANCH  21  22
ATOM     22  C   UNL     1       6.552   4.002  12.438  0.00  0.00    +0.000 C 
BRANCH  22  24
ATOM     23  C   UNL     1       4.472   3.197  11.659  0.00  0.00    +0.000 C 
ATOM     24  O   UNL     1       5.861   2.927  11.789  0.00  0.00    +0.000 OA
ENDBRANCH  22  24
ENDBRANCH  21  22
ENDBRANCH   1  21
TORSDOF 5
ENDMDL
MODEL 2
REMARK VINA RESULT:      -7.0      1.378      1.517
REMARK  Name = 
REMARK  8 active torsions:
REMARK  status: ('A' for Active; 'I' for Inactive)
REMARK    1  A    between atoms: C_1  and  O_2
REMARK    2  A    between atoms: O_2  and  C_3
REMARK    3  A    between atoms: C_3  and  C_4
REMARK    4  A    between atoms: C_4  and  N_5
REMARK    5  A    between atoms: C_9  and  C_10
REMARK    6  A    between atoms: C_13  and  C_14
REMARK    7  A    between atoms: C_15  and  C_16
REMARK    8  A    between atoms: C_17  and  C_18
REMARK                            x       y       z     vdW  Elec       q    Type
REMARK                         _______ _______ _______ _____ _____    ______ ____
ROOT
ATOM      1  N   UNL     1       6.589   4.987  16.033  0.00  0.00    +0.000 N 
ATOM      2  C   UNL     1       5.490   5.522  16.673  0.00  0.00    +0.000 A 
ATOM      3  N   UNL     1       5.456   6.852  16.772  0.00  0.00    +0.000 NA
ATOM      4  C   UNL     1       4.455   7.383  17.506  0.00  0.00    +0.000 A 
ATOM      5  C   UNL     1       3.459   6.661  18.130  0.00  0.00    +0.000 A 
ATOM      6  C   UNL     1       3.544   5.297  17.892  0.00  0.00    +0.000 A 
ATOM      7  N   UNL     1       4.555   4.723  17.189  0.00  0.00    +0.000 NA
ATOM      8  H   UNL     1       7.017   5.722  15.475  0.00  0.00    +0.000 HD
ENDROOT
BRANCH   5   9
ATOM      9  C   UNL     1       2.497   7.318  19.005  0.00  0.00    +0.000 A 
ATOM     10  O   UNL     1       2.318   6.728  20.223  0.00  0.00    +0.000 OA
ATOM     11  N   UNL     1       1.427   7.454  20.980  0.00  0.00    +0.000 NA
ATOM     12  C   UNL     1       1.085   8.504  20.229  0.00  0.00    +0.000 A 
ATOM     13  C   UNL     1       0.156   9.524  20.769  0.00  0.00    +0.000 C 
ATOM     14  C   UNL     1       1.737   8.476  18.962  0.00  0.00    +0.000 A 
ATOM     15  C   UNL     1       1.623   9.472  17.872  0.00  0.00    +0.000 C 
ENDBRANCH   5   9
BRANCH   6  16
ATOM     16  C   UNL     1       2.568   4.312  18.341  0.00  0.00    +0.000 A 
ATOM     17  C   UNL     1       1.307   3.948  17.910  0.00  0.00    +0.000 A 
ATOM     18  C   UNL     1       0.862   2.921  18.777  0.00  0.00    +0.000 A 
ATOM     19  C   UNL     1       1.864   2.740  19.699  0.00  0.00    +0.000 A 
ATOM     20  O   UNL     1       2.890   3.597  19.461  0.00  0.00    +0.000 OA
ENDBRANCH   6  16
BRANCH   1  21
ATOM     21  C   UNL     1       6.382   3.746  15.296  0.00  0.00    +0.000 C 
BRANCH  21  22
ATOM     22  C   UNL     1       6.381   3.999  13.784  0.00  0.00    +0.000 C 
BRANCH  22  24
ATOM     23  C   UNL     1       7.665   5.145  12.166  0.00  0.00    +0.000 C 
ATOM     24  O   UNL     1       7.198   5.143  13.508  0.00  0.00    +0.000 OA
ENDBRANCH  22  24
ENDBRANCH  21  22
ENDBRANCH   1  21
TORSDOF 5
ENDMDL
MODEL 3
REMARK VINA RESULT:      -6.8      4.227      6.432
REMARK  Name = 
REMARK  8 active torsions:
REMARK  status: ('A' for Active; 'I' for Inactive)
REMARK    1  A    between atoms: C_1  and  O_2
REMARK    2  A    between atoms: O_2  and  C_3
REMARK    3  A    between atoms: C_3  and  C_4
REMARK    4  A    between atoms: C_4  and  N_5
REMARK    5  A    between atoms: C_9  and  C_10
REMARK    6  A    between atoms: C_13  and  C_14
REMARK    7  A    between atoms: C_15  and  C_16
REMARK    8  A    between atoms: C_17  and  C_18
REMARK                            x       y       z     vdW  Elec       q    Type
REMARK                         _______ _______ _______ _____ _____    ______ ____
ROOT
ATOM      1  N   UNL     1       3.571   5.513  19.079  0.00  0.00    +0.000 N 
ATOM      2  C   UNL     1       2.863   6.695  19.012  0.00  0.00    +0.000 A 
ATOM      3  N   UNL     1       2.930   7.356  17.854  0.00  0.00    +0.000 NA
ATOM      4  C   UNL     1       2.349   8.574  17.814  0.00  0.00    +0.000 A 
ATOM      5  C   UNL     1       1.675   9.168  18.861  0.00  0.00    +0.000 A 
ATOM      6  C   UNL     1       1.596   8.359  19.985  0.00  0.00    +0.000 A 
ATOM      7  N   UNL     1       2.196   7.144  20.076  0.00  0.00    +0.000 NA
ATOM      8  H   UNL     1       3.757   5.203  18.129  0.00  0.00    +0.000 HD
ENDROOT
BRANCH   5   9
ATOM      9  C   UNL     1       1.195  10.539  18.758  0.00  0.00    +0.000 A 
ATOM     10  O   UNL     1       2.166  11.488  18.612  0.00  0.00    +0.000 OA
ATOM     11  N   UNL     1       1.598  12.736  18.480  0.00  0.00    +0.000 NA
ATOM     12  C   UNL     1       0.278  12.540  18.518  0.00  0.00    +0.000 A 
ATOM     13  C   UNL     1      -0.641  13.690  18.361  0.00  0.00    +0.000 C 
ATOM     14  C   UNL     1      -0.042  11.162  18.689  0.00  0.00    +0.000 A 
ATOM     15  C   UNL     1      -1.392  10.555  18.761  0.00  0.00    +0.000 C 
ENDBRANCH   5   9
BRANCH   6  16
ATOM     16  C   UNL     1       0.856   8.691  21.197  0.00  0.00    +0.000 A 
ATOM     17  C   UNL     1      -0.452   8.506  21.600  0.00  0.00    +0.000 A 
ATOM     18  C   UNL     1      -0.560   9.064  22.897  0.00  0.00    +0.000 A 
ATOM     19  C   UNL     1       0.679   9.579  23.194  0.00  0.00    +0.000 A 
ATOM     20  O   UNL     1       1.535   9.383  22.160  0.00  0.00    +0.000 OA
ENDBRANCH   6  16
BRANCH   1  21
ATOM     21  C   UNL     1       3.024   4.466  19.933  0.00  0.00    +0.000 C 
BRANCH  21  22
ATOM     22  C   UNL     1       1.857   3.749  19.245  0.00  0.00    +0.000 C 
BRANCH  22  24
ATOM     23  C   UNL     1       1.334   2.773  21.332  0.00  0.00    +0.000 C 
ATOM     24  O   UNL     1       0.834   3.496  20.217  0.00  0.00    +0.000 OA
ENDBRANCH  22  24
ENDBRANCH  21  22
ENDBRANCH   1  21
TORSDOF 5
ENDMDL
MODEL 4
REMARK VINA RESULT:      -6.7      4.577      7.046
REMARK  Name = 
REMARK  8 active torsions:
REMARK  status: ('A' for Active; 'I' for Inactive)
REMARK    1  A    between atoms: C_1  and  O_2
REMARK    2  A    between atoms: O_2  and  C_3
REMARK    3  A    between atoms: C_3  and  C_4
REMARK    4  A    between atoms: C_4  and  N_5
REMARK    5  A    between atoms: C_9  and  C_10
REMARK    6  A    between atoms: C_13  and  C_14
REMARK    7  A    between atoms: C_15  and  C_16
REMARK    8  A    between atoms: C_17  and  C_18
REMARK                            x       y       z     vdW  Elec       q    Type
REMARK                         _______ _______ _______ _____ _____    ______ ____
ROOT
ATOM      1  N   UNL     1       3.127   6.322  19.185  0.00  0.00    +0.000 N 
ATOM      2  C   UNL     1       2.379   7.478  19.092  0.00  0.00    +0.000 A 
ATOM      3  N   UNL     1       2.355   8.069  17.897  0.00  0.00    +0.000 NA
ATOM      4  C   UNL     1       1.735   9.266  17.821  0.00  0.00    +0.000 A 
ATOM      5  C   UNL     1       1.106   9.903  18.871  0.00  0.00    +0.000 A 
ATOM      6  C   UNL     1       1.121   9.160  20.044  0.00  0.00    +0.000 A 
ATOM      7  N   UNL     1       1.763   7.971  20.168  0.00  0.00    +0.000 NA
ATOM      8  H   UNL     1       3.266   5.961  18.244  0.00  0.00    +0.000 HD
ENDROOT
BRANCH   5   9
ATOM      9  C   UNL     1       0.578  11.251  18.719  0.00  0.00    +0.000 A 
ATOM     10  O   UNL     1      -0.684  11.329  18.204  0.00  0.00    +0.000 OA
ATOM     11  N   UNL     1      -1.096  12.642  18.147  0.00  0.00    +0.000 NA
ATOM     12  C   UNL     1      -0.092  13.360  18.655  0.00  0.00    +0.000 A 
ATOM     13  C   UNL     1      -0.228  14.830  18.778  0.00  0.00    +0.000 C 
ATOM     14  C   UNL     1       1.001  12.531  19.041  0.00  0.00    +0.000 A 
ATOM     15  C   UNL     1       2.280  12.960  19.655  0.00  0.00    +0.000 C 
ENDBRANCH   5   9
BRANCH   6  16
ATOM     16  C   UNL     1       0.445   9.543  21.278  0.00  0.00    +0.000 A 
ATOM     17  C   UNL     1      -0.540  10.462  21.584  0.00  0.00    +0.000 A 
ATOM     18  C   UNL     1      -0.765  10.367  22.979  0.00  0.00    +0.000 A 
ATOM     19  C   UNL     1       0.114   9.417  23.442  0.00  0.00    +0.000 A 
ATOM     20  O   UNL     1       0.870   8.933  22.425  0.00  0.00    +0.000 OA
ENDBRANCH   6  16
BRANCH   1  21
ATOM     21  C   UNL     1       2.666   5.313  20.130  0.00  0.00    +0.000 C 
BRANCH  21  22
ATOM     22  C   UNL     1       1.620   4.395  19.488  0.00  0.00    +0.000 C 
BRANCH  22  24
ATOM     23  C   UNL     1       1.798   3.180  21.506  0.00  0.00    +0.000 C 
ATOM     24  O   UNL     1       0.913   3.705  20.527  0.00  0.00    +0.000 OA
ENDBRANCH  22  24
ENDBRANCH  21  22
ENDBRANCH   1  21
TORSDOF 5
ENDMDL
MODEL 5
REMARK VINA RESULT:      -6.7      1.233      1.580
REMARK  Name = 
REMARK  8 active torsions:
REMARK  status: ('A' for Active; 'I' for Inactive)
REMARK    1  A    between atoms: C_1  and  O_2
REMARK    2  A    between atoms: O_2  and  C_3
REMARK    3  A    between atoms: C_3  and  C_4
REMARK    4  A    between atoms: C_4  and  N_5
REMARK    5  A    between atoms: C_9  and  C_10
REMARK    6  A    between atoms: C_13  and  C_14
REMARK    7  A    between atoms: C_15  and  C_16
REMARK    8  A    between atoms: C_17  and  C_18
REMARK                            x       y       z     vdW  Elec       q    Type
REMARK                         _______ _______ _______ _____ _____    ______ ____
ROOT
ATOM      1  N   UNL     1       6.667   4.898  15.328  0.00  0.00    +0.000 N 
ATOM      2  C   UNL     1       5.632   5.439  16.063  0.00  0.00    +0.000 A 
ATOM      3  N   UNL     1       5.655   6.763  16.227  0.00  0.00    +0.000 NA
ATOM      4  C   UNL     1       4.724   7.291  17.049  0.00  0.00    +0.000 A 
ATOM      5  C   UNL     1       3.742   6.575  17.703  0.00  0.00    +0.000 A 
ATOM      6  C   UNL     1       3.761   5.221  17.395  0.00  0.00    +0.000 A 
ATOM      7  N   UNL     1       4.702   4.648  16.601  0.00  0.00    +0.000 NA
ATOM      8  H   UNL     1       7.086   5.645  14.778  0.00  0.00    +0.000 HD
ENDROOT
BRANCH   5   9
ATOM      9  C   UNL     1       2.865   7.220  18.669  0.00  0.00    +0.000 A 
ATOM     10  O   UNL     1       2.330   8.410  18.268  0.00  0.00    +0.000 OA
ATOM     11  N   UNL     1       1.486   8.905  19.237  0.00  0.00    +0.000 NA
ATOM     12  C   UNL     1       1.487   7.998  20.217  0.00  0.00    +0.000 A 
ATOM     13  C   UNL     1       0.637   8.205  21.412  0.00  0.00    +0.000 C 
ATOM     14  C   UNL     1       2.342   6.900  19.912  0.00  0.00    +0.000 A 
ATOM     15  C   UNL     1       2.590   5.698  20.743  0.00  0.00    +0.000 C 
ENDBRANCH   5   9
BRANCH   6  16
ATOM     16  C   UNL     1       2.779   4.250  17.860  0.00  0.00    +0.000 A 
ATOM     17  C   UNL     1       1.407   4.140  17.734  0.00  0.00    +0.000 A 
ATOM     18  C   UNL     1       1.029   2.964  18.427  0.00  0.00    +0.000 A 
ATOM     19  C   UNL     1       2.186   2.444  18.955  0.00  0.00    +0.000 A 
ATOM     20  O   UNL     1       3.247   3.231  18.642  0.00  0.00    +0.000 OA
ENDBRANCH   6  16
BRANCH   1  21
ATOM     21  C   UNL     1       6.366   3.704  14.548  0.00  0.00    +0.000 C 
BRANCH  21  22
ATOM     22  C   UNL     1       5.328   4.003  13.462  0.00  0.00    +0.000 C 
BRANCH  22  24
ATOM     23  C   UNL     1       7.102   3.686  11.934  0.00  0.00    +0.000 C 
ATOM     24  O   UNL     1       5.748   3.384  12.239  0.00  0.00    +0.000 OA
ENDBRANCH  22  24
ENDBRANCH  21  22
ENDBRANCH   1  21
TORSDOF 5
ENDMDL
MODEL 6
REMARK VINA RESULT:      -6.7      3.015      5.625
REMARK  Name = 
REMARK  8 active torsions:
REMARK  status: ('A' for Active; 'I' for Inactive)
REMARK    1  A    between atoms: C_1  and  O_2
REMARK    2  A    between atoms: O_2  and  C_3
REMARK    3  A    between atoms: C_3  and  C_4
REMARK    4  A    between atoms: C_4  and  N_5
REMARK    5  A    between atoms: C_9  and  C_10
REMARK    6  A    between atoms: C_13  and  C_14
REMARK    7  A    between atoms: C_15  and  C_16
REMARK    8  A    between atoms: C_17  and  C_18
REMARK                            x       y       z     vdW  Elec       q    Type
REMARK                         _______ _______ _______ _____ _____    ______ ____
ROOT
ATOM      1  N   UNL     1       7.841   7.635  17.038  0.00  0.00    +0.000 N 
ATOM      2  C   UNL     1       6.738   6.888  17.400  0.00  0.00    +0.000 A 
ATOM      3  N   UNL     1       6.916   5.568  17.464  0.00  0.00    +0.000 NA
ATOM      4  C   UNL     1       5.819   4.815  17.691  0.00  0.00    +0.000 A 
ATOM      5  C   UNL     1       4.545   5.306  17.886  0.00  0.00    +0.000 A 
ATOM      6  C   UNL     1       4.490   6.693  17.881  0.00  0.00    +0.000 A 
ATOM      7  N   UNL     1       5.564   7.482  17.623  0.00  0.00    +0.000 NA
ATOM      8  H   UNL     1       8.670   7.067  17.195  0.00  0.00    +0.000 HD
ENDROOT
BRANCH   5   9
ATOM      9  C   UNL     1       3.406   4.406  17.995  0.00  0.00    +0.000 A 
ATOM     10  O   UNL     1       3.033   3.793  16.833  0.00  0.00    +0.000 OA
ATOM     11  N   UNL     1       1.980   2.935  17.062  0.00  0.00    +0.000 NA
ATOM     12  C   UNL     1       1.732   3.007  18.372  0.00  0.00    +0.000 A 
ATOM     13  C   UNL     1       0.668   2.165  18.967  0.00  0.00    +0.000 C 
ATOM     14  C   UNL     1       2.609   3.923  19.022  0.00  0.00    +0.000 A 
ATOM     15  C   UNL     1       2.650   4.258  20.464  0.00  0.00    +0.000 C 
ENDBRANCH   5   9
BRANCH   6  16
ATOM     16  C   UNL     1       3.295   7.478  18.164  0.00  0.00    +0.000 A 
ATOM     17  C   UNL     1       2.422   7.540  19.232  0.00  0.00    +0.000 A 
ATOM     18  C   UNL     1       1.440   8.506  18.899  0.00  0.00    +0.000 A 
ATOM     19  C   UNL     1       1.758   8.953  17.639  0.00  0.00    +0.000 A 
ATOM     20  O   UNL     1       2.863   8.316  17.174  0.00  0.00    +0.000 OA
ENDBRANCH   6  16
BRANCH   1  21
ATOM     21  C   UNL     1       7.941   8.976  17.601  0.00  0.00    +0.000 C 
BRANCH  21  22
ATOM     22  C   UNL     1       8.771   8.970  18.889  0.00  0.00    +0.000 C 
BRANCH  22  24
ATOM     23  C   UNL     1       8.956  11.169  18.044  0.00  0.00    +0.000 C 
ATOM     24  O   UNL     1       9.365  10.264  19.060  0.00  0.00    +0.000 OA
ENDBRANCH  22  24
ENDBRANCH  21  22
ENDBRANCH   1  21
TORSDOF 5
ENDMDL
MODEL 7
REMARK VINA RESULT:      -6.5      2.526      7.298
REMARK  Name = 
REMARK  8 active torsions:
REMARK  status: ('A' for Active; 'I' for Inactive)
REMARK    1  A    between atoms: C_1  and  O_2
REMARK    2  A    between atoms: O_2  and  C_3
REMARK    3  A    between atoms: C_3  and  C_4
REMARK    4  A    between atoms: C_4  and  N_5
REMARK    5  A    between atoms: C_9  and  C_10
REMARK    6  A    between atoms: C_13  and  C_14
REMARK    7  A    between atoms: C_15  and  C_16
REMARK    8  A    between atoms: C_17  and  C_18
REMARK                            x       y       z     vdW  Elec       q    Type
REMARK                         _______ _______ _______ _____ _____    ______ ____
ROOT
ATOM      1  N   UNL     1       0.754   9.175  20.763  0.00  0.00    +0.000 N 
ATOM      2  C   UNL     1       1.537   8.236  20.123  0.00  0.00    +0.000 A 
ATOM      3  N   UNL     1       2.257   8.677  19.089  0.00  0.00    +0.000 NA
ATOM      4  C   UNL     1       2.928   7.749  18.374  0.00  0.00    +0.000 A 
ATOM      5  C   UNL     1       2.947   6.397  18.646  0.00  0.00    +0.000 A 
ATOM      6  C   UNL     1       2.233   6.063  19.789  0.00  0.00    +0.000 A 
ATOM      7  N   UNL     1       1.518   6.961  20.513  0.00  0.00    +0.000 NA
ATOM      8  H   UNL     1       1.112  10.097  20.527  0.00  0.00    +0.000 HD
ENDROOT
BRANCH   5   9
ATOM      9  C   UNL     1       3.596   5.461  17.739  0.00  0.00    +0.000 A 
ATOM     10  O   UNL     1       2.862   4.357  17.414  0.00  0.00    +0.000 OA
ATOM     11  N   UNL     1       3.553   3.570  16.521  0.00  0.00    +0.000 NA
ATOM     12  C   UNL     1       4.698   4.212  16.281  0.00  0.00    +0.000 A 
ATOM     13  C   UNL     1       5.671   3.648  15.317  0.00  0.00    +0.000 C 
ATOM     14  C   UNL     1       4.783   5.425  17.024  0.00  0.00    +0.000 A 
ATOM     15  C   UNL     1       5.890   6.411  17.010  0.00  0.00    +0.000 C 
ENDBRANCH   5   9
BRANCH   6  16
ATOM     16  C   UNL     1       2.169   4.726  20.367  0.00  0.00    +0.000 A 
ATOM     17  C   UNL     1       1.132   3.885  20.722  0.00  0.00    +0.000 A 
ATOM     18  C   UNL     1       1.723   2.710  21.247  0.00  0.00    +0.000 A 
ATOM     19  C   UNL     1       3.081   2.916  21.205  0.00  0.00    +0.000 A 
ATOM     20  O   UNL     1       3.361   4.144  20.700  0.00  0.00    +0.000 OA
ENDBRANCH   6  16
BRANCH   1  21
ATOM     21  C   UNL     1       0.536   8.985  22.192  0.00  0.00    +0.000 C 
BRANCH  21  22
ATOM     22  C   UNL     1      -0.746   9.687  22.650  0.00  0.00    +0.000 C 
BRANCH  22  24
ATOM     23  C   UNL     1      -0.765  12.043  22.475  0.00  0.00    +0.000 C 
ATOM     24  O   UNL     1      -0.394  10.929  23.274  0.00  0.00    +0.000 OA
ENDBRANCH  22  24
ENDBRANCH  21  22
ENDBRANCH   1  21
TORSDOF 5
ENDMDL
MODEL 8
REMARK VINA RESULT:      -6.5      3.645      6.146
REMARK  Name = 
REMARK  8 active torsions:
REMARK  status: ('A' for Active; 'I' for Inactive)
REMARK    1  A    between atoms: C_1  and  O_2
REMARK    2  A    between atoms: O_2  and  C_3
REMARK    3  A    between atoms: C_3  and  C_4
REMARK    4  A    between atoms: C_4  and  N_5
REMARK    5  A    between atoms: C_9  and  C_10
REMARK    6  A    between atoms: C_13  and  C_14
REMARK    7  A    between atoms: C_15  and  C_16
REMARK    8  A    between atoms: C_17  and  C_18
REMARK                            x       y       z     vdW  Elec       q    Type
REMARK                         _______ _______ _______ _____ _____    ______ ____
ROOT
ATOM      1  N   UNL     1       3.263   5.213  19.267  0.00  0.00    +0.000 N 
ATOM      2  C   UNL     1       2.633   6.436  19.170  0.00  0.00    +0.000 A 
ATOM      3  N   UNL     1       2.653   7.015  17.968  0.00  0.00    +0.000 NA
ATOM      4  C   UNL     1       2.155   8.267  17.886  0.00  0.00    +0.000 A 
ATOM      5  C   UNL     1       1.607   8.974  18.937  0.00  0.00    +0.000 A 
ATOM      6  C   UNL     1       1.562   8.246  20.118  0.00  0.00    +0.000 A 
ATOM      7  N   UNL     1       2.083   6.999  20.247  0.00  0.00    +0.000 NA
ATOM      8  H   UNL     1       3.353   4.830  18.329  0.00  0.00    +0.000 HD
ENDROOT
BRANCH   5   9
ATOM      9  C   UNL     1       1.214  10.367  18.775  0.00  0.00    +0.000 A 
ATOM     10  O   UNL     1       2.235  11.237  18.524  0.00  0.00    +0.000 OA
ATOM     11  N   UNL     1       1.745  12.511  18.346  0.00  0.00    +0.000 NA
ATOM     12  C   UNL     1       0.419  12.409  18.461  0.00  0.00    +0.000 A 
ATOM     13  C   UNL     1      -0.429  13.609  18.280  0.00  0.00    +0.000 C 
ATOM     14  C   UNL     1       0.019  11.068  18.731  0.00  0.00    +0.000 A 
ATOM     15  C   UNL     1      -1.363  10.562  18.906  0.00  0.00    +0.000 C 
ENDBRANCH   5   9
BRANCH   6  16
ATOM     16  C   UNL     1       0.943   8.707  21.354  0.00  0.00    +0.000 A 
ATOM     17  C   UNL     1       1.432   9.269  22.518  0.00  0.00    +0.000 A 
ATOM     18  C   UNL     1       0.316   9.488  23.363  0.00  0.00    +0.000 A 
ATOM     19  C   UNL     1      -0.779   9.022  22.676  0.00  0.00    +0.000 A 
ATOM     20  O   UNL     1      -0.407   8.521  21.471  0.00  0.00    +0.000 OA
ENDBRANCH   6  16
BRANCH   1  21
ATOM     21  C   UNL     1       2.715   4.265  20.229  0.00  0.00    +0.000 C 
BRANCH  21  22
ATOM     22  C   UNL     1       2.110   3.049  19.519  0.00  0.00    +0.000 C 
BRANCH  22  24
ATOM     23  C   UNL     1       3.472   1.715  18.124  0.00  0.00    +0.000 C 
ATOM     24  O   UNL     1       2.722   2.916  18.230  0.00  0.00    +0.000 OA
ENDBRANCH  22  24
ENDBRANCH  21  22
ENDBRANCH   1  21
TORSDOF 5
ENDMDL
MODEL 9
REMARK VINA RESULT:      -6.4      1.954      2.392
REMARK  Name = 
REMARK  8 active torsions:
REMARK  status: ('A' for Active; 'I' for Inactive)
REMARK    1  A    between atoms: C_1  and  O_2
REMARK    2  A    between atoms: O_2  and  C_3
REMARK    3  A    between atoms: C_3  and  C_4
REMARK    4  A    between atoms: C_4  and  N_5
REMARK    5  A    between atoms: C_9  and  C_10
REMARK    6  A    between atoms: C_13  and  C_14
REMARK    7  A    between atoms: C_15  and  C_16
REMARK    8  A    between atoms: C_17  and  C_18
REMARK                            x       y       z     vdW  Elec       q    Type
REMARK                         _______ _______ _______ _____ _____    ______ ____
ROOT
ATOM      1  N   UNL     1       5.635   5.700  16.172  0.00  0.00    +0.000 N 
ATOM      2  C   UNL     1       4.604   6.196  16.944  0.00  0.00    +0.000 A 
ATOM      3  N   UNL     1       4.340   7.497  16.806  0.00  0.00    +0.000 NA
ATOM      4  C   UNL     1       3.423   8.024  17.644  0.00  0.00    +0.000 A 
ATOM      5  C   UNL     1       2.727   7.320  18.605  0.00  0.00    +0.000 A 
ATOM      6  C   UNL     1       3.020   5.964  18.604  0.00  0.00    +0.000 A 
ATOM      7  N   UNL     1       3.960   5.403  17.800  0.00  0.00    +0.000 NA
ATOM      8  H   UNL     1       5.795   6.349  15.406  0.00  0.00    +0.000 HD
ENDROOT
BRANCH   5   9
ATOM      9  C   UNL     1       1.853   8.006  19.547  0.00  0.00    +0.000 A 
ATOM     10  O   UNL     1       1.969   7.608  20.848  0.00  0.00    +0.000 OA
ATOM     11  N   UNL     1       1.133   8.351  21.651  0.00  0.00    +0.000 NA
ATOM     12  C   UNL     1       0.528   9.221  20.839  0.00  0.00    +0.000 A 
ATOM     13  C   UNL     1      -0.422  10.210  21.397  0.00  0.00    +0.000 C 
ATOM     14  C   UNL     1       0.947   9.054  19.487  0.00  0.00    +0.000 A 
ATOM     15  C   UNL     1       0.512   9.839  18.309  0.00  0.00    +0.000 C 
ENDBRANCH   5   9
BRANCH   6  16
ATOM     16  C   UNL     1       2.358   4.970  19.440  0.00  0.00    +0.000 A 
ATOM     17  C   UNL     1       1.197   4.232  19.313  0.00  0.00    +0.000 A 
ATOM     18  C   UNL     1       1.090   3.438  20.480  0.00  0.00    +0.000 A 
ATOM     19  C   UNL     1       2.176   3.759  21.260  0.00  0.00    +0.000 A 
ATOM     20  O   UNL     1       2.934   4.706  20.652  0.00  0.00    +0.000 OA
ENDBRANCH   6  16
BRANCH   1  21
ATOM     21  C   UNL     1       5.524   4.311  15.741  0.00  0.00    +0.000 C 
BRANCH  21  22
ATOM     22  C   UNL     1       6.445   4.030  14.550  0.00  0.00    +0.000 C 
BRANCH  22  24
ATOM     23  C   UNL     1       7.815   5.302  13.104  0.00  0.00    +0.000 C 
ATOM     24  O   UNL     1       7.403   5.092  14.447  0.00  0.00    +0.000 OA
ENDBRANCH  22  24
ENDBRANCH  21  22
ENDBRANCH   1  21
TORSDOF 5
ENDMDL
