MODEL 1
REMARK VINA RESULT:      -8.8      0.000      0.000
REMARK  Name = 
REMARK  6 active torsions:
REMARK  status: ('A' for Active; 'I' for Inactive)
REMARK    1  A    between atoms: C_2  and  C_3
REMARK    2  A    between atoms: C_3  and  C_4
REMARK    3  A    between atoms: C_4  and  C_5
REMARK    4  A    between atoms: N_9  and  C_10
REMARK    5  A    between atoms: N_20  and  C_21
REMARK    6  A    between atoms: C_26  and  N_27
REMARK                            x       y       z     vdW  Elec       q    Type
REMARK                         _______ _______ _______ _____ _____    ______ ____
ROOT
ATOM      1  C   UNL     1       2.272   6.084  17.917  0.00  0.00    +0.000 C 
ENDROOT
BRANCH   1   2
ATOM      2  C   UNL     1       2.494   4.733  18.495  0.00  0.00    +0.000 A 
ATOM      3  N   UNL     1       1.534   3.904  18.853  0.00  0.00    +0.000 NA
ATOM      4  N   UNL     1       2.137   2.718  19.145  0.00  0.00    +0.000 NA
ATOM      5  N   UNL     1       3.447   2.798  18.981  0.00  0.00    +0.000 NA
ATOM      6  N   UNL     1       3.711   4.059  18.575  0.00  0.00    +0.000 N 
BRANCH   6   7
ATOM      7  C   UNL     1       5.026   4.526  18.297  0.00  0.00    +0.000 A 
ATOM      8  C   UNL     1       5.782   5.035  19.368  0.00  0.00    +0.000 A 
ATOM      9  C   UNL     1       7.017   5.631  19.162  0.00  0.00    +0.000 A 
ATOM     10  C   UNL     1       7.530   5.699  17.876  0.00  0.00    +0.000 A 
ATOM     11  C   UNL     1       6.837   5.144  16.791  0.00  0.00    +0.000 A 
ATOM     12  C   UNL     1       7.416   5.225  15.516  0.00  0.00    +0.000 A 
ATOM     13  C   UNL     1       6.775   4.702  14.399  0.00  0.00    +0.000 A 
ATOM     14  C   UNL     1       5.538   4.097  14.541  0.00  0.00    +0.000 A 
ATOM     15  C   UNL     1       4.941   4.020  15.802  0.00  0.00    +0.000 A 
ATOM     16  C   UNL     1       5.567   4.529  16.973  0.00  0.00    +0.000 A 
ENDBRANCH   6   7
ENDBRANCH   1   2
BRANCH   1  17
ATOM     17  C   UNL     1       2.703   7.207  18.865  0.00  0.00    +0.000 C 
BRANCH  17  19
ATOM     18  O   UNL     1       2.296   9.000  17.345  0.00  0.00    +0.000 OA
ATOM     19  C   UNL     1       2.040   8.495  18.439  0.00  0.00    +0.000 C 
ATOM     20  N   UNL     1       1.140   9.005  19.355  0.00  0.00    +0.000 N 
ATOM     21  H   UNL     1       1.259   8.737  20.330  0.00  0.00    +0.000 HD
BRANCH  20  22
ATOM     22  C   UNL     1       0.190  10.038  19.097  0.00  0.00    +0.000 A 
ATOM     23  C   UNL     1      -0.687   9.926  18.006  0.00  0.00    +0.000 A 
ATOM     24  C   UNL     1      -1.693  10.863  17.771  0.00  0.00    +0.000 A 
ATOM     25  C   UNL     1      -1.867  11.935  18.635  0.00  0.00    +0.000 A 
ATOM     26  C   UNL     1      -1.006  12.089  19.719  0.00  0.00    +0.000 A 
ATOM     27  C   UNL     1       0.030  11.156  19.944  0.00  0.00    +0.000 A 
BRANCH  27  28
ATOM     28  N   UNL     1       0.957  11.432  21.053  0.00  0.00    +0.000 N 
ATOM     29  O   UNL     1       1.521  12.538  21.083  0.00  0.00    +0.000 OA
ATOM     30  O   UNL     1       1.124  10.546  21.904  0.00  0.00    +0.000 OA
ENDBRANCH  27  28
ENDBRANCH  20  22
ENDBRANCH  17  19
ENDBRANCH   1  17
TORSDOF 6
ENDMDL
MODEL 2
REMARK VINA RESULT:      -8.5      0.849      1.013
REMARK  Name = 
REMARK  6 active torsions:
REMARK  status: ('A' for Active; 'I' for Inactive)
REMARK    1  A    between atoms: C_2  and  C_3
REMARK    2  A    between atoms: C_3  and  C_4
REMARK    3  A    between atoms: C_4  and  C_5
REMARK    4  A    between atoms: N_9  and  C_10
REMARK    5  A    between atoms: N_20  and  C_21
REMARK    6  A    between atoms: C_26  and  N_27
REMARK                            x       y       z     vdW  Elec       q    Type
REMARK                         _______ _______ _______ _____ _____    ______ ____
ROOT
ATOM      1  C   UNL     1       2.353   6.245  17.999  0.00  0.00    +0.000 C 
ENDROOT
BRANCH   1   2
ATOM      2  C   UNL     1       2.563   4.957  18.709  0.00  0.00    +0.000 A 
ATOM      3  N   UNL     1       1.596   4.197  19.183  0.00  0.00    +0.000 NA
ATOM      4  N   UNL     1       2.181   3.031  19.578  0.00  0.00    +0.000 NA
ATOM      5  N   UNL     1       3.486   3.057  19.365  0.00  0.00    +0.000 NA
ATOM      6  N   UNL     1       3.765   4.261  18.820  0.00  0.00    +0.000 N 
BRANCH   6   7
ATOM      7  C   UNL     1       5.081   4.659  18.451  0.00  0.00    +0.000 A 
ATOM      8  C   UNL     1       5.914   5.181  19.456  0.00  0.00    +0.000 A 
ATOM      9  C   UNL     1       7.158   5.715  19.158  0.00  0.00    +0.000 A 
ATOM     10  C   UNL     1       7.602   5.706  17.845  0.00  0.00    +0.000 A 
ATOM     11  C   UNL     1       6.828   5.136  16.825  0.00  0.00    +0.000 A 
ATOM     12  C   UNL     1       7.339   5.137  15.518  0.00  0.00    +0.000 A 
ATOM     13  C   UNL     1       6.617   4.596  14.461  0.00  0.00    +0.000 A 
ATOM     14  C   UNL     1       5.367   4.050  14.696  0.00  0.00    +0.000 A 
ATOM     15  C   UNL     1       4.838   4.052  15.990  0.00  0.00    +0.000 A 
ATOM     16  C   UNL     1       5.547   4.584  17.101  0.00  0.00    +0.000 A 
ENDBRANCH   6   7
ENDBRANCH   1   2
BRANCH   1  17
ATOM     17  C   UNL     1       2.627   7.459  18.892  0.00  0.00    +0.000 C 
BRANCH  17  19
ATOM     18  O   UNL     1       2.232   9.027  17.137  0.00  0.00    +0.000 OA
ATOM     19  C   UNL     1       1.966   8.675  18.288  0.00  0.00    +0.000 C 
ATOM     20  N   UNL     1       1.057   9.304  19.118  0.00  0.00    +0.000 N 
ATOM     21  H   UNL     1       1.166   9.171  20.121  0.00  0.00    +0.000 HD
BRANCH  20  22
ATOM     22  C   UNL     1       0.109  10.290  18.712  0.00  0.00    +0.000 A 
ATOM     23  C   UNL     1      -1.167   9.896  18.274  0.00  0.00    +0.000 A 
ATOM     24  C   UNL     1      -2.156  10.827  17.958  0.00  0.00    +0.000 A 
ATOM     25  C   UNL     1      -1.907  12.186  18.092  0.00  0.00    +0.000 A 
ATOM     26  C   UNL     1      -0.649  12.616  18.508  0.00  0.00    +0.000 A 
ATOM     27  C   UNL     1       0.363  11.676  18.802  0.00  0.00    +0.000 A 
BRANCH  27  28
ATOM     28  N   UNL     1       1.693  12.202  19.146  0.00  0.00    +0.000 N 
ATOM     29  O   UNL     1       1.873  12.631  20.298  0.00  0.00    +0.000 OA
ATOM     30  O   UNL     1       2.570  12.184  18.269  0.00  0.00    +0.000 OA
ENDBRANCH  27  28
ENDBRANCH  20  22
ENDBRANCH  17  19
ENDBRANCH   1  17
TORSDOF 6
ENDMDL
MODEL 3
REMARK VINA RESULT:      -8.4      1.820      2.304
REMARK  Name = 
REMARK  6 active torsions:
REMARK  status: ('A' for Active; 'I' for Inactive)
REMARK    1  A    between atoms: C_2  and  C_3
REMARK    2  A    between atoms: C_3  and  C_4
REMARK    3  A    between atoms: C_4  and  C_5
REMARK    4  A    between atoms: N_9  and  C_10
REMARK    5  A    between atoms: N_20  and  C_21
REMARK    6  A    between atoms: C_26  and  N_27
REMARK                            x       y       z     vdW  Elec       q    Type
REMARK                         _______ _______ _______ _____ _____    ______ ____
ROOT
ATOM      1  C   UNL     1       2.619   5.366  18.590  0.00  0.00    +0.000 C 
ENDROOT
BRANCH   1   2
ATOM      2  C   UNL     1       3.316   4.257  19.293  0.00  0.00    +0.000 A 
ATOM      3  N   UNL     1       2.711   3.312  19.986  0.00  0.00    +0.000 NA
ATOM      4  N   UNL     1       3.666   2.392  20.299  0.00  0.00    +0.000 NA
ATOM      5  N   UNL     1       4.846   2.751  19.821  0.00  0.00    +0.000 NA
ATOM      6  N   UNL     1       4.665   3.927  19.182  0.00  0.00    +0.000 N 
BRANCH   6   7
ATOM      7  C   UNL     1       5.720   4.629  18.535  0.00  0.00    +0.000 A 
ATOM      8  C   UNL     1       6.562   5.427  19.330  0.00  0.00    +0.000 A 
ATOM      9  C   UNL     1       7.527   6.246  18.765  0.00  0.00    +0.000 A 
ATOM     10  C   UNL     1       7.684   6.256  17.388  0.00  0.00    +0.000 A 
ATOM     11  C   UNL     1       6.909   5.427  16.566  0.00  0.00    +0.000 A 
ATOM     12  C   UNL     1       7.128   5.465  15.181  0.00  0.00    +0.000 A 
ATOM     13  C   UNL     1       6.386   4.674  14.311  0.00  0.00    +0.000 A 
ATOM     14  C   UNL     1       5.406   3.837  14.817  0.00  0.00    +0.000 A 
ATOM     15  C   UNL     1       5.166   3.797  16.193  0.00  0.00    +0.000 A 
ATOM     16  C   UNL     1       5.910   4.579  17.119  0.00  0.00    +0.000 A 
ENDBRANCH   6   7
ENDBRANCH   1   2
BRANCH   1  17
ATOM     17  C   UNL     1       2.969   6.740  19.169  0.00  0.00    +0.000 C 
BRANCH  17  19
ATOM     18  O   UNL     1       1.342   6.407  20.881  0.00  0.00    +0.000 OA
ATOM     19  C   UNL     1       1.852   7.191  20.080  0.00  0.00    +0.000 C 
ATOM     20  N   UNL     1       1.501   8.520  19.939  0.00  0.00    +0.000 N 
ATOM     21  H   UNL     1       1.710   8.970  19.050  0.00  0.00    +0.000 HD
BRANCH  20  22
ATOM     22  C   UNL     1       0.684   9.262  20.844  0.00  0.00    +0.000 A 
ATOM     23  C   UNL     1       0.639   8.902  22.201  0.00  0.00    +0.000 A 
ATOM     24  C   UNL     1      -0.070   9.654  23.139  0.00  0.00    +0.000 A 
ATOM     25  C   UNL     1      -0.739  10.806  22.750  0.00  0.00    +0.000 A 
ATOM     26  C   UNL     1      -0.732  11.185  21.409  0.00  0.00    +0.000 A 
ATOM     27  C   UNL     1      -0.038  10.410  20.455  0.00  0.00    +0.000 A 
BRANCH  27  28
ATOM     28  N   UNL     1      -0.148  10.819  19.045  0.00  0.00    +0.000 N 
ATOM     29  O   UNL     1       0.249  11.953  18.732  0.00  0.00    +0.000 OA
ATOM     30  O   UNL     1      -0.627  10.006  18.240  0.00  0.00    +0.000 OA
ENDBRANCH  27  28
ENDBRANCH  20  22
ENDBRANCH  17  19
ENDBRANCH   1  17
TORSDOF 6
ENDMDL
MODEL 4
REMARK VINA RESULT:      -8.4      1.311      1.405
REMARK  Name = 
REMARK  6 active torsions:
REMARK  status: ('A' for Active; 'I' for Inactive)
REMARK    1  A    between atoms: C_2  and  C_3
REMARK    2  A    between atoms: C_3  and  C_4
REMARK    3  A    between atoms: C_4  and  C_5
REMARK    4  A    between atoms: N_9  and  C_10
REMARK    5  A    between atoms: N_20  and  C_21
REMARK    6  A    between atoms: C_26  and  N_27
REMARK                            x       y       z     vdW  Elec       q    Type
REMARK                         _______ _______ _______ _____ _____    ______ ____
ROOT
ATOM      1  C   UNL     1       2.193   5.635  18.168  0.00  0.00    +0.000 C 
ENDROOT
BRANCH   1   2
ATOM      2  C   UNL     1       2.519   4.197  18.345  0.00  0.00    +0.000 A 
ATOM      3  N   UNL     1       1.626   3.237  18.486  0.00  0.00    +0.000 NA
ATOM      4  N   UNL     1       2.310   2.061  18.422  0.00  0.00    +0.000 NA
ATOM      5  N   UNL     1       3.604   2.272  18.251  0.00  0.00    +0.000 NA
ATOM      6  N   UNL     1       3.775   3.611  18.202  0.00  0.00    +0.000 N 
BRANCH   6   7
ATOM      7  C   UNL     1       5.047   4.225  18.028  0.00  0.00    +0.000 A 
ATOM      8  C   UNL     1       5.686   4.745  19.167  0.00  0.00    +0.000 A 
ATOM      9  C   UNL     1       6.861   5.475  19.066  0.00  0.00    +0.000 A 
ATOM     10  C   UNL     1       7.432   5.670  17.819  0.00  0.00    +0.000 A 
ATOM     11  C   UNL     1       6.861   5.111  16.667  0.00  0.00    +0.000 A 
ATOM     12  C   UNL     1       7.497   5.324  15.435  0.00  0.00    +0.000 A 
ATOM     13  C   UNL     1       6.975   4.805  14.256  0.00  0.00    +0.000 A 
ATOM     14  C   UNL     1       5.803   4.070  14.292  0.00  0.00    +0.000 A 
ATOM     15  C   UNL     1       5.150   3.859  15.510  0.00  0.00    +0.000 A 
ATOM     16  C   UNL     1       5.655   4.361  16.741  0.00  0.00    +0.000 A 
ENDBRANCH   6   7
ENDBRANCH   1   2
BRANCH   1  17
ATOM     17  C   UNL     1       2.407   6.448  19.448  0.00  0.00    +0.000 C 
BRANCH  17  19
ATOM     18  O   UNL     1       2.308   8.399  18.080  0.00  0.00    +0.000 OA
ATOM     19  C   UNL     1       2.068   7.895  19.178  0.00  0.00    +0.000 C 
ATOM     20  N   UNL     1       1.467   8.549  20.237  0.00  0.00    +0.000 N 
ATOM     21  H   UNL     1       1.634   8.182  21.171  0.00  0.00    +0.000 HD
BRANCH  20  22
ATOM     22  C   UNL     1       0.808   9.812  20.163  0.00  0.00    +0.000 A 
ATOM     23  C   UNL     1       1.004  10.640  19.045  0.00  0.00    +0.000 A 
ATOM     24  C   UNL     1       0.309  11.839  18.886  0.00  0.00    +0.000 A 
ATOM     25  C   UNL     1      -0.623  12.238  19.834  0.00  0.00    +0.000 A 
ATOM     26  C   UNL     1      -0.833  11.452  20.965  0.00  0.00    +0.000 A 
ATOM     27  C   UNL     1      -0.110  10.252  21.141  0.00  0.00    +0.000 A 
BRANCH  27  28
ATOM     28  N   UNL     1      -0.315   9.520  22.401  0.00  0.00    +0.000 N 
ATOM     29  O   UNL     1      -0.068  10.108  23.467  0.00  0.00    +0.000 OA
ATOM     30  O   UNL     1      -0.730   8.353  22.334  0.00  0.00    +0.000 OA
ENDBRANCH  27  28
ENDBRANCH  20  22
ENDBRANCH  17  19
ENDBRANCH   1  17
TORSDOF 6
ENDMDL
MODEL 5
REMARK VINA RESULT:      -8.4      4.964      7.360
REMARK  Name = 
REMARK  6 active torsions:
REMARK  status: ('A' for Active; 'I' for Inactive)
REMARK    1  A    between atoms: C_2  and  C_3
REMARK    2  A    between atoms: C_3  and  C_4
REMARK    3  A    between atoms: C_4  and  C_5
REMARK    4  A    between atoms: N_9  and  C_10
REMARK    5  A    between atoms: N_20  and  C_21
REMARK    6  A    between atoms: C_26  and  N_27
REMARK                            x       y       z     vdW  Elec       q    Type
REMARK                         _______ _______ _______ _____ _____    ______ ____
ROOT
ATOM      1  C   UNL     1       7.466   6.965  17.791  0.00  0.00    +0.000 C 
ENDROOT
BRANCH   1   2
ATOM      2  C   UNL     1       6.862   6.054  16.785  0.00  0.00    +0.000 A 
ATOM      3  N   UNL     1       7.544   5.365  15.892  0.00  0.00    +0.000 NA
ATOM      4  N   UNL     1       6.658   4.516  15.300  0.00  0.00    +0.000 NA
ATOM      5  N   UNL     1       5.444   4.669  15.802  0.00  0.00    +0.000 NA
ATOM      6  N   UNL     1       5.533   5.636  16.742  0.00  0.00    +0.000 N 
BRANCH   6   7
ATOM      7  C   UNL     1       4.417   6.081  17.505  0.00  0.00    +0.000 A 
ATOM      8  C   UNL     1       3.919   7.370  17.248  0.00  0.00    +0.000 A 
ATOM      9  C   UNL     1       2.924   7.930  18.034  0.00  0.00    +0.000 A 
ATOM     10  C   UNL     1       2.389   7.192  19.078  0.00  0.00    +0.000 A 
ATOM     11  C   UNL     1       2.814   5.879  19.325  0.00  0.00    +0.000 A 
ATOM     12  C   UNL     1       2.221   5.173  20.383  0.00  0.00    +0.000 A 
ATOM     13  C   UNL     1       2.604   3.871  20.685  0.00  0.00    +0.000 A 
ATOM     14  C   UNL     1       3.595   3.260  19.936  0.00  0.00    +0.000 A 
ATOM     15  C   UNL     1       4.205   3.954  18.888  0.00  0.00    +0.000 A 
ATOM     16  C   UNL     1       3.835   5.280  18.536  0.00  0.00    +0.000 A 
ENDBRANCH   6   7
ENDBRANCH   1   2
BRANCH   1  17
ATOM     17  C   UNL     1       7.551   8.412  17.296  0.00  0.00    +0.000 C 
BRANCH  17  19
ATOM     18  O   UNL     1       8.938   8.670  19.220  0.00  0.00    +0.000 OA
ATOM     19  C   UNL     1       8.389   9.216  18.262  0.00  0.00    +0.000 C 
ATOM     20  N   UNL     1       8.487  10.559  17.953  0.00  0.00    +0.000 N 
ATOM     21  H   UNL     1       7.745  10.967  17.388  0.00  0.00    +0.000 HD
BRANCH  20  22
ATOM     22  C   UNL     1       9.418  11.476  18.527  0.00  0.00    +0.000 A 
ATOM     23  C   UNL     1      10.578  10.993  19.156  0.00  0.00    +0.000 A 
ATOM     24  C   UNL     1      11.561  11.852  19.647  0.00  0.00    +0.000 A 
ATOM     25  C   UNL     1      11.425  13.226  19.504  0.00  0.00    +0.000 A 
ATOM     26  C   UNL     1      10.280  13.743  18.900  0.00  0.00    +0.000 A 
ATOM     27  C   UNL     1       9.272  12.876  18.427  0.00  0.00    +0.000 A 
BRANCH  27  28
ATOM     28  N   UNL     1       8.052  13.493  17.884  0.00  0.00    +0.000 N 
ATOM     29  O   UNL     1       7.718  14.609  18.316  0.00  0.00    +0.000 OA
ATOM     30  O   UNL     1       7.420  12.869  17.018  0.00  0.00    +0.000 OA
ENDBRANCH  27  28
ENDBRANCH  20  22
ENDBRANCH  17  19
ENDBRANCH   1  17
TORSDOF 6
ENDMDL
MODEL 6
REMARK VINA RESULT:      -8.3      5.219      7.599
REMARK  Name = 
REMARK  6 active torsions:
REMARK  status: ('A' for Active; 'I' for Inactive)
REMARK    1  A    between atoms: C_2  and  C_3
REMARK    2  A    between atoms: C_3  and  C_4
REMARK    3  A    between atoms: C_4  and  C_5
REMARK    4  A    between atoms: N_9  and  C_10
REMARK    5  A    between atoms: N_20  and  C_21
REMARK    6  A    between atoms: C_26  and  N_27
REMARK                            x       y       z     vdW  Elec       q    Type
REMARK                         _______ _______ _______ _____ _____    ______ ____
ROOT
ATOM      1  C   UNL     1       7.399   7.507  18.019  0.00  0.00    +0.000 C 
ENDROOT
BRANCH   1   2
ATOM      2  C   UNL     1       6.942   6.639  16.903  0.00  0.00    +0.000 A 
ATOM      3  N   UNL     1       7.724   6.167  15.953  0.00  0.00    +0.000 NA
ATOM      4  N   UNL     1       6.978   5.271  15.249  0.00  0.00    +0.000 NA
ATOM      5  N   UNL     1       5.752   5.184  15.738  0.00  0.00    +0.000 NA
ATOM      6  N   UNL     1       5.691   6.038  16.783  0.00  0.00    +0.000 N 
BRANCH   6   7
ATOM      7  C   UNL     1       4.517   6.222  17.566  0.00  0.00    +0.000 A 
ATOM      8  C   UNL     1       3.825   7.439  17.435  0.00  0.00    +0.000 A 
ATOM      9  C   UNL     1       2.753   7.752  18.256  0.00  0.00    +0.000 A 
ATOM     10  C   UNL     1       2.336   6.833  19.207  0.00  0.00    +0.000 A 
ATOM     11  C   UNL     1       2.959   5.583  19.324  0.00  0.00    +0.000 A 
ATOM     12  C   UNL     1       2.479   4.685  20.290  0.00  0.00    +0.000 A 
ATOM     13  C   UNL     1       3.059   3.434  20.462  0.00  0.00    +0.000 A 
ATOM     14  C   UNL     1       4.135   3.065  19.673  0.00  0.00    +0.000 A 
ATOM     15  C   UNL     1       4.633   3.952  18.715  0.00  0.00    +0.000 A 
ATOM     16  C   UNL     1       4.062   5.236  18.496  0.00  0.00    +0.000 A 
ENDBRANCH   6   7
ENDBRANCH   1   2
BRANCH   1  17
ATOM     17  C   UNL     1       7.540   8.974  17.603  0.00  0.00    +0.000 C 
BRANCH  17  19
ATOM     18  O   UNL     1       9.271   8.956  19.244  0.00  0.00    +0.000 OA
ATOM     19  C   UNL     1       8.637   9.615  18.419  0.00  0.00    +0.000 C 
ATOM     20  N   UNL     1       8.858  10.949  18.133  0.00  0.00    +0.000 N 
ATOM     21  H   UNL     1       8.088  11.476  17.725  0.00  0.00    +0.000 HD
BRANCH  20  22
ATOM     22  C   UNL     1       9.990  11.710  18.550  0.00  0.00    +0.000 A 
ATOM     23  C   UNL     1      11.128  11.778  17.729  0.00  0.00    +0.000 A 
ATOM     24  C   UNL     1      12.221  12.584  18.051  0.00  0.00    +0.000 A 
ATOM     25  C   UNL     1      12.199  13.367  19.196  0.00  0.00    +0.000 A 
ATOM     26  C   UNL     1      11.095  13.314  20.044  0.00  0.00    +0.000 A 
ATOM     27  C   UNL     1      10.000  12.478  19.734  0.00  0.00    +0.000 A 
BRANCH  27  28
ATOM     28  N   UNL     1       8.909  12.403  20.719  0.00  0.00    +0.000 N 
ATOM     29  O   UNL     1       8.805  11.369  21.399  0.00  0.00    +0.000 OA
ATOM     30  O   UNL     1       8.152  13.379  20.824  0.00  0.00    +0.000 OA
ENDBRANCH  27  28
ENDBRANCH  20  22
ENDBRANCH  17  19
ENDBRANCH   1  17
TORSDOF 6
ENDMDL
MODEL 7
REMARK VINA RESULT:      -8.2      1.442      1.643
REMARK  Name = 
REMARK  6 active torsions:
REMARK  status: ('A' for Active; 'I' for Inactive)
REMARK    1  A    between atoms: C_2  and  C_3
REMARK    2  A    between atoms: C_3  and  C_4
REMARK    3  A    between atoms: C_4  and  C_5
REMARK    4  A    between atoms: N_9  and  C_10
REMARK    5  A    between atoms: N_20  and  C_21
REMARK    6  A    between atoms: C_26  and  N_27
REMARK                            x       y       z     vdW  Elec       q    Type
REMARK                         _______ _______ _______ _____ _____    ______ ____
ROOT
ATOM      1  C   UNL     1       2.701   5.315  19.231  0.00  0.00    +0.000 C 
ENDROOT
BRANCH   1   2
ATOM      2  C   UNL     1       3.465   4.139  19.723  0.00  0.00    +0.000 A 
ATOM      3  N   UNL     1       2.942   3.133  20.396  0.00  0.00    +0.000 NA
ATOM      4  N   UNL     1       3.914   2.183  20.487  0.00  0.00    +0.000 NA
ATOM      5  N   UNL     1       5.026   2.582  19.892  0.00  0.00    +0.000 NA
ATOM      6  N   UNL     1       4.782   3.816  19.401  0.00  0.00    +0.000 N 
BRANCH   6   7
ATOM      7  C   UNL     1       5.753   4.575  18.690  0.00  0.00    +0.000 A 
ATOM      8  C   UNL     1       6.603   5.414  19.433  0.00  0.00    +0.000 A 
ATOM      9  C   UNL     1       7.484   6.284  18.809  0.00  0.00    +0.000 A 
ATOM     10  C   UNL     1       7.549   6.305  17.425  0.00  0.00    +0.000 A 
ATOM     11  C   UNL     1       6.766   5.438  16.651  0.00  0.00    +0.000 A 
ATOM     12  C   UNL     1       6.892   5.490  15.255  0.00  0.00    +0.000 A 
ATOM     13  C   UNL     1       6.137   4.663  14.432  0.00  0.00    +0.000 A 
ATOM     14  C   UNL     1       5.238   3.774  14.996  0.00  0.00    +0.000 A 
ATOM     15  C   UNL     1       5.091   3.718  16.385  0.00  0.00    +0.000 A 
ATOM     16  C   UNL     1       5.852   4.537  17.264  0.00  0.00    +0.000 A 
ENDBRANCH   6   7
ENDBRANCH   1   2
BRANCH   1  17
ATOM     17  C   UNL     1       2.055   6.113  20.368  0.00  0.00    +0.000 C 
BRANCH  17  19
ATOM     18  O   UNL     1       2.411   7.956  18.897  0.00  0.00    +0.000 OA
ATOM     19  C   UNL     1       1.868   7.543  19.922  0.00  0.00    +0.000 C 
ATOM     20  N   UNL     1       1.042   8.293  20.738  0.00  0.00    +0.000 N 
ATOM     21  H   UNL     1       0.940   7.994  21.706  0.00  0.00    +0.000 HD
BRANCH  20  22
ATOM     22  C   UNL     1       0.487   9.566  20.410  0.00  0.00    +0.000 A 
ATOM     23  C   UNL     1       0.417   9.974  19.067  0.00  0.00    +0.000 A 
ATOM     24  C   UNL     1      -0.202  11.166  18.691  0.00  0.00    +0.000 A 
ATOM     25  C   UNL     1      -0.792  11.980  19.648  0.00  0.00    +0.000 A 
ATOM     26  C   UNL     1      -0.728  11.617  20.992  0.00  0.00    +0.000 A 
ATOM     27  C   UNL     1      -0.078  10.425  21.377  0.00  0.00    +0.000 A 
BRANCH  27  28
ATOM     28  N   UNL     1       0.031  10.151  22.819  0.00  0.00    +0.000 N 
ATOM     29  O   UNL     1       1.109   9.713  23.252  0.00  0.00    +0.000 OA
ATOM     30  O   UNL     1      -0.960  10.378  23.530  0.00  0.00    +0.000 OA
ENDBRANCH  27  28
ENDBRANCH  20  22
ENDBRANCH  17  19
ENDBRANCH   1  17
TORSDOF 6
ENDMDL
MODEL 8
REMARK VINA RESULT:      -8.2      1.981      3.999
REMARK  Name = 
REMARK  6 active torsions:
REMARK  status: ('A' for Active; 'I' for Inactive)
REMARK    1  A    between atoms: C_2  and  C_3
REMARK    2  A    between atoms: C_3  and  C_4
REMARK    3  A    between atoms: C_4  and  C_5
REMARK    4  A    between atoms: N_9  and  C_10
REMARK    5  A    between atoms: N_20  and  C_21
REMARK    6  A    between atoms: C_26  and  N_27
REMARK                            x       y       z     vdW  Elec       q    Type
REMARK                         _______ _______ _______ _____ _____    ______ ____
ROOT
ATOM      1  C   UNL     1       3.873   6.998  17.372  0.00  0.00    +0.000 C 
ENDROOT
BRANCH   1   2
ATOM      2  C   UNL     1       5.076   6.258  17.832  0.00  0.00    +0.000 A 
ATOM      3  N   UNL     1       6.254   6.807  18.054  0.00  0.00    +0.000 NA
ATOM      4  N   UNL     1       7.022   5.848  18.643  0.00  0.00    +0.000 NA
ATOM      5  N   UNL     1       6.348   4.718  18.783  0.00  0.00    +0.000 NA
ATOM      6  N   UNL     1       5.115   4.938  18.278  0.00  0.00    +0.000 N 
BRANCH   6   7
ATOM      7  C   UNL     1       4.098   3.943  18.252  0.00  0.00    +0.000 A 
ATOM      8  C   UNL     1       3.950   3.187  17.076  0.00  0.00    +0.000 A 
ATOM      9  C   UNL     1       2.902   2.293  16.919  0.00  0.00    +0.000 A 
ATOM     10  C   UNL     1       1.999   2.119  17.956  0.00  0.00    +0.000 A 
ATOM     11  C   UNL     1       2.151   2.805  19.169  0.00  0.00    +0.000 A 
ATOM     12  C   UNL     1       1.218   2.572  20.190  0.00  0.00    +0.000 A 
ATOM     13  C   UNL     1       1.308   3.228  21.412  0.00  0.00    +0.000 A 
ATOM     14  C   UNL     1       2.332   4.134  21.627  0.00  0.00    +0.000 A 
ATOM     15  C   UNL     1       3.262   4.388  20.616  0.00  0.00    +0.000 A 
ATOM     16  C   UNL     1       3.215   3.730  19.356  0.00  0.00    +0.000 A 
ENDBRANCH   6   7
ENDBRANCH   1   2
BRANCH   1  17
ATOM     17  C   UNL     1       2.894   7.295  18.512  0.00  0.00    +0.000 C 
BRANCH  17  19
ATOM     18  O   UNL     1       2.373   9.192  17.163  0.00  0.00    +0.000 OA
ATOM     19  C   UNL     1       2.161   8.580  18.211  0.00  0.00    +0.000 C 
ATOM     20  N   UNL     1       1.253   8.962  19.181  0.00  0.00    +0.000 N 
ATOM     21  H   UNL     1       1.402   8.615  20.126  0.00  0.00    +0.000 HD
BRANCH  20  22
ATOM     22  C   UNL     1       0.250   9.964  19.028  0.00  0.00    +0.000 A 
ATOM     23  C   UNL     1      -0.657   9.890  17.958  0.00  0.00    +0.000 A 
ATOM     24  C   UNL     1      -1.711  10.793  17.822  0.00  0.00    +0.000 A 
ATOM     25  C   UNL     1      -1.906  11.789  18.768  0.00  0.00    +0.000 A 
ATOM     26  C   UNL     1      -1.018  11.905  19.835  0.00  0.00    +0.000 A 
ATOM     27  C   UNL     1       0.066  11.009  19.960  0.00  0.00    +0.000 A 
BRANCH  27  28
ATOM     28  N   UNL     1       1.015  11.247  21.059  0.00  0.00    +0.000 N 
ATOM     29  O   UNL     1       1.610  12.337  21.094  0.00  0.00    +0.000 OA
ATOM     30  O   UNL     1       1.169  10.347  21.898  0.00  0.00    +0.000 OA
ENDBRANCH  27  28
ENDBRANCH  20  22
ENDBRANCH  17  19
ENDBRANCH   1  17
TORSDOF 6
ENDMDL
MODEL 9
REMARK VINA RESULT:      -8.1      5.327      7.497
REMARK  Name = 
REMARK  6 active torsions:
REMARK  status: ('A' for Active; 'I' for Inactive)
REMARK    1  A    between atoms: C_2  and  C_3
REMARK    2  A    between atoms: C_3  and  C_4
REMARK    3  A    between atoms: C_4  and  C_5
REMARK    4  A    between atoms: N_9  and  C_10
REMARK    5  A    between atoms: N_20  and  C_21
REMARK    6  A    between atoms: C_26  and  N_27
REMARK                            x       y       z     vdW  Elec       q    Type
REMARK                         _______ _______ _______ _____ _____    ______ ____
ROOT
ATOM      1  C   UNL     1       7.097   7.455  18.204  0.00  0.00    +0.000 C 
ENDROOT
BRANCH   1   2
ATOM      2  C   UNL     1       6.611   6.659  17.048  0.00  0.00    +0.000 A 
ATOM      3  N   UNL     1       7.369   6.242  16.054  0.00  0.00    +0.000 NA
ATOM      4  N   UNL     1       6.602   5.394  15.313  0.00  0.00    +0.000 NA
ATOM      5  N   UNL     1       5.387   5.283  15.824  0.00  0.00    +0.000 NA
ATOM      6  N   UNL     1       5.354   6.072  16.919  0.00  0.00    +0.000 N 
BRANCH   6   7
ATOM      7  C   UNL     1       4.199   6.213  17.739  0.00  0.00    +0.000 A 
ATOM      8  C   UNL     1       3.478   7.418  17.655  0.00  0.00    +0.000 A 
ATOM      9  C   UNL     1       2.424   7.690  18.512  0.00  0.00    +0.000 A 
ATOM     10  C   UNL     1       2.052   6.741  19.452  0.00  0.00    +0.000 A 
ATOM     11  C   UNL     1       2.703   5.502  19.523  0.00  0.00    +0.000 A 
ATOM     12  C   UNL     1       2.269   4.572  20.480  0.00  0.00    +0.000 A 
ATOM     13  C   UNL     1       2.879   3.330  20.607  0.00  0.00    +0.000 A 
ATOM     14  C   UNL     1       3.940   3.002  19.781  0.00  0.00    +0.000 A 
ATOM     15  C   UNL     1       4.393   3.921  18.831  0.00  0.00    +0.000 A 
ATOM     16  C   UNL     1       3.790   5.197  18.658  0.00  0.00    +0.000 A 
ENDBRANCH   6   7
ENDBRANCH   1   2
BRANCH   1  17
ATOM     17  C   UNL     1       8.513   7.997  17.991  0.00  0.00    +0.000 C 
BRANCH  17  19
ATOM     18  O   UNL     1       7.767  10.254  17.796  0.00  0.00    +0.000 OA
ATOM     19  C   UNL     1       8.539   9.466  18.343  0.00  0.00    +0.000 C 
ATOM     20  N   UNL     1       9.460   9.805  19.315  0.00  0.00    +0.000 N 
ATOM     21  H   UNL     1      10.261   9.190  19.439  0.00  0.00    +0.000 HD
BRANCH  20  22
ATOM     22  C   UNL     1       9.504  11.046  20.018  0.00  0.00    +0.000 A 
ATOM     23  C   UNL     1       8.964  11.138  21.311  0.00  0.00    +0.000 A 
ATOM     24  C   UNL     1       9.069  12.303  22.072  0.00  0.00    +0.000 A 
ATOM     25  C   UNL     1       9.739  13.409  21.568  0.00  0.00    +0.000 A 
ATOM     26  C   UNL     1      10.273  13.362  20.282  0.00  0.00    +0.000 A 
ATOM     27  C   UNL     1      10.144  12.193  19.501  0.00  0.00    +0.000 A 
BRANCH  27  28
ATOM     28  N   UNL     1      10.652  12.245  18.121  0.00  0.00    +0.000 N 
ATOM     29  O   UNL     1      10.068  12.982  17.309  0.00  0.00    +0.000 OA
ATOM     30  O   UNL     1      11.643  11.554  17.840  0.00  0.00    +0.000 OA
ENDBRANCH  27  28
ENDBRANCH  20  22
ENDBRANCH  17  19
ENDBRANCH   1  17
TORSDOF 6
ENDMDL
