MODEL 1
REMARK VINA RESULT:      -8.6      0.000      0.000
REMARK  Name = 
REMARK  6 active torsions:
REMARK  status: ('A' for Active; 'I' for Inactive)
REMARK    1  A    between atoms: C_5  and  C_6
REMARK    2  A    between atoms: C_9  and  C_10
REMARK    3  A    between atoms: C_10  and  N_11
REMARK    4  A    between atoms: C_10  and  C_19
REMARK    5  A    between atoms: N_11  and  C_12
REMARK    6  A    between atoms: C_12  and  C_13
REMARK                            x       y       z     vdW  Elec       q    Type
REMARK                         _______ _______ _______ _____ _____    ______ ____
ROOT
ATOM      1  C   UNL     1       3.848   5.841  18.285  0.00  0.00    +0.000 C 
ENDROOT
BRANCH   1   2
ATOM      2  C   UNL     1       5.348   5.981  18.190  0.00  0.00    +0.000 A 
ATOM      3  C   UNL     1       6.367   5.469  18.977  0.00  0.00    +0.000 A 
ATOM      4  C   UNL     1       7.587   5.992  18.495  0.00  0.00    +0.000 A 
ATOM      5  C   UNL     1       7.288   6.811  17.430  0.00  0.00    +0.000 A 
ATOM      6  N   UNL     1       5.933   6.784  17.238  0.00  0.00    +0.000 N 
ATOM      7  H   UNL     1       5.438   7.317  16.531  0.00  0.00    +0.000 HD
ENDBRANCH   1   2
BRANCH   1  11
ATOM      8  C   UNL     1       1.844   8.770  18.761  0.00  0.00    +0.000 A 
ATOM      9  N   UNL     1       2.170   8.982  17.502  0.00  0.00    +0.000 NA
ATOM     10  N   UNL     1       2.997   7.948  17.126  0.00  0.00    +0.000 NA
ATOM     11  C   UNL     1       3.128   7.166  18.182  0.00  0.00    +0.000 A 
ATOM     12  O   UNL     1       2.438   7.648  19.276  0.00  0.00    +0.000 OA
BRANCH   8  17
ATOM     13 CL   UNL     1      -1.857  11.852  22.358  0.00  0.00    +0.000 Cl
ATOM     14  C   UNL     1      -0.778  10.949  21.355  0.00  0.00    +0.000 A 
ATOM     15  C   UNL     1      -0.722  11.273  19.997  0.00  0.00    +0.000 A 
ATOM     16  C   UNL     1       0.131  10.569  19.135  0.00  0.00    +0.000 A 
ATOM     17  C   UNL     1       0.935   9.528  19.618  0.00  0.00    +0.000 A 
ATOM     18  C   UNL     1       0.873   9.218  20.987  0.00  0.00    +0.000 A 
ATOM     19  C   UNL     1       0.025   9.920  21.852  0.00  0.00    +0.000 A 
ATOM     20 CL   UNL     1       0.026   9.469  23.520  0.00  0.00    +0.000 Cl
ENDBRANCH   8  17
ENDBRANCH   1  11
BRANCH   1  21
ATOM     21  N   UNL     1       3.358   4.856  17.307  0.00  0.00    +0.000 NA
ATOM     22  H   UNL     1       3.868   4.968  16.434  0.00  0.00    +0.000 HD
BRANCH  21  23
ATOM     23  C   UNL     1       3.516   3.475  17.776  0.00  0.00    +0.000 C 
BRANCH  23  24
ATOM     24  C   UNL     1       2.760   3.237  19.060  0.00  0.00    +0.000 A 
ATOM     25  C   UNL     1       1.372   3.439  19.117  0.00  0.00    +0.000 A 
ATOM     26  C   UNL     1       0.673   3.227  20.306  0.00  0.00    +0.000 A 
ATOM     27  C   UNL     1       1.353   2.808  21.448  0.00  0.00    +0.000 A 
ATOM     28  C   UNL     1       2.730   2.592  21.400  0.00  0.00    +0.000 A 
ATOM     29  C   UNL     1       3.430   2.800  20.211  0.00  0.00    +0.000 A 
ENDBRANCH  23  24
ENDBRANCH  21  23
ENDBRANCH   1  21
TORSDOF 6
ENDMDL
MODEL 2
REMARK VINA RESULT:      -8.6      0.677      1.379
REMARK  Name = 
REMARK  6 active torsions:
REMARK  status: ('A' for Active; 'I' for Inactive)
REMARK    1  A    between atoms: C_5  and  C_6
REMARK    2  A    between atoms: C_9  and  C_10
REMARK    3  A    between atoms: C_10  and  N_11
REMARK    4  A    between atoms: C_10  and  C_19
REMARK    5  A    between atoms: N_11  and  C_12
REMARK    6  A    between atoms: C_12  and  C_13
REMARK                            x       y       z     vdW  Elec       q    Type
REMARK                         _______ _______ _______ _____ _____    ______ ____
ROOT
ATOM      1  C   UNL     1       4.009   5.624  18.365  0.00  0.00    +0.000 C 
ENDROOT
BRANCH   1   2
ATOM      2  C   UNL     1       5.497   5.866  18.311  0.00  0.00    +0.000 A 
ATOM      3  C   UNL     1       6.532   5.392  19.100  0.00  0.00    +0.000 A 
ATOM      4  C   UNL     1       7.724   6.014  18.667  0.00  0.00    +0.000 A 
ATOM      5  C   UNL     1       7.392   6.853  17.629  0.00  0.00    +0.000 A 
ATOM      6  N   UNL     1       6.047   6.745  17.404  0.00  0.00    +0.000 N 
ATOM      7  H   UNL     1       5.531   7.271  16.708  0.00  0.00    +0.000 HD
ENDBRANCH   1   2
BRANCH   1  11
ATOM      8  C   UNL     1       1.912   8.399  19.219  0.00  0.00    +0.000 A 
ATOM      9  N   UNL     1       2.072   8.684  17.943  0.00  0.00    +0.000 NA
ATOM     10  N   UNL     1       2.906   7.721  17.421  0.00  0.00    +0.000 NA
ATOM     11  C   UNL     1       3.207   6.904  18.414  0.00  0.00    +0.000 A 
ATOM     12  O   UNL     1       2.627   7.294  19.604  0.00  0.00    +0.000 OA
BRANCH   8  17
ATOM     13 CL   UNL     1      -1.590  11.166  23.244  0.00  0.00    +0.000 Cl
ATOM     14  C   UNL     1      -0.600  10.391  22.060  0.00  0.00    +0.000 A 
ATOM     15  C   UNL     1       0.185   9.310  22.469  0.00  0.00    +0.000 A 
ATOM     16  C   UNL     1       1.013   8.648  21.552  0.00  0.00    +0.000 A 
ATOM     17  C   UNL     1       1.071   9.060  20.213  0.00  0.00    +0.000 A 
ATOM     18  C   UNL     1       0.271  10.145  19.815  0.00  0.00    +0.000 A 
ATOM     19  C   UNL     1      -0.559  10.808  20.727  0.00  0.00    +0.000 A 
ATOM     20 CL   UNL     1      -1.510  12.125  20.138  0.00  0.00    +0.000 Cl
ENDBRANCH   8  17
ENDBRANCH   1  11
BRANCH   1  21
ATOM     21  N   UNL     1       3.589   4.737  17.267  0.00  0.00    +0.000 NA
ATOM     22  H   UNL     1       4.245   4.827  16.495  0.00  0.00    +0.000 HD
BRANCH  21  23
ATOM     23  C   UNL     1       3.525   3.331  17.676  0.00  0.00    +0.000 C 
BRANCH  23  24
ATOM     24  C   UNL     1       2.762   3.164  18.967  0.00  0.00    +0.000 A 
ATOM     25  C   UNL     1       1.379   3.400  19.013  0.00  0.00    +0.000 A 
ATOM     26  C   UNL     1       0.673   3.255  20.208  0.00  0.00    +0.000 A 
ATOM     27  C   UNL     1       1.342   2.870  21.369  0.00  0.00    +0.000 A 
ATOM     28  C   UNL     1       2.714   2.620  21.333  0.00  0.00    +0.000 A 
ATOM     29  C   UNL     1       3.420   2.762  20.138  0.00  0.00    +0.000 A 
ENDBRANCH  23  24
ENDBRANCH  21  23
ENDBRANCH   1  21
TORSDOF 6
ENDMDL
MODEL 3
REMARK VINA RESULT:      -8.4      2.734      4.598
REMARK  Name = 
REMARK  6 active torsions:
REMARK  status: ('A' for Active; 'I' for Inactive)
REMARK    1  A    between atoms: C_5  and  C_6
REMARK    2  A    between atoms: C_9  and  C_10
REMARK    3  A    between atoms: C_10  and  N_11
REMARK    4  A    between atoms: C_10  and  C_19
REMARK    5  A    between atoms: N_11  and  C_12
REMARK    6  A    between atoms: C_12  and  C_13
REMARK                            x       y       z     vdW  Elec       q    Type
REMARK                         _______ _______ _______ _____ _____    ______ ____
ROOT
ATOM      1  C   UNL     1       5.306   5.067  17.749  0.00  0.00    +0.000 C 
ENDROOT
BRANCH   1   2
ATOM      2  C   UNL     1       6.430   6.066  17.863  0.00  0.00    +0.000 A 
ATOM      3  C   UNL     1       7.538   6.109  18.694  0.00  0.00    +0.000 A 
ATOM      4  C   UNL     1       8.217   7.322  18.444  0.00  0.00    +0.000 A 
ATOM      5  C   UNL     1       7.511   7.993  17.473  0.00  0.00    +0.000 A 
ATOM      6  N   UNL     1       6.442   7.220  17.110  0.00  0.00    +0.000 N 
ATOM      7  H   UNL     1       5.741   7.483  16.426  0.00  0.00    +0.000 HD
ENDBRANCH   1   2
BRANCH   1  11
ATOM      8  C   UNL     1       2.608   6.658  19.485  0.00  0.00    +0.000 A 
ATOM      9  N   UNL     1       2.557   5.497  20.107  0.00  0.00    +0.000 NA
ATOM     10  N   UNL     1       3.528   4.701  19.543  0.00  0.00    +0.000 NA
ATOM     11  C   UNL     1       4.112   5.426  18.605  0.00  0.00    +0.000 A 
ATOM     12  O   UNL     1       3.554   6.683  18.494  0.00  0.00    +0.000 OA
BRANCH   8  17
ATOM     13 CL   UNL     1      -0.539  11.648  20.634  0.00  0.00    +0.000 Cl
ATOM     14  C   UNL     1       0.364  10.206  20.341  0.00  0.00    +0.000 A 
ATOM     15  C   UNL     1       0.902  10.018  19.065  0.00  0.00    +0.000 A 
ATOM     16  C   UNL     1       1.638   8.862  18.769  0.00  0.00    +0.000 A 
ATOM     17  C   UNL     1       1.842   7.875  19.743  0.00  0.00    +0.000 A 
ATOM     18  C   UNL     1       1.301   8.081  21.024  0.00  0.00    +0.000 A 
ATOM     19  C   UNL     1       0.568   9.235  21.325  0.00  0.00    +0.000 A 
ATOM     20 CL   UNL     1      -0.050   9.398  22.930  0.00  0.00    +0.000 Cl
ENDBRANCH   8  17
ENDBRANCH   1  11
BRANCH   1  21
ATOM     21  N   UNL     1       4.943   4.855  16.338  0.00  0.00    +0.000 NA
ATOM     22  H   UNL     1       5.192   5.681  15.800  0.00  0.00    +0.000 HD
BRANCH  21  23
ATOM     23  C   UNL     1       5.616   3.689  15.756  0.00  0.00    +0.000 C 
BRANCH  23  24
ATOM     24  C   UNL     1       6.229   4.015  14.417  0.00  0.00    +0.000 A 
ATOM     25  C   UNL     1       5.786   3.367  13.254  0.00  0.00    +0.000 A 
ATOM     26  C   UNL     1       6.357   3.661  12.015  0.00  0.00    +0.000 A 
ATOM     27  C   UNL     1       7.376   4.608  11.926  0.00  0.00    +0.000 A 
ATOM     28  C   UNL     1       7.816   5.268  13.073  0.00  0.00    +0.000 A 
ATOM     29  C   UNL     1       7.244   4.977  14.311  0.00  0.00    +0.000 A 
ENDBRANCH  23  24
ENDBRANCH  21  23
ENDBRANCH   1  21
TORSDOF 6
ENDMDL
MODEL 4
REMARK VINA RESULT:      -8.3      1.714      4.403
REMARK  Name = 
REMARK  6 active torsions:
REMARK  status: ('A' for Active; 'I' for Inactive)
REMARK    1  A    between atoms: C_5  and  C_6
REMARK    2  A    between atoms: C_9  and  C_10
REMARK    3  A    between atoms: C_10  and  N_11
REMARK    4  A    between atoms: C_10  and  C_19
REMARK    5  A    between atoms: N_11  and  C_12
REMARK    6  A    between atoms: C_12  and  C_13
REMARK                            x       y       z     vdW  Elec       q    Type
REMARK                         _______ _______ _______ _____ _____    ______ ____
ROOT
ATOM      1  C   UNL     1       3.252   5.597  18.649  0.00  0.00    +0.000 C 
ENDROOT
BRANCH   1   2
ATOM      2  C   UNL     1       2.347   4.566  19.276  0.00  0.00    +0.000 A 
ATOM      3  C   UNL     1       1.440   3.681  18.715  0.00  0.00    +0.000 A 
ATOM      4  C   UNL     1       0.788   3.006  19.770  0.00  0.00    +0.000 A 
ATOM      5  C   UNL     1       1.306   3.493  20.948  0.00  0.00    +0.000 A 
ATOM      6  N   UNL     1       2.263   4.422  20.643  0.00  0.00    +0.000 N 
ATOM      7  H   UNL     1       2.792   4.955  21.324  0.00  0.00    +0.000 HD
ENDBRANCH   1   2
BRANCH   1  11
ATOM      8  C   UNL     1       1.592   8.644  19.534  0.00  0.00    +0.000 A 
ATOM      9  N   UNL     1       1.968   8.994  18.320  0.00  0.00    +0.000 NA
ATOM     10  N   UNL     1       2.677   7.934  17.802  0.00  0.00    +0.000 NA
ATOM     11  C   UNL     1       2.693   6.999  18.735  0.00  0.00    +0.000 A 
ATOM     12  O   UNL     1       2.040   7.397  19.884  0.00  0.00    +0.000 OA
BRANCH   8  17
ATOM     13 CL   UNL     1      -1.872  11.691  23.386  0.00  0.00    +0.000 Cl
ATOM     14  C   UNL     1      -0.891  10.836  22.251  0.00  0.00    +0.000 A 
ATOM     15  C   UNL     1      -0.169   9.732  22.710  0.00  0.00    +0.000 A 
ATOM     16  C   UNL     1       0.649   9.004  21.834  0.00  0.00    +0.000 A 
ATOM     17  C   UNL     1       0.759   9.374  20.486  0.00  0.00    +0.000 A 
ATOM     18  C   UNL     1       0.022  10.482  20.036  0.00  0.00    +0.000 A 
ATOM     19  C   UNL     1      -0.798  11.210  20.907  0.00  0.00    +0.000 A 
ATOM     20 CL   UNL     1      -1.671  12.552  20.257  0.00  0.00    +0.000 Cl
ENDBRANCH   8  17
ENDBRANCH   1  11
BRANCH   1  21
ATOM     21  N   UNL     1       4.612   5.498  19.206  0.00  0.00    +0.000 NA
ATOM     22  H   UNL     1       4.558   5.489  20.222  0.00  0.00    +0.000 HD
BRANCH  21  23
ATOM     23  C   UNL     1       5.314   4.291  18.757  0.00  0.00    +0.000 C 
BRANCH  23  24
ATOM     24  C   UNL     1       5.780   4.422  17.327  0.00  0.00    +0.000 A 
ATOM     25  C   UNL     1       7.038   4.971  17.035  0.00  0.00    +0.000 A 
ATOM     26  C   UNL     1       7.467   5.100  15.713  0.00  0.00    +0.000 A 
ATOM     27  C   UNL     1       6.642   4.680  14.671  0.00  0.00    +0.000 A 
ATOM     28  C   UNL     1       5.395   4.121  14.949  0.00  0.00    +0.000 A 
ATOM     29  C   UNL     1       4.967   3.989  16.270  0.00  0.00    +0.000 A 
ENDBRANCH  23  24
ENDBRANCH  21  23
ENDBRANCH   1  21
TORSDOF 6
ENDMDL
MODEL 5
REMARK VINA RESULT:      -8.2      1.582      4.064
REMARK  Name = 
REMARK  6 active torsions:
REMARK  status: ('A' for Active; 'I' for Inactive)
REMARK    1  A    between atoms: C_5  and  C_6
REMARK    2  A    between atoms: C_9  and  C_10
REMARK    3  A    between atoms: C_10  and  N_11
REMARK    4  A    between atoms: C_10  and  C_19
REMARK    5  A    between atoms: N_11  and  C_12
REMARK    6  A    between atoms: C_12  and  C_13
REMARK                            x       y       z     vdW  Elec       q    Type
REMARK                         _______ _______ _______ _____ _____    ______ ____
ROOT
ATOM      1  C   UNL     1       3.361   5.802  18.303  0.00  0.00    +0.000 C 
ENDROOT
BRANCH   1   2
ATOM      2  C   UNL     1       2.381   4.815  18.887  0.00  0.00    +0.000 A 
ATOM      3  C   UNL     1       1.648   3.796  18.301  0.00  0.00    +0.000 A 
ATOM      4  C   UNL     1       0.810   3.242  19.295  0.00  0.00    +0.000 A 
ATOM      5  C   UNL     1       1.046   3.933  20.460  0.00  0.00    +0.000 A 
ATOM      6  N   UNL     1       2.012   4.871  20.213  0.00  0.00    +0.000 N 
ATOM      7  H   UNL     1       2.363   5.535  20.894  0.00  0.00    +0.000 HD
ENDBRANCH   1   2
BRANCH   1  11
ATOM      8  C   UNL     1       1.663   8.913  18.815  0.00  0.00    +0.000 A 
ATOM      9  N   UNL     1       2.135   9.166  17.611  0.00  0.00    +0.000 NA
ATOM     10  N   UNL     1       2.874   8.067  17.234  0.00  0.00    +0.000 NA
ATOM     11  C   UNL     1       2.809   7.208  18.235  0.00  0.00    +0.000 A 
ATOM     12  O   UNL     1       2.071   7.696  19.295  0.00  0.00    +0.000 OA
BRANCH   8  17
ATOM     13 CL   UNL     1      -2.002  12.182  22.281  0.00  0.00    +0.000 Cl
ATOM     14  C   UNL     1      -0.936  11.225  21.316  0.00  0.00    +0.000 A 
ATOM     15  C   UNL     1      -0.806  11.551  19.964  0.00  0.00    +0.000 A 
ATOM     16  C   UNL     1       0.040  10.804  19.131  0.00  0.00    +0.000 A 
ATOM     17  C   UNL     1       0.764   9.717  19.639  0.00  0.00    +0.000 A 
ATOM     18  C   UNL     1       0.629   9.404  21.002  0.00  0.00    +0.000 A 
ATOM     19  C   UNL     1      -0.213  10.149  21.838  0.00  0.00    +0.000 A 
ATOM     20 CL   UNL     1      -0.307   9.690  23.501  0.00  0.00    +0.000 Cl
ENDBRANCH   8  17
ENDBRANCH   1  11
BRANCH   1  21
ATOM     21  N   UNL     1       4.648   5.736  19.016  0.00  0.00    +0.000 NA
ATOM     22  H   UNL     1       4.477   5.760  20.018  0.00  0.00    +0.000 HD
BRANCH  21  23
ATOM     23  C   UNL     1       5.405   4.523  18.691  0.00  0.00    +0.000 C 
BRANCH  23  24
ATOM     24  C   UNL     1       5.838   4.510  17.246  0.00  0.00    +0.000 A 
ATOM     25  C   UNL     1       5.037   3.900  16.268  0.00  0.00    +0.000 A 
ATOM     26  C   UNL     1       5.439   3.880  14.931  0.00  0.00    +0.000 A 
ATOM     27  C   UNL     1       6.644   4.473  14.559  0.00  0.00    +0.000 A 
ATOM     28  C   UNL     1       7.442   5.094  15.520  0.00  0.00    +0.000 A 
ATOM     29  C   UNL     1       7.040   5.116  16.855  0.00  0.00    +0.000 A 
ENDBRANCH  23  24
ENDBRANCH  21  23
ENDBRANCH   1  21
TORSDOF 6
ENDMDL
MODEL 6
REMARK VINA RESULT:      -8.1      2.958      4.965
REMARK  Name = 
REMARK  6 active torsions:
REMARK  status: ('A' for Active; 'I' for Inactive)
REMARK    1  A    between atoms: C_5  and  C_6
REMARK    2  A    between atoms: C_9  and  C_10
REMARK    3  A    between atoms: C_10  and  N_11
REMARK    4  A    between atoms: C_10  and  C_19
REMARK    5  A    between atoms: N_11  and  C_12
REMARK    6  A    between atoms: C_12  and  C_13
REMARK                            x       y       z     vdW  Elec       q    Type
REMARK                         _______ _______ _______ _____ _____    ______ ____
ROOT
ATOM      1  C   UNL     1       5.978   4.477  18.158  0.00  0.00    +0.000 C 
ENDROOT
BRANCH   1   2
ATOM      2  C   UNL     1       6.840   5.715  18.143  0.00  0.00    +0.000 A 
ATOM      3  C   UNL     1       7.907   6.098  18.940  0.00  0.00    +0.000 A 
ATOM      4  C   UNL     1       8.288   7.402  18.551  0.00  0.00    +0.000 A 
ATOM      5  C   UNL     1       7.449   7.786  17.531  0.00  0.00    +0.000 A 
ATOM      6  N   UNL     1       6.588   6.753  17.274  0.00  0.00    +0.000 N 
ATOM      7  H   UNL     1       5.847   6.775  16.582  0.00  0.00    +0.000 HD
ENDBRANCH   1   2
BRANCH   1  11
ATOM      8  C   UNL     1       2.886   5.893  19.281  0.00  0.00    +0.000 A 
ATOM      9  N   UNL     1       2.526   4.627  19.323  0.00  0.00    +0.000 NA
ATOM     10  N   UNL     1       3.602   3.892  18.880  0.00  0.00    +0.000 NA
ATOM     11  C   UNL     1       4.557   4.758  18.591  0.00  0.00    +0.000 A 
ATOM     12  O   UNL     1       4.158   6.062  18.798  0.00  0.00    +0.000 OA
BRANCH   8  17
ATOM     13 CL   UNL     1      -0.157  10.797  20.959  0.00  0.00    +0.000 Cl
ATOM     14  C   UNL     1       0.722   9.403  20.443  0.00  0.00    +0.000 A 
ATOM     15  C   UNL     1       0.758   8.298  21.296  0.00  0.00    +0.000 A 
ATOM     16  C   UNL     1       1.462   7.142  20.932  0.00  0.00    +0.000 A 
ATOM     17  C   UNL     1       2.145   7.077  19.709  0.00  0.00    +0.000 A 
ATOM     18  C   UNL     1       2.095   8.193  18.857  0.00  0.00    +0.000 A 
ATOM     19  C   UNL     1       1.391   9.349  19.217  0.00  0.00    +0.000 A 
ATOM     20 CL   UNL     1       1.383  10.666  18.098  0.00  0.00    +0.000 Cl
ENDBRANCH   8  17
ENDBRANCH   1  11
BRANCH   1  21
ATOM     21  N   UNL     1       6.045   3.784  16.860  0.00  0.00    +0.000 NA
ATOM     22  H   UNL     1       5.690   2.837  16.968  0.00  0.00    +0.000 HD
BRANCH  21  23
ATOM     23  C   UNL     1       5.269   4.467  15.820  0.00  0.00    +0.000 C 
BRANCH  23  24
ATOM     24  C   UNL     1       5.942   4.370  14.473  0.00  0.00    +0.000 A 
ATOM     25  C   UNL     1       7.102   5.113  14.201  0.00  0.00    +0.000 A 
ATOM     26  C   UNL     1       7.721   5.030  12.953  0.00  0.00    +0.000 A 
ATOM     27  C   UNL     1       7.189   4.201  11.966  0.00  0.00    +0.000 A 
ATOM     28  C   UNL     1       6.046   3.448  12.229  0.00  0.00    +0.000 A 
ATOM     29  C   UNL     1       5.427   3.528  13.477  0.00  0.00    +0.000 A 
ENDBRANCH  23  24
ENDBRANCH  21  23
ENDBRANCH   1  21
TORSDOF 6
ENDMDL
MODEL 7
REMARK VINA RESULT:      -8.0      2.866      4.811
REMARK  Name = 
REMARK  6 active torsions:
REMARK  status: ('A' for Active; 'I' for Inactive)
REMARK    1  A    between atoms: C_5  and  C_6
REMARK    2  A    between atoms: C_9  and  C_10
REMARK    3  A    between atoms: C_10  and  N_11
REMARK    4  A    between atoms: C_10  and  C_19
REMARK    5  A    between atoms: N_11  and  C_12
REMARK    6  A    between atoms: C_12  and  C_13
REMARK                            x       y       z     vdW  Elec       q    Type
REMARK                         _______ _______ _______ _____ _____    ______ ____
ROOT
ATOM      1  C   UNL     1       5.414   4.230  17.961  0.00  0.00    +0.000 C 
ENDROOT
BRANCH   1   2
ATOM      2  C   UNL     1       6.501   5.189  18.376  0.00  0.00    +0.000 A 
ATOM      3  C   UNL     1       7.077   6.263  17.715  0.00  0.00    +0.000 A 
ATOM      4  C   UNL     1       8.122   6.758  18.527  0.00  0.00    +0.000 A 
ATOM      5  C   UNL     1       8.163   5.978  19.660  0.00  0.00    +0.000 A 
ATOM      6  N   UNL     1       7.168   5.043  19.572  0.00  0.00    +0.000 N 
ATOM      7  H   UNL     1       6.985   4.324  20.263  0.00  0.00    +0.000 HD
ENDBRANCH   1   2
BRANCH   1  11
ATOM      8  C   UNL     1       2.537   6.302  18.466  0.00  0.00    +0.000 A 
ATOM      9  N   UNL     1       1.903   5.162  18.277  0.00  0.00    +0.000 NA
ATOM     10  N   UNL     1       2.863   4.210  18.024  0.00  0.00    +0.000 NA
ATOM     11  C   UNL     1       4.030   4.828  18.071  0.00  0.00    +0.000 A 
ATOM     12  O   UNL     1       3.895   6.178  18.322  0.00  0.00    +0.000 OA
BRANCH   8  17
ATOM     13 CL   UNL     1       0.319  11.653  20.070  0.00  0.00    +0.000 Cl
ATOM     14  C   UNL     1       0.958  10.105  19.646  0.00  0.00    +0.000 A 
ATOM     15  C   UNL     1       1.309   9.885  18.311  0.00  0.00    +0.000 A 
ATOM     16  C   UNL     1       1.826   8.646  17.909  0.00  0.00    +0.000 A 
ATOM     17  C   UNL     1       1.996   7.608  18.835  0.00  0.00    +0.000 A 
ATOM     18  C   UNL     1       1.645   7.845  20.175  0.00  0.00    +0.000 A 
ATOM     19  C   UNL     1       1.131   9.082  20.582  0.00  0.00    +0.000 A 
ATOM     20 CL   UNL     1       0.736   9.279  22.253  0.00  0.00    +0.000 Cl
ENDBRANCH   8  17
ENDBRANCH   1  11
BRANCH   1  21
ATOM     21  N   UNL     1       5.688   3.686  16.619  0.00  0.00    +0.000 NA
ATOM     22  H   UNL     1       5.302   2.748  16.553  0.00  0.00    +0.000 HD
BRANCH  21  23
ATOM     23  C   UNL     1       5.114   4.513  15.553  0.00  0.00    +0.000 C 
BRANCH  23  24
ATOM     24  C   UNL     1       5.895   4.380  14.269  0.00  0.00    +0.000 A 
ATOM     25  C   UNL     1       7.075   5.114  14.074  0.00  0.00    +0.000 A 
ATOM     26  C   UNL     1       7.795   4.999  12.884  0.00  0.00    +0.000 A 
ATOM     27  C   UNL     1       7.343   4.147  11.877  0.00  0.00    +0.000 A 
ATOM     28  C   UNL     1       6.178   3.403  12.064  0.00  0.00    +0.000 A 
ATOM     29  C   UNL     1       5.460   3.515  13.255  0.00  0.00    +0.000 A 
ENDBRANCH  23  24
ENDBRANCH  21  23
ENDBRANCH   1  21
TORSDOF 6
ENDMDL
MODEL 8
REMARK VINA RESULT:      -8.0      2.068      2.734
REMARK  Name = 
REMARK  6 active torsions:
REMARK  status: ('A' for Active; 'I' for Inactive)
REMARK    1  A    between atoms: C_5  and  C_6
REMARK    2  A    between atoms: C_9  and  C_10
REMARK    3  A    between atoms: C_10  and  N_11
REMARK    4  A    between atoms: C_10  and  C_19
REMARK    5  A    between atoms: N_11  and  C_12
REMARK    6  A    between atoms: C_12  and  C_13
REMARK                            x       y       z     vdW  Elec       q    Type
REMARK                         _______ _______ _______ _____ _____    ______ ____
ROOT
ATOM      1  C   UNL     1       5.748   5.051  17.073  0.00  0.00    +0.000 C 
ENDROOT
BRANCH   1   2
ATOM      2  C   UNL     1       6.133   4.790  15.638  0.00  0.00    +0.000 A 
ATOM      3  C   UNL     1       5.568   3.974  14.672  0.00  0.00    +0.000 A 
ATOM      4  C   UNL     1       6.389   4.033  13.524  0.00  0.00    +0.000 A 
ATOM      5  C   UNL     1       7.434   4.879  13.813  0.00  0.00    +0.000 A 
ATOM      6  N   UNL     1       7.264   5.350  15.086  0.00  0.00    +0.000 N 
ATOM      7  H   UNL     1       7.902   5.977  15.563  0.00  0.00    +0.000 HD
ENDBRANCH   1   2
BRANCH   1  11
ATOM      8  C   UNL     1       3.234   7.372  18.131  0.00  0.00    +0.000 A 
ATOM      9  N   UNL     1       3.332   7.776  16.881  0.00  0.00    +0.000 NA
ATOM     10  N   UNL     1       4.306   7.005  16.289  0.00  0.00    +0.000 NA
ATOM     11  C   UNL     1       4.747   6.176  17.217  0.00  0.00    +0.000 A 
ATOM     12  O   UNL     1       4.124   6.374  18.432  0.00  0.00    +0.000 OA
BRANCH   8  17
ATOM     13 CL   UNL     1      -0.612   9.239  22.356  0.00  0.00    +0.000 Cl
ATOM     14  C   UNL     1       0.482   8.731  21.120  0.00  0.00    +0.000 A 
ATOM     15  C   UNL     1       1.135   7.507  21.285  0.00  0.00    +0.000 A 
ATOM     16  C   UNL     1       2.039   7.048  20.317  0.00  0.00    +0.000 A 
ATOM     17  C   UNL     1       2.307   7.810  19.171  0.00  0.00    +0.000 A 
ATOM     18  C   UNL     1       1.638   9.036  19.015  0.00  0.00    +0.000 A 
ATOM     19  C   UNL     1       0.733   9.497  19.978  0.00  0.00    +0.000 A 
ATOM     20 CL   UNL     1      -0.044  11.014  19.691  0.00  0.00    +0.000 Cl
ENDBRANCH   8  17
ENDBRANCH   1  11
BRANCH   1  21
ATOM     21  N   UNL     1       5.296   3.808  17.722  0.00  0.00    +0.000 NA
ATOM     22  H   UNL     1       5.348   3.919  18.731  0.00  0.00    +0.000 HD
BRANCH  21  23
ATOM     23  C   UNL     1       3.922   3.453  17.353  0.00  0.00    +0.000 C 
BRANCH  23  24
ATOM     24  C   UNL     1       3.029   3.362  18.567  0.00  0.00    +0.000 A 
ATOM     25  C   UNL     1       1.658   3.645  18.465  0.00  0.00    +0.000 A 
ATOM     26  C   UNL     1       0.833   3.570  19.588  0.00  0.00    +0.000 A 
ATOM     27  C   UNL     1       1.370   3.208  20.823  0.00  0.00    +0.000 A 
ATOM     28  C   UNL     1       2.728   2.911  20.933  0.00  0.00    +0.000 A 
ATOM     29  C   UNL     1       3.553   2.983  19.811  0.00  0.00    +0.000 A 
ENDBRANCH  23  24
ENDBRANCH  21  23
ENDBRANCH   1  21
TORSDOF 6
ENDMDL
MODEL 9
REMARK VINA RESULT:      -8.0      1.552      4.264
REMARK  Name = 
REMARK  6 active torsions:
REMARK  status: ('A' for Active; 'I' for Inactive)
REMARK    1  A    between atoms: C_5  and  C_6
REMARK    2  A    between atoms: C_9  and  C_10
REMARK    3  A    between atoms: C_10  and  N_11
REMARK    4  A    between atoms: C_10  and  C_19
REMARK    5  A    between atoms: N_11  and  C_12
REMARK    6  A    between atoms: C_12  and  C_13
REMARK                            x       y       z     vdW  Elec       q    Type
REMARK                         _______ _______ _______ _____ _____    ______ ____
ROOT
ATOM      1  C   UNL     1       3.130   5.745  18.772  0.00  0.00    +0.000 C 
ENDROOT
BRANCH   1   2
ATOM      2  C   UNL     1       2.149   4.668  19.166  0.00  0.00    +0.000 A 
ATOM      3  C   UNL     1       1.610   4.325  20.395  0.00  0.00    +0.000 A 
ATOM      4  C   UNL     1       0.814   3.173  20.209  0.00  0.00    +0.000 A 
ATOM      5  C   UNL     1       0.885   2.838  18.877  0.00  0.00    +0.000 A 
ATOM      6  N   UNL     1       1.678   3.758  18.246  0.00  0.00    +0.000 N 
ATOM      7  H   UNL     1       1.919   3.738  17.261  0.00  0.00    +0.000 HD
ENDBRANCH   1   2
BRANCH   1  11
ATOM      8  C   UNL     1       1.414   8.776  19.602  0.00  0.00    +0.000 A 
ATOM      9  N   UNL     1       1.730   9.086  18.361  0.00  0.00    +0.000 NA
ATOM     10  N   UNL     1       2.450   8.027  17.857  0.00  0.00    +0.000 NA
ATOM     11  C   UNL     1       2.532   7.132  18.825  0.00  0.00    +0.000 A 
ATOM     12  O   UNL     1       1.914   7.558  19.983  0.00  0.00    +0.000 OA
BRANCH   8  17
ATOM     13 CL   UNL     1      -1.978  11.885  23.469  0.00  0.00    +0.000 Cl
ATOM     14  C   UNL     1      -1.016  11.014  22.329  0.00  0.00    +0.000 A 
ATOM     15  C   UNL     1      -0.360   9.862  22.771  0.00  0.00    +0.000 A 
ATOM     16  C   UNL     1       0.440   9.119  21.892  0.00  0.00    +0.000 A 
ATOM     17  C   UNL     1       0.598   9.520  20.558  0.00  0.00    +0.000 A 
ATOM     18  C   UNL     1      -0.074  10.676  20.125  0.00  0.00    +0.000 A 
ATOM     19  C   UNL     1      -0.875  11.420  21.000  0.00  0.00    +0.000 A 
ATOM     20 CL   UNL     1      -1.666  12.822  20.371  0.00  0.00    +0.000 Cl
ENDBRANCH   8  17
ENDBRANCH   1  11
BRANCH   1  21
ATOM     21  N   UNL     1       4.366   5.633  19.566  0.00  0.00    +0.000 NA
ATOM     22  H   UNL     1       4.125   5.557  20.551  0.00  0.00    +0.000 HD
BRANCH  21  23
ATOM     23  C   UNL     1       5.174   4.471  19.183  0.00  0.00    +0.000 C 
BRANCH  23  24
ATOM     24  C   UNL     1       5.708   4.607  17.779  0.00  0.00    +0.000 A 
ATOM     25  C   UNL     1       5.163   3.847  16.732  0.00  0.00    +0.000 A 
ATOM     26  C   UNL     1       5.661   3.966  15.434  0.00  0.00    +0.000 A 
ATOM     27  C   UNL     1       6.707   4.847  15.169  0.00  0.00    +0.000 A 
ATOM     28  C   UNL     1       7.248   5.618  16.197  0.00  0.00    +0.000 A 
ATOM     29  C   UNL     1       6.749   5.502  17.495  0.00  0.00    +0.000 A 
ENDBRANCH  23  24
ENDBRANCH  21  23
ENDBRANCH   1  21
TORSDOF 6
ENDMDL
