MODEL 1
REMARK VINA RESULT:      -8.4      0.000      0.000
REMARK  Name = 
REMARK  7 active torsions:
REMARK  status: ('A' for Active; 'I' for Inactive)
REMARK    1  A    between atoms: C_1  and  C_2
REMARK    2  A    between atoms: C_5  and  N_6
REMARK    3  A    between atoms: C_14  and  C_15
REMARK    4  A    between atoms: C_15  and  O_16
REMARK    5  A    between atoms: O_16  and  C_17
REMARK    6  A    between atoms: C_17  and  C_18
REMARK    7  A    between atoms: N_26  and  C_27
REMARK                            x       y       z     vdW  Elec       q    Type
REMARK                         _______ _______ _______ _____ _____    ______ ____
ROOT
ATOM      1  N   UNL     1       1.618   6.831  20.939  0.00  0.00    +0.000 N 
ATOM      2  C   UNL     1       1.590   8.042  20.273  0.00  0.00    +0.000 C 
ATOM      3  O   UNL     1       1.845   8.174  19.075  0.00  0.00    +0.000 OA
ATOM      4  N   UNL     1       1.243   9.136  21.067  0.00  0.00    +0.000 N 
ATOM      5  C   UNL     1       1.048   9.119  22.535  0.00  0.00    +0.000 C 
ATOM      6  C   UNL     1      -0.363   9.605  22.902  0.00  0.00    +0.000 C 
ATOM      7  C   UNL     1      -0.580  10.888  22.197  0.00  0.00    +0.000 A 
ATOM      8  C   UNL     1       0.121  11.310  21.086  0.00  0.00    +0.000 A 
ATOM      9  C   UNL     1      -0.412  12.605  20.827  0.00  0.00    +0.000 A 
ATOM     10  N   UNL     1      -1.394  12.917  21.692  0.00  0.00    +0.000 NA
ATOM     11  N   UNL     1      -1.484  11.851  22.501  0.00  0.00    +0.000 N 
ATOM     12  C   UNL     1      -2.469  11.802  23.555  0.00  0.00    +0.000 C 
ATOM     13  C   UNL     1       1.194  10.488  20.430  0.00  0.00    +0.000 C 
ATOM     14  H   UNL     1       1.150   6.802  21.825  0.00  0.00    +0.000 HD
ENDROOT
BRANCH   1  19
ATOM     15  C   UNL     1       3.521   1.765  19.026  0.00  0.00    +0.000 C 
ATOM     16  C   UNL     1       3.016   3.095  19.505  0.00  0.00    +0.000 A 
ATOM     17  C   UNL     1       1.722   3.199  20.042  0.00  0.00    +0.000 A 
ATOM     18  C   UNL     1       1.228   4.420  20.517  0.00  0.00    +0.000 A 
ATOM     19  C   UNL     1       2.019   5.563  20.471  0.00  0.00    +0.000 A 
ATOM     20  C   UNL     1       3.301   5.473  19.912  0.00  0.00    +0.000 A 
ATOM     21  C   UNL     1       3.797   4.254  19.440  0.00  0.00    +0.000 A 
ATOM     22 CL   UNL     1       5.397   4.232  18.784  0.00  0.00    +0.000 Cl
ENDBRANCH   1  19
BRANCH   9  23
ATOM     23  C   UNL     1      -0.044  13.591  19.757  0.00  0.00    +0.000 C 
BRANCH  23  24
ATOM     24  O   UNL     1      -0.818  13.463  18.560  0.00  0.00    +0.000 OA
BRANCH  24  25
ATOM     25  C   UNL     1      -0.799  12.127  18.056  0.00  0.00    +0.000 C 
BRANCH  25  26
ATOM     26  C   UNL     1      -2.210  11.702  17.735  0.00  0.00    +0.000 A 
ATOM     27  C   UNL     1      -3.234  11.873  18.680  0.00  0.00    +0.000 A 
ATOM     28  C   UNL     1      -4.553  11.525  18.377  0.00  0.00    +0.000 A 
ATOM     29  C   UNL     1      -4.864  11.005  17.123  0.00  0.00    +0.000 A 
ATOM     30  C   UNL     1      -3.850  10.833  16.185  0.00  0.00    +0.000 A 
ATOM     31  F   UNL     1      -4.149  10.336  14.978  0.00  0.00    +0.000 F 
ATOM     32  C   UNL     1      -2.533  11.177  16.477  0.00  0.00    +0.000 A 
ENDBRANCH  25  26
ENDBRANCH  24  25
ENDBRANCH  23  24
ENDBRANCH   9  23
TORSDOF 5
ENDMDL
MODEL 2
REMARK VINA RESULT:      -8.4      4.313      9.505
REMARK  Name = 
REMARK  7 active torsions:
REMARK  status: ('A' for Active; 'I' for Inactive)
REMARK    1  A    between atoms: C_1  and  C_2
REMARK    2  A    between atoms: C_5  and  N_6
REMARK    3  A    between atoms: C_14  and  C_15
REMARK    4  A    between atoms: C_15  and  O_16
REMARK    5  A    between atoms: O_16  and  C_17
REMARK    6  A    between atoms: C_17  and  C_18
REMARK    7  A    between atoms: N_26  and  C_27
REMARK                            x       y       z     vdW  Elec       q    Type
REMARK                         _______ _______ _______ _____ _____    ______ ____
ROOT
ATOM      1  N   UNL     1       0.880   7.827  21.090  0.00  0.00    +0.000 N 
ATOM      2  C   UNL     1       1.498   7.521  19.892  0.00  0.00    +0.000 C 
ATOM      3  O   UNL     1       1.833   8.361  19.057  0.00  0.00    +0.000 OA
ATOM      4  N   UNL     1       1.725   6.160  19.685  0.00  0.00    +0.000 N 
ATOM      5  C   UNL     1       1.248   5.056  20.551  0.00  0.00    +0.000 C 
ATOM      6  C   UNL     1       2.429   4.212  21.055  0.00  0.00    +0.000 C 
ATOM      7  C   UNL     1       3.245   3.852  19.875  0.00  0.00    +0.000 A 
ATOM      8  C   UNL     1       3.230   4.521  18.668  0.00  0.00    +0.000 A 
ATOM      9  C   UNL     1       4.128   3.768  17.858  0.00  0.00    +0.000 A 
ATOM     10  N   UNL     1       4.678   2.750  18.544  0.00  0.00    +0.000 NA
ATOM     11  N   UNL     1       4.135   2.835  19.768  0.00  0.00    +0.000 N 
ATOM     12  C   UNL     1       4.513   1.913  20.812  0.00  0.00    +0.000 C 
ATOM     13  C   UNL     1       2.383   5.735  18.412  0.00  0.00    +0.000 C 
ATOM     14  H   UNL     1       0.890   7.109  21.790  0.00  0.00    +0.000 HD
ENDROOT
BRANCH   1  19
ATOM     15  C   UNL     1      -0.927  13.011  22.768  0.00  0.00    +0.000 C 
ATOM     16  C   UNL     1      -0.434  11.658  22.342  0.00  0.00    +0.000 A 
ATOM     17  C   UNL     1      -0.773  10.521  23.094  0.00  0.00    +0.000 A 
ATOM     18  C   UNL     1      -0.348   9.243  22.712  0.00  0.00    +0.000 A 
ATOM     19  C   UNL     1       0.420   9.072  21.565  0.00  0.00    +0.000 A 
ATOM     20  C   UNL     1       0.784  10.204  20.823  0.00  0.00    +0.000 A 
ATOM     21  C   UNL     1       0.358  11.482  21.202  0.00  0.00    +0.000 A 
ATOM     22 CL   UNL     1       0.838  12.819  20.216  0.00  0.00    +0.000 Cl
ENDBRANCH   1  19
BRANCH   9  23
ATOM     23  C   UNL     1       4.524   3.977  16.426  0.00  0.00    +0.000 C 
BRANCH  23  24
ATOM     24  O   UNL     1       5.921   3.789  16.177  0.00  0.00    +0.000 OA
BRANCH  24  25
ATOM     25  C   UNL     1       6.539   4.983  15.695  0.00  0.00    +0.000 C 
BRANCH  25  26
ATOM     26  C   UNL     1       7.117   5.743  16.861  0.00  0.00    +0.000 A 
ATOM     27  C   UNL     1       7.483   5.067  18.036  0.00  0.00    +0.000 A 
ATOM     28  C   UNL     1       8.061   5.755  19.107  0.00  0.00    +0.000 A 
ATOM     29  C   UNL     1       8.281   7.126  19.014  0.00  0.00    +0.000 A 
ATOM     30  C   UNL     1       7.917   7.799  17.852  0.00  0.00    +0.000 A 
ATOM     31  F   UNL     1       8.132   9.118  17.761  0.00  0.00    +0.000 F 
ATOM     32  C   UNL     1       7.341   7.124  16.779  0.00  0.00    +0.000 A 
ENDBRANCH  25  26
ENDBRANCH  24  25
ENDBRANCH  23  24
ENDBRANCH   9  23
TORSDOF 5
ENDMDL
MODEL 3
REMARK VINA RESULT:      -8.3      0.867      1.225
REMARK  Name = 
REMARK  7 active torsions:
REMARK  status: ('A' for Active; 'I' for Inactive)
REMARK    1  A    between atoms: C_1  and  C_2
REMARK    2  A    between atoms: C_5  and  N_6
REMARK    3  A    between atoms: C_14  and  C_15
REMARK    4  A    between atoms: C_15  and  O_16
REMARK    5  A    between atoms: O_16  and  C_17
REMARK    6  A    between atoms: C_17  and  C_18
REMARK    7  A    between atoms: N_26  and  C_27
REMARK                            x       y       z     vdW  Elec       q    Type
REMARK                         _______ _______ _______ _____ _____    ______ ____
ROOT
ATOM      1  N   UNL     1       1.612   6.800  20.897  0.00  0.00    +0.000 N 
ATOM      2  C   UNL     1       1.595   8.018  20.244  0.00  0.00    +0.000 C 
ATOM      3  O   UNL     1       1.853   8.162  19.048  0.00  0.00    +0.000 OA
ATOM      4  N   UNL     1       1.255   9.106  21.049  0.00  0.00    +0.000 N 
ATOM      5  C   UNL     1       1.057   9.074  22.517  0.00  0.00    +0.000 C 
ATOM      6  C   UNL     1      -0.351   9.568  22.886  0.00  0.00    +0.000 C 
ATOM      7  C   UNL     1      -0.556  10.859  22.196  0.00  0.00    +0.000 A 
ATOM      8  C   UNL     1       0.149  11.289  21.091  0.00  0.00    +0.000 A 
ATOM      9  C   UNL     1      -0.373  12.591  20.845  0.00  0.00    +0.000 A 
ATOM     10  N   UNL     1      -1.354  12.901  21.711  0.00  0.00    +0.000 NA
ATOM     11  N   UNL     1      -1.453  11.827  22.509  0.00  0.00    +0.000 N 
ATOM     12  C   UNL     1      -2.441  11.773  23.560  0.00  0.00    +0.000 C 
ATOM     13  C   UNL     1       1.218  10.465  20.428  0.00  0.00    +0.000 C 
ATOM     14  H   UNL     1       1.142   6.765  21.781  0.00  0.00    +0.000 HD
ENDROOT
BRANCH   1  19
ATOM     15  C   UNL     1       3.482   1.738  18.940  0.00  0.00    +0.000 C 
ATOM     16  C   UNL     1       2.986   3.067  19.430  0.00  0.00    +0.000 A 
ATOM     17  C   UNL     1       1.678   3.185  19.929  0.00  0.00    +0.000 A 
ATOM     18  C   UNL     1       1.192   4.405  20.413  0.00  0.00    +0.000 A 
ATOM     19  C   UNL     1       2.005   5.535  20.415  0.00  0.00    +0.000 A 
ATOM     20  C   UNL     1       3.302   5.431  19.894  0.00  0.00    +0.000 A 
ATOM     21  C   UNL     1       3.790   4.212  19.413  0.00  0.00    +0.000 A 
ATOM     22 CL   UNL     1       5.409   4.173  18.807  0.00  0.00    +0.000 Cl
ENDBRANCH   1  19
BRANCH   9  23
ATOM     23  C   UNL     1       0.005  13.585  19.787  0.00  0.00    +0.000 C 
BRANCH  23  24
ATOM     24  O   UNL     1      -0.824  13.534  18.621  0.00  0.00    +0.000 OA
BRANCH  24  25
ATOM     25  C   UNL     1      -0.828  12.234  18.030  0.00  0.00    +0.000 C 
BRANCH  25  26
ATOM     26  C   UNL     1      -2.252  11.827  17.748  0.00  0.00    +0.000 A 
ATOM     27  C   UNL     1      -2.598  11.275  16.504  0.00  0.00    +0.000 A 
ATOM     28  C   UNL     1      -3.905  10.852  16.247  0.00  0.00    +0.000 A 
ATOM     29  C   UNL     1      -4.881  10.975  17.233  0.00  0.00    +0.000 A 
ATOM     30  C   UNL     1      -4.542  11.523  18.465  0.00  0.00    +0.000 A 
ATOM     31  F   UNL     1      -5.480  11.638  19.415  0.00  0.00    +0.000 F 
ATOM     32  C   UNL     1      -3.242  11.948  18.731  0.00  0.00    +0.000 A 
ENDBRANCH  25  26
ENDBRANCH  24  25
ENDBRANCH  23  24
ENDBRANCH   9  23
TORSDOF 5
ENDMDL
MODEL 4
REMARK VINA RESULT:      -8.1      1.086      1.379
REMARK  Name = 
REMARK  7 active torsions:
REMARK  status: ('A' for Active; 'I' for Inactive)
REMARK    1  A    between atoms: C_1  and  C_2
REMARK    2  A    between atoms: C_5  and  N_6
REMARK    3  A    between atoms: C_14  and  C_15
REMARK    4  A    between atoms: C_15  and  O_16
REMARK    5  A    between atoms: O_16  and  C_17
REMARK    6  A    between atoms: C_17  and  C_18
REMARK    7  A    between atoms: N_26  and  C_27
REMARK                            x       y       z     vdW  Elec       q    Type
REMARK                         _______ _______ _______ _____ _____    ______ ____
ROOT
ATOM      1  N   UNL     1       1.792   6.974  20.707  0.00  0.00    +0.000 N 
ATOM      2  C   UNL     1       1.725   8.233  20.139  0.00  0.00    +0.000 C 
ATOM      3  O   UNL     1       1.993   8.472  18.961  0.00  0.00    +0.000 OA
ATOM      4  N   UNL     1       1.319   9.244  21.011  0.00  0.00    +0.000 N 
ATOM      5  C   UNL     1       1.101   9.101  22.469  0.00  0.00    +0.000 C 
ATOM      6  C   UNL     1      -0.334   9.498  22.846  0.00  0.00    +0.000 C 
ATOM      7  C   UNL     1      -0.594  10.824  22.243  0.00  0.00    +0.000 A 
ATOM      8  C   UNL     1       0.107  11.363  21.183  0.00  0.00    +0.000 A 
ATOM      9  C   UNL     1      -0.476  12.652  21.018  0.00  0.00    +0.000 A 
ATOM     10  N   UNL     1      -1.484  12.853  21.886  0.00  0.00    +0.000 NA
ATOM     11  N   UNL     1      -1.542  11.722  22.605  0.00  0.00    +0.000 N 
ATOM     12  C   UNL     1      -2.541  11.548  23.632  0.00  0.00    +0.000 C 
ATOM     13  C   UNL     1       1.224  10.640  20.484  0.00  0.00    +0.000 C 
ATOM     14  H   UNL     1       1.311   6.855  21.578  0.00  0.00    +0.000 HD
ENDROOT
BRANCH   1  19
ATOM     15  C   UNL     1       3.399   1.984  18.369  0.00  0.00    +0.000 C 
ATOM     16  C   UNL     1       2.982   3.280  19.002  0.00  0.00    +0.000 A 
ATOM     17  C   UNL     1       3.937   4.284  19.235  0.00  0.00    +0.000 A 
ATOM     18  C   UNL     1       3.578   5.511  19.803  0.00  0.00    +0.000 A 
ATOM     19  C   UNL     1       2.254   5.766  20.147  0.00  0.00    +0.000 A 
ATOM     20  C   UNL     1       1.300   4.760  19.941  0.00  0.00    +0.000 A 
ATOM     21  C   UNL     1       1.657   3.534  19.371  0.00  0.00    +0.000 A 
ATOM     22 CL   UNL     1       0.410   2.358  19.136  0.00  0.00    +0.000 Cl
ENDBRANCH   1  19
BRANCH   9  23
ATOM     23  C   UNL     1      -0.132  13.735  20.038  0.00  0.00    +0.000 C 
BRANCH  23  24
ATOM     24  O   UNL     1      -0.964  13.748  18.873  0.00  0.00    +0.000 OA
BRANCH  24  25
ATOM     25  C   UNL     1      -0.679  12.650  18.006  0.00  0.00    +0.000 C 
BRANCH  25  26
ATOM     26  C   UNL     1      -1.935  11.838  17.812  0.00  0.00    +0.000 A 
ATOM     27  C   UNL     1      -3.053  12.056  18.632  0.00  0.00    +0.000 A 
ATOM     28  C   UNL     1      -4.237  11.341  18.433  0.00  0.00    +0.000 A 
ATOM     29  C   UNL     1      -4.317  10.402  17.408  0.00  0.00    +0.000 A 
ATOM     30  C   UNL     1      -3.210  10.183  16.595  0.00  0.00    +0.000 A 
ATOM     31  F   UNL     1      -3.288   9.282  15.607  0.00  0.00    +0.000 F 
ATOM     32  C   UNL     1      -2.025  10.890  16.785  0.00  0.00    +0.000 A 
ENDBRANCH  25  26
ENDBRANCH  24  25
ENDBRANCH  23  24
ENDBRANCH   9  23
TORSDOF 5
ENDMDL
MODEL 5
REMARK VINA RESULT:      -8.1      2.859      4.225
REMARK  Name = 
REMARK  7 active torsions:
REMARK  status: ('A' for Active; 'I' for Inactive)
REMARK    1  A    between atoms: C_1  and  C_2
REMARK    2  A    between atoms: C_5  and  N_6
REMARK    3  A    between atoms: C_14  and  C_15
REMARK    4  A    between atoms: C_15  and  O_16
REMARK    5  A    between atoms: O_16  and  C_17
REMARK    6  A    between atoms: C_17  and  C_18
REMARK    7  A    between atoms: N_26  and  C_27
REMARK                            x       y       z     vdW  Elec       q    Type
REMARK                         _______ _______ _______ _____ _____    ______ ____
ROOT
ATOM      1  N   UNL     1       1.942   6.946  20.407  0.00  0.00    +0.000 N 
ATOM      2  C   UNL     1       1.707   8.118  19.713  0.00  0.00    +0.000 C 
ATOM      3  O   UNL     1       1.802   8.224  18.490  0.00  0.00    +0.000 OA
ATOM      4  N   UNL     1       1.341   9.204  20.509  0.00  0.00    +0.000 N 
ATOM      5  C   UNL     1       1.324   9.230  21.991  0.00  0.00    +0.000 C 
ATOM      6  C   UNL     1      -0.077   9.585  22.512  0.00  0.00    +0.000 C 
ATOM      7  C   UNL     1      -0.512  10.807  21.801  0.00  0.00    +0.000 A 
ATOM      8  C   UNL     1       0.003  11.250  20.600  0.00  0.00    +0.000 A 
ATOM      9  C   UNL     1      -0.692  12.472  20.369  0.00  0.00    +0.000 A 
ATOM     10  N   UNL     1      -1.593  12.719  21.337  0.00  0.00    +0.000 NA
ATOM     11  N   UNL     1      -1.471  11.685  22.184  0.00  0.00    +0.000 N 
ATOM     12  C   UNL     1      -2.313  11.580  23.351  0.00  0.00    +0.000 C 
ATOM     13  C   UNL     1       1.073  10.515  19.843  0.00  0.00    +0.000 C 
ATOM     14  H   UNL     1       1.588   6.908  21.344  0.00  0.00    +0.000 HD
ENDROOT
BRANCH   1  19
ATOM     15  C   UNL     1       3.613   1.834  18.400  0.00  0.00    +0.000 C 
ATOM     16  C   UNL     1       3.177   3.163  18.947  0.00  0.00    +0.000 A 
ATOM     17  C   UNL     1       4.133   4.159  19.208  0.00  0.00    +0.000 A 
ATOM     18  C   UNL     1       3.758   5.416  19.697  0.00  0.00    +0.000 A 
ATOM     19  C   UNL     1       2.419   5.707  19.932  0.00  0.00    +0.000 A 
ATOM     20  C   UNL     1       1.462   4.710  19.700  0.00  0.00    +0.000 A 
ATOM     21  C   UNL     1       1.834   3.455  19.208  0.00  0.00    +0.000 A 
ATOM     22 CL   UNL     1       0.584   2.292  18.932  0.00  0.00    +0.000 Cl
ENDBRANCH   1  19
BRANCH   9  23
ATOM     23  C   UNL     1      -0.561  13.443  19.233  0.00  0.00    +0.000 C 
BRANCH  23  24
ATOM     24  O   UNL     1      -0.720  14.812  19.619  0.00  0.00    +0.000 OA
BRANCH  24  25
ATOM     25  C   UNL     1       0.493  15.363  20.133  0.00  0.00    +0.000 C 
BRANCH  25  26
ATOM     26  C   UNL     1       1.292  15.940  18.993  0.00  0.00    +0.000 A 
ATOM     27  C   UNL     1       0.864  17.113  18.350  0.00  0.00    +0.000 A 
ATOM     28  C   UNL     1       1.620  17.682  17.322  0.00  0.00    +0.000 A 
ATOM     29  C   UNL     1       2.816  17.087  16.927  0.00  0.00    +0.000 A 
ATOM     30  C   UNL     1       3.241  15.925  17.561  0.00  0.00    +0.000 A 
ATOM     31  F   UNL     1       4.393  15.353  17.184  0.00  0.00    +0.000 F 
ATOM     32  C   UNL     1       2.496  15.349  18.587  0.00  0.00    +0.000 A 
ENDBRANCH  25  26
ENDBRANCH  24  25
ENDBRANCH  23  24
ENDBRANCH   9  23
TORSDOF 5
ENDMDL
MODEL 6
REMARK VINA RESULT:      -8.0      5.116      9.818
REMARK  Name = 
REMARK  7 active torsions:
REMARK  status: ('A' for Active; 'I' for Inactive)
REMARK    1  A    between atoms: C_1  and  C_2
REMARK    2  A    between atoms: C_5  and  N_6
REMARK    3  A    between atoms: C_14  and  C_15
REMARK    4  A    between atoms: C_15  and  O_16
REMARK    5  A    between atoms: O_16  and  C_17
REMARK    6  A    between atoms: C_17  and  C_18
REMARK    7  A    between atoms: N_26  and  C_27
REMARK                            x       y       z     vdW  Elec       q    Type
REMARK                         _______ _______ _______ _____ _____    ______ ____
ROOT
ATOM      1  N   UNL     1       0.827   8.638  18.837  0.00  0.00    +0.000 N 
ATOM      2  C   UNL     1       2.135   8.635  18.390  0.00  0.00    +0.000 C 
ATOM      3  O   UNL     1       2.814   9.652  18.242  0.00  0.00    +0.000 OA
ATOM      4  N   UNL     1       2.652   7.369  18.110  0.00  0.00    +0.000 N 
ATOM      5  C   UNL     1       1.894   6.097  18.121  0.00  0.00    +0.000 C 
ATOM      6  C   UNL     1       2.522   5.098  19.106  0.00  0.00    +0.000 C 
ATOM      7  C   UNL     1       3.967   5.031  18.798  0.00  0.00    +0.000 A 
ATOM      8  C   UNL     1       4.678   5.996  18.115  0.00  0.00    +0.000 A 
ATOM      9  C   UNL     1       5.990   5.448  18.029  0.00  0.00    +0.000 A 
ATOM     10  N   UNL     1       6.070   4.261  18.657  0.00  0.00    +0.000 NA
ATOM     11  N   UNL     1       4.833   4.041  19.125  0.00  0.00    +0.000 N 
ATOM     12  C   UNL     1       4.532   2.859  19.897  0.00  0.00    +0.000 C 
ATOM     13  C   UNL     1       4.059   7.271  17.614  0.00  0.00    +0.000 C 
ATOM     14  H   UNL     1       0.469   7.760  19.162  0.00  0.00    +0.000 HD
ENDROOT
BRANCH   1  19
ATOM     15  C   UNL     1      -2.482  13.127  20.196  0.00  0.00    +0.000 C 
ATOM     16  C   UNL     1      -1.634  11.938  19.847  0.00  0.00    +0.000 A 
ATOM     17  C   UNL     1      -1.636  11.439  18.534  0.00  0.00    +0.000 A 
ATOM     18  C   UNL     1      -0.841  10.346  18.170  0.00  0.00    +0.000 A 
ATOM     19  C   UNL     1      -0.020   9.731  19.110  0.00  0.00    +0.000 A 
ATOM     20  C   UNL     1      -0.032  10.207  20.429  0.00  0.00    +0.000 A 
ATOM     21  C   UNL     1      -0.824  11.301  20.793  0.00  0.00    +0.000 A 
ATOM     22 CL   UNL     1      -0.761  11.832  22.437  0.00  0.00    +0.000 Cl
ENDBRANCH   1  19
BRANCH   9  23
ATOM     23  C   UNL     1       7.218   6.013  17.380  0.00  0.00    +0.000 C 
BRANCH  23  24
ATOM     24  O   UNL     1       7.266   5.820  15.963  0.00  0.00    +0.000 OA
BRANCH  24  25
ATOM     25  C   UNL     1       6.149   5.066  15.492  0.00  0.00    +0.000 C 
BRANCH  25  26
ATOM     26  C   UNL     1       6.415   4.624  14.075  0.00  0.00    +0.000 A 
ATOM     27  C   UNL     1       7.454   5.210  13.335  0.00  0.00    +0.000 A 
ATOM     28  C   UNL     1       7.740   4.777  12.037  0.00  0.00    +0.000 A 
ATOM     29  C   UNL     1       6.990   3.752  11.465  0.00  0.00    +0.000 A 
ATOM     30  C   UNL     1       5.959   3.172  12.197  0.00  0.00    +0.000 A 
ATOM     31  F   UNL     1       5.240   2.183  11.649  0.00  0.00    +0.000 F 
ATOM     32  C   UNL     1       5.667   3.595  13.491  0.00  0.00    +0.000 A 
ENDBRANCH  25  26
ENDBRANCH  24  25
ENDBRANCH  23  24
ENDBRANCH   9  23
TORSDOF 5
ENDMDL
MODEL 7
REMARK VINA RESULT:      -8.0      1.336      1.799
REMARK  Name = 
REMARK  7 active torsions:
REMARK  status: ('A' for Active; 'I' for Inactive)
REMARK    1  A    between atoms: C_1  and  C_2
REMARK    2  A    between atoms: C_5  and  N_6
REMARK    3  A    between atoms: C_14  and  C_15
REMARK    4  A    between atoms: C_15  and  O_16
REMARK    5  A    between atoms: O_16  and  C_17
REMARK    6  A    between atoms: C_17  and  C_18
REMARK    7  A    between atoms: N_26  and  C_27
REMARK                            x       y       z     vdW  Elec       q    Type
REMARK                         _______ _______ _______ _____ _____    ______ ____
ROOT
ATOM      1  N   UNL     1       1.875   6.882  20.618  0.00  0.00    +0.000 N 
ATOM      2  C   UNL     1       1.795   8.130  20.029  0.00  0.00    +0.000 C 
ATOM      3  O   UNL     1       2.037   8.347  18.841  0.00  0.00    +0.000 OA
ATOM      4  N   UNL     1       1.409   9.157  20.891  0.00  0.00    +0.000 N 
ATOM      5  C   UNL     1       1.224   9.040  22.356  0.00  0.00    +0.000 C 
ATOM      6  C   UNL     1      -0.202   9.446  22.758  0.00  0.00    +0.000 C 
ATOM      7  C   UNL     1      -0.475  10.760  22.137  0.00  0.00    +0.000 A 
ATOM      8  C   UNL     1       0.201  11.279  21.051  0.00  0.00    +0.000 A 
ATOM      9  C   UNL     1      -0.385  12.565  20.876  0.00  0.00    +0.000 A 
ATOM     10  N   UNL     1      -1.374  12.782  21.763  0.00  0.00    +0.000 NA
ATOM     11  N   UNL     1      -1.415  11.665  22.504  0.00  0.00    +0.000 N 
ATOM     12  C   UNL     1      -2.390  11.510  23.556  0.00  0.00    +0.000 C 
ATOM     13  C   UNL     1       1.302  10.543  20.341  0.00  0.00    +0.000 C 
ATOM     14  H   UNL     1       1.414   6.779  21.502  0.00  0.00    +0.000 HD
ENDROOT
BRANCH   1  19
ATOM     15  C   UNL     1       3.431   1.858  18.318  0.00  0.00    +0.000 C 
ATOM     16  C   UNL     1       3.027   3.163  18.941  0.00  0.00    +0.000 A 
ATOM     17  C   UNL     1       4.000   4.138  19.217  0.00  0.00    +0.000 A 
ATOM     18  C   UNL     1       3.653   5.373  19.777  0.00  0.00    +0.000 A 
ATOM     19  C   UNL     1       2.324   5.663  20.070  0.00  0.00    +0.000 A 
ATOM     20  C   UNL     1       1.351   4.685  19.822  0.00  0.00    +0.000 A 
ATOM     21  C   UNL     1       1.695   3.452  19.259  0.00  0.00    +0.000 A 
ATOM     22 CL   UNL     1       0.427   2.313  18.970  0.00  0.00    +0.000 Cl
ENDBRANCH   1  19
BRANCH   9  23
ATOM     23  C   UNL     1      -0.064  13.630  19.869  0.00  0.00    +0.000 C 
BRANCH  23  24
ATOM     24  O   UNL     1      -0.944  13.644  18.740  0.00  0.00    +0.000 OA
BRANCH  24  25
ATOM     25  C   UNL     1      -0.786  12.480  17.929  0.00  0.00    +0.000 C 
BRANCH  25  26
ATOM     26  C   UNL     1      -2.133  11.832  17.731  0.00  0.00    +0.000 A 
ATOM     27  C   UNL     1      -2.356  10.983  16.635  0.00  0.00    +0.000 A 
ATOM     28  C   UNL     1      -3.586  10.341  16.466  0.00  0.00    +0.000 A 
ATOM     29  C   UNL     1      -4.606  10.539  17.393  0.00  0.00    +0.000 A 
ATOM     30  C   UNL     1      -4.388  11.381  18.479  0.00  0.00    +0.000 A 
ATOM     31  F   UNL     1      -5.368  11.569  19.373  0.00  0.00    +0.000 F 
ATOM     32  C   UNL     1      -3.166  12.025  18.657  0.00  0.00    +0.000 A 
ENDBRANCH  25  26
ENDBRANCH  24  25
ENDBRANCH  23  24
ENDBRANCH   9  23
TORSDOF 5
ENDMDL
MODEL 8
REMARK VINA RESULT:      -8.0      2.920      4.252
REMARK  Name = 
REMARK  7 active torsions:
REMARK  status: ('A' for Active; 'I' for Inactive)
REMARK    1  A    between atoms: C_1  and  C_2
REMARK    2  A    between atoms: C_5  and  N_6
REMARK    3  A    between atoms: C_14  and  C_15
REMARK    4  A    between atoms: C_15  and  O_16
REMARK    5  A    between atoms: O_16  and  C_17
REMARK    6  A    between atoms: C_17  and  C_18
REMARK    7  A    between atoms: N_26  and  C_27
REMARK                            x       y       z     vdW  Elec       q    Type
REMARK                         _______ _______ _______ _____ _____    ______ ____
ROOT
ATOM      1  N   UNL     1       1.718   7.429  20.626  0.00  0.00    +0.000 N 
ATOM      2  C   UNL     1       1.511   8.607  19.933  0.00  0.00    +0.000 C 
ATOM      3  O   UNL     1       1.679   8.731  18.720  0.00  0.00    +0.000 OA
ATOM      4  N   UNL     1       1.084   9.678  20.720  0.00  0.00    +0.000 N 
ATOM      5  C   UNL     1       0.977   9.685  22.198  0.00  0.00    +0.000 C 
ATOM      6  C   UNL     1      -0.458  10.017  22.637  0.00  0.00    +0.000 C 
ATOM      7  C   UNL     1      -0.863  11.243  21.916  0.00  0.00    +0.000 A 
ATOM      8  C   UNL     1      -0.282  11.708  20.755  0.00  0.00    +0.000 A 
ATOM      9  C   UNL     1      -0.977  12.925  20.497  0.00  0.00    +0.000 A 
ATOM     10  N   UNL     1      -1.937  13.148  21.411  0.00  0.00    +0.000 NA
ATOM     11  N   UNL     1      -1.855  12.105  22.250  0.00  0.00    +0.000 N 
ATOM     12  C   UNL     1      -2.765  11.975  23.363  0.00  0.00    +0.000 C 
ATOM     13  C   UNL     1       0.841  10.995  20.055  0.00  0.00    +0.000 C 
ATOM     14  H   UNL     1       1.308   7.375  21.539  0.00  0.00    +0.000 HD
ENDROOT
BRANCH   1  19
ATOM     15  C   UNL     1       3.620   2.299  18.890  0.00  0.00    +0.000 C 
ATOM     16  C   UNL     1       3.140   3.642  19.360  0.00  0.00    +0.000 A 
ATOM     17  C   UNL     1       3.613   4.810  18.741  0.00  0.00    +0.000 A 
ATOM     18  C   UNL     1       3.169   6.076  19.141  0.00  0.00    +0.000 A 
ATOM     19  C   UNL     1       2.237   6.202  20.166  0.00  0.00    +0.000 A 
ATOM     20  C   UNL     1       1.780   5.042  20.806  0.00  0.00    +0.000 A 
ATOM     21  C   UNL     1       2.220   3.777  20.406  0.00  0.00    +0.000 A 
ATOM     22 CL   UNL     1       1.588   2.400  21.240  0.00  0.00    +0.000 Cl
ENDBRANCH   1  19
BRANCH   9  23
ATOM     23  C   UNL     1      -0.788  13.912  19.383  0.00  0.00    +0.000 C 
BRANCH  23  24
ATOM     24  O   UNL     1      -0.505  15.243  19.830  0.00  0.00    +0.000 OA
BRANCH  24  25
ATOM     25  C   UNL     1       0.762  15.324  20.484  0.00  0.00    +0.000 C 
BRANCH  25  26
ATOM     26  C   UNL     1       1.850  15.381  19.442  0.00  0.00    +0.000 A 
ATOM     27  C   UNL     1       2.796  14.348  19.349  0.00  0.00    +0.000 A 
ATOM     28  C   UNL     1       3.782  14.367  18.358  0.00  0.00    +0.000 A 
ATOM     29  C   UNL     1       3.831  15.419  17.447  0.00  0.00    +0.000 A 
ATOM     30  C   UNL     1       2.895  16.445  17.538  0.00  0.00    +0.000 A 
ATOM     31  F   UNL     1       2.940  17.455  16.660  0.00  0.00    +0.000 F 
ATOM     32  C   UNL     1       1.909  16.435  18.521  0.00  0.00    +0.000 A 
ENDBRANCH  25  26
ENDBRANCH  24  25
ENDBRANCH  23  24
ENDBRANCH   9  23
TORSDOF 5
ENDMDL
MODEL 9
REMARK VINA RESULT:      -8.0      4.746      9.626
REMARK  Name = 
REMARK  7 active torsions:
REMARK  status: ('A' for Active; 'I' for Inactive)
REMARK    1  A    between atoms: C_1  and  C_2
REMARK    2  A    between atoms: C_5  and  N_6
REMARK    3  A    between atoms: C_14  and  C_15
REMARK    4  A    between atoms: C_15  and  O_16
REMARK    5  A    between atoms: O_16  and  C_17
REMARK    6  A    between atoms: C_17  and  C_18
REMARK    7  A    between atoms: N_26  and  C_27
REMARK                            x       y       z     vdW  Elec       q    Type
REMARK                         _______ _______ _______ _____ _____    ______ ____
ROOT
ATOM      1  N   UNL     1       0.712   7.707  21.123  0.00  0.00    +0.000 N 
ATOM      2  C   UNL     1       1.671   7.490  20.152  0.00  0.00    +0.000 C 
ATOM      3  O   UNL     1       2.267   8.391  19.559  0.00  0.00    +0.000 OA
ATOM      4  N   UNL     1       1.930   6.146  19.879  0.00  0.00    +0.000 N 
ATOM      5  C   UNL     1       1.187   4.988  20.427  0.00  0.00    +0.000 C 
ATOM      6  C   UNL     1       2.134   4.041  21.180  0.00  0.00    +0.000 C 
ATOM      7  C   UNL     1       3.275   3.759  20.281  0.00  0.00    +0.000 A 
ATOM      8  C   UNL     1       3.652   4.542  19.210  0.00  0.00    +0.000 A 
ATOM      9  C   UNL     1       4.747   3.829  18.643  0.00  0.00    +0.000 A 
ATOM     10  N   UNL     1       5.035   2.722  19.351  0.00  0.00    +0.000 NA
ATOM     11  N   UNL     1       4.136   2.714  20.347  0.00  0.00    +0.000 N 
ATOM     12  C   UNL     1       4.151   1.676  21.350  0.00  0.00    +0.000 C 
ATOM     13  C   UNL     1       2.949   5.817  18.836  0.00  0.00    +0.000 C 
ATOM     14  H   UNL     1       0.490   6.925  21.709  0.00  0.00    +0.000 HD
ENDROOT
BRANCH   1  19
ATOM     15  C   UNL     1      -1.673  12.701  22.647  0.00  0.00    +0.000 C 
ATOM     16  C   UNL     1      -1.028  11.405  22.250  0.00  0.00    +0.000 A 
ATOM     17  C   UNL     1      -0.672  10.470  23.235  0.00  0.00    +0.000 A 
ATOM     18  C   UNL     1      -0.089   9.243  22.897  0.00  0.00    +0.000 A 
ATOM     19  C   UNL     1       0.147   8.921  21.564  0.00  0.00    +0.000 A 
ATOM     20  C   UNL     1      -0.181   9.861  20.577  0.00  0.00    +0.000 A 
ATOM     21  C   UNL     1      -0.767  11.085  20.913  0.00  0.00    +0.000 A 
ATOM     22 CL   UNL     1      -1.157  12.175  19.628  0.00  0.00    +0.000 Cl
ENDBRANCH   1  19
BRANCH   9  23
ATOM     23  C   UNL     1       5.577   4.158  17.437  0.00  0.00    +0.000 C 
BRANCH  23  24
ATOM     24  O   UNL     1       4.810   4.556  16.296  0.00  0.00    +0.000 OA
BRANCH  24  25
ATOM     25  C   UNL     1       5.471   5.572  15.541  0.00  0.00    +0.000 C 
BRANCH  25  26
ATOM     26  C   UNL     1       6.021   4.964  14.275  0.00  0.00    +0.000 A 
ATOM     27  C   UNL     1       7.263   5.380  13.771  0.00  0.00    +0.000 A 
ATOM     28  C   UNL     1       7.804   4.792  12.624  0.00  0.00    +0.000 A 
ATOM     29  C   UNL     1       7.109   3.779  11.970  0.00  0.00    +0.000 A 
ATOM     30  C   UNL     1       5.876   3.366  12.466  0.00  0.00    +0.000 A 
ATOM     31  F   UNL     1       5.208   2.389  11.838  0.00  0.00    +0.000 F 
ATOM     32  C   UNL     1       5.329   3.945  13.608  0.00  0.00    +0.000 A 
ENDBRANCH  25  26
ENDBRANCH  24  25
ENDBRANCH  23  24
ENDBRANCH   9  23
TORSDOF 5
ENDMDL
