MODEL 1
REMARK VINA RESULT:      -6.5      0.000      0.000
REMARK  Name = 
REMARK  3 active torsions:
REMARK  status: ('A' for Active; 'I' for Inactive)
REMARK    1  A    between atoms: C_2  and  C_3
REMARK    2  A    between atoms: C_10  and  C_11
REMARK    3  A    between atoms: C_11  and  N_12
REMARK                            x       y       z     vdW  Elec       q    Type
REMARK                         _______ _______ _______ _____ _____    ______ ____
ROOT
ATOM      1  C   UNL     1      -1.743  11.817  18.995  0.00  0.00    +0.000 A 
ATOM      2  C   UNL     1      -0.810  12.756  18.620  0.00  0.00    +0.000 A 
ATOM      3  N   UNL     1       0.446  12.259  18.321  0.00  0.00    +0.000 NA
ATOM      4  C   UNL     1       0.479  10.951  18.484  0.00  0.00    +0.000 A 
ATOM      5  N   UNL     1       1.563  10.224  18.126  0.00  0.00    +0.000 N 
ATOM      6  C   UNL     1       1.931   8.961  18.626  0.00  0.00    +0.000 A 
ATOM      7  C   UNL     1       2.689   8.124  17.799  0.00  0.00    +0.000 A 
ATOM      8  C   UNL     1       3.032   6.829  18.217  0.00  0.00    +0.000 A 
ATOM      9  C   UNL     1       2.630   6.437  19.494  0.00  0.00    +0.000 A 
ATOM     10  C   UNL     1       1.907   7.331  20.266  0.00  0.00    +0.000 A 
ATOM     11  N   UNL     1       1.546   8.565  19.854  0.00  0.00    +0.000 NA
ATOM     12  S   UNL     1      -1.022  10.274  19.020  0.00  0.00    +0.000 S 
ATOM     13  H   UNL     1       2.363  10.768  17.830  0.00  0.00    +0.000 HD
ENDROOT
BRANCH   1  15
ATOM     14  N   UNL     1      -4.227  12.283  19.517  0.00  0.00    +0.000 NA
ATOM     15  C   UNL     1      -3.108  12.077  19.294  0.00  0.00    +0.000 C 
ENDBRANCH   1  15
BRANCH   8  16
ATOM     16  C   UNL     1       3.881   5.928  17.348  0.00  0.00    +0.000 C 
BRANCH  16  17
ATOM     17  N   UNL     1       5.056   6.466  16.665  0.00  0.00    +0.000 NA
ATOM     18  C   UNL     1       5.457   5.833  15.405  0.00  0.00    +0.000 C 
ATOM     19  C   UNL     1       6.463   4.681  15.566  0.00  0.00    +0.000 C 
ATOM     20  O   UNL     1       7.605   5.077  16.338  0.00  0.00    +0.000 OA
ATOM     21  C   UNL     1       7.217   5.583  17.620  0.00  0.00    +0.000 C 
ATOM     22  C   UNL     1       6.234   6.755  17.488  0.00  0.00    +0.000 C 
ENDBRANCH  16  17
ENDBRANCH   8  16
TORSDOF 3
ENDMDL
MODEL 2
REMARK VINA RESULT:      -6.4      0.713      1.267
REMARK  Name = 
REMARK  3 active torsions:
REMARK  status: ('A' for Active; 'I' for Inactive)
REMARK    1  A    between atoms: C_2  and  C_3
REMARK    2  A    between atoms: C_10  and  C_11
REMARK    3  A    between atoms: C_11  and  N_12
REMARK                            x       y       z     vdW  Elec       q    Type
REMARK                         _______ _______ _______ _____ _____    ______ ____
ROOT
ATOM      1  C   UNL     1      -1.720  11.907  19.069  0.00  0.00    +0.000 A 
ATOM      2  C   UNL     1      -0.780  12.879  18.819  0.00  0.00    +0.000 A 
ATOM      3  N   UNL     1       0.493  12.416  18.537  0.00  0.00    +0.000 NA
ATOM      4  C   UNL     1       0.530  11.099  18.589  0.00  0.00    +0.000 A 
ATOM      5  N   UNL     1       1.636  10.411  18.221  0.00  0.00    +0.000 N 
ATOM      6  C   UNL     1       1.992   9.112  18.627  0.00  0.00    +0.000 A 
ATOM      7  C   UNL     1       2.794   8.353  17.767  0.00  0.00    +0.000 A 
ATOM      8  C   UNL     1       3.130   7.029  18.089  0.00  0.00    +0.000 A 
ATOM      9  C   UNL     1       2.674   6.527  19.307  0.00  0.00    +0.000 A 
ATOM     10  C   UNL     1       1.908   7.347  20.119  0.00  0.00    +0.000 A 
ATOM     11  N   UNL     1       1.556   8.610  19.798  0.00  0.00    +0.000 NA
ATOM     12  S   UNL     1      -0.988  10.371  18.996  0.00  0.00    +0.000 S 
ATOM     13  H   UNL     1       2.443  10.983  18.010  0.00  0.00    +0.000 HD
ENDROOT
BRANCH   1  15
ATOM     14  N   UNL     1      -4.230  12.296  19.531  0.00  0.00    +0.000 NA
ATOM     15  C   UNL     1      -3.100  12.133  19.327  0.00  0.00    +0.000 C 
ENDBRANCH   1  15
BRANCH   8  16
ATOM     16  C   UNL     1       4.025   6.210  17.185  0.00  0.00    +0.000 C 
BRANCH  16  17
ATOM     17  N   UNL     1       4.901   5.187  17.755  0.00  0.00    +0.000 NA
ATOM     18  C   UNL     1       6.069   5.640  18.515  0.00  0.00    +0.000 C 
ATOM     19  C   UNL     1       7.343   5.818  17.673  0.00  0.00    +0.000 C 
ATOM     20  O   UNL     1       7.642   4.643  16.908  0.00  0.00    +0.000 OA
ATOM     21  C   UNL     1       6.540   4.272  16.072  0.00  0.00    +0.000 C 
ATOM     22  C   UNL     1       5.260   4.058  16.891  0.00  0.00    +0.000 C 
ENDBRANCH  16  17
ENDBRANCH   8  16
TORSDOF 3
ENDMDL
MODEL 3
REMARK VINA RESULT:      -6.3      2.389      2.848
REMARK  Name = 
REMARK  3 active torsions:
REMARK  status: ('A' for Active; 'I' for Inactive)
REMARK    1  A    between atoms: C_2  and  C_3
REMARK    2  A    between atoms: C_10  and  C_11
REMARK    3  A    between atoms: C_11  and  N_12
REMARK                            x       y       z     vdW  Elec       q    Type
REMARK                         _______ _______ _______ _____ _____    ______ ____
ROOT
ATOM      1  C   UNL     1       0.479  11.943  19.217  0.00  0.00    +0.000 A 
ATOM      2  C   UNL     1       1.598  12.286  18.494  0.00  0.00    +0.000 A 
ATOM      3  N   UNL     1       2.361  11.224  18.041  0.00  0.00    +0.000 NA
ATOM      4  C   UNL     1       1.839  10.077  18.430  0.00  0.00    +0.000 A 
ATOM      5  N   UNL     1       2.336   8.896  17.997  0.00  0.00    +0.000 N 
ATOM      6  C   UNL     1       2.209   7.647  18.633  0.00  0.00    +0.000 A 
ATOM      7  C   UNL     1       2.254   6.498  17.836  0.00  0.00    +0.000 A 
ATOM      8  C   UNL     1       2.070   5.227  18.405  0.00  0.00    +0.000 A 
ATOM      9  C   UNL     1       1.891   5.161  19.786  0.00  0.00    +0.000 A 
ATOM     10  C   UNL     1       1.887   6.339  20.513  0.00  0.00    +0.000 A 
ATOM     11  N   UNL     1       2.030   7.565  19.965  0.00  0.00    +0.000 NA
ATOM     12  S   UNL     1       0.398  10.248  19.376  0.00  0.00    +0.000 S 
ATOM     13  H   UNL     1       3.184   8.964  17.450  0.00  0.00    +0.000 HD
ENDROOT
BRANCH   1  15
ATOM     14  N   UNL     1      -1.256  13.606  20.158  0.00  0.00    +0.000 NA
ATOM     15  C   UNL     1      -0.484  12.850  19.736  0.00  0.00    +0.000 C 
ENDBRANCH   1  15
BRANCH   8  16
ATOM     16  C   UNL     1       2.151   3.976  17.559  0.00  0.00    +0.000 C 
BRANCH  16  17
ATOM     17  N   UNL     1       3.388   3.197  17.520  0.00  0.00    +0.000 NA
ATOM     18  C   UNL     1       3.483   2.030  18.402  0.00  0.00    +0.000 C 
ATOM     19  C   UNL     1       4.082   2.330  19.787  0.00  0.00    +0.000 C 
ATOM     20  O   UNL     1       5.339   3.011  19.686  0.00  0.00    +0.000 OA
ATOM     21  C   UNL     1       5.217   4.218  18.924  0.00  0.00    +0.000 C 
ATOM     22  C   UNL     1       4.649   3.945  17.524  0.00  0.00    +0.000 C 
ENDBRANCH  16  17
ENDBRANCH   8  16
TORSDOF 3
ENDMDL
MODEL 4
REMARK VINA RESULT:      -6.2      1.035      1.519
REMARK  Name = 
REMARK  3 active torsions:
REMARK  status: ('A' for Active; 'I' for Inactive)
REMARK    1  A    between atoms: C_2  and  C_3
REMARK    2  A    between atoms: C_10  and  C_11
REMARK    3  A    between atoms: C_11  and  N_12
REMARK                            x       y       z     vdW  Elec       q    Type
REMARK                         _______ _______ _______ _____ _____    ______ ____
ROOT
ATOM      1  C   UNL     1      -0.924  11.797  19.414  0.00  0.00    +0.000 A 
ATOM      2  C   UNL     1       0.131  12.536  18.932  0.00  0.00    +0.000 A 
ATOM      3  N   UNL     1       1.241  11.805  18.545  0.00  0.00    +0.000 NA
ATOM      4  C   UNL     1       1.041  10.517  18.747  0.00  0.00    +0.000 A 
ATOM      5  N   UNL     1       1.934   9.593  18.323  0.00  0.00    +0.000 N 
ATOM      6  C   UNL     1       2.101   8.291  18.830  0.00  0.00    +0.000 A 
ATOM      7  C   UNL     1       2.613   7.313  17.970  0.00  0.00    +0.000 A 
ATOM      8  C   UNL     1       2.743   5.982  18.399  0.00  0.00    +0.000 A 
ATOM      9  C   UNL     1       2.389   5.694  19.716  0.00  0.00    +0.000 A 
ATOM     10  C   UNL     1       1.917   6.720  20.517  0.00  0.00    +0.000 A 
ATOM     11  N   UNL     1       1.759   7.994  20.098  0.00  0.00    +0.000 NA
ATOM     12  S   UNL     1      -0.507  10.145  19.428  0.00  0.00    +0.000 S 
ATOM     13  H   UNL     1       2.792   9.970  17.944  0.00  0.00    +0.000 HD
ENDROOT
BRANCH   1  15
ATOM     14  N   UNL     1      -3.205  12.758  20.148  0.00  0.00    +0.000 NA
ATOM     15  C   UNL     1      -2.185  12.315  19.819  0.00  0.00    +0.000 C 
ENDBRANCH   1  15
BRANCH   8  16
ATOM     16  C   UNL     1       3.327   4.924  17.490  0.00  0.00    +0.000 C 
BRANCH  16  17
ATOM     17  N   UNL     1       4.763   4.650  17.514  0.00  0.00    +0.000 NA
ATOM     18  C   UNL     1       5.636   5.663  18.115  0.00  0.00    +0.000 C 
ATOM     19  C   UNL     1       6.168   6.710  17.123  0.00  0.00    +0.000 C 
ATOM     20  O   UNL     1       6.786   6.097  15.984  0.00  0.00    +0.000 OA
ATOM     21  C   UNL     1       5.888   5.198  15.325  0.00  0.00    +0.000 C 
ATOM     22  C   UNL     1       5.364   4.121  16.285  0.00  0.00    +0.000 C 
ENDBRANCH  16  17
ENDBRANCH   8  16
TORSDOF 3
ENDMDL
MODEL 5
REMARK VINA RESULT:      -6.2      3.124      3.941
REMARK  Name = 
REMARK  3 active torsions:
REMARK  status: ('A' for Active; 'I' for Inactive)
REMARK    1  A    between atoms: C_2  and  C_3
REMARK    2  A    between atoms: C_10  and  C_11
REMARK    3  A    between atoms: C_11  and  N_12
REMARK                            x       y       z     vdW  Elec       q    Type
REMARK                         _______ _______ _______ _____ _____    ______ ____
ROOT
ATOM      1  C   UNL     1      -0.314  13.223  22.175  0.00  0.00    +0.000 A 
ATOM      2  C   UNL     1      -1.190  12.431  22.879  0.00  0.00    +0.000 A 
ATOM      3  N   UNL     1      -1.093  11.073  22.635  0.00  0.00    +0.000 NA
ATOM      4  C   UNL     1      -0.160  10.829  21.735  0.00  0.00    +0.000 A 
ATOM      5  N   UNL     1       0.208   9.563  21.429  0.00  0.00    +0.000 N 
ATOM      6  C   UNL     1       0.817   9.129  20.238  0.00  0.00    +0.000 A 
ATOM      7  C   UNL     1       1.625   7.989  20.291  0.00  0.00    +0.000 A 
ATOM      8  C   UNL     1       2.309   7.544  19.148  0.00  0.00    +0.000 A 
ATOM      9  C   UNL     1       2.111   8.253  17.964  0.00  0.00    +0.000 A 
ATOM     10  C   UNL     1       1.274   9.355  17.981  0.00  0.00    +0.000 A 
ATOM     11  N   UNL     1       0.641   9.805  19.086  0.00  0.00    +0.000 NA
ATOM     12  S   UNL     1       0.631  12.251  21.143  0.00  0.00    +0.000 S 
ATOM     13  H   UNL     1      -0.352   8.840  21.860  0.00  0.00    +0.000 HD
ENDROOT
BRANCH   1  15
ATOM     14  N   UNL     1      -0.067  15.781  22.413  0.00  0.00    +0.000 NA
ATOM     15  C   UNL     1      -0.186  14.633  22.298  0.00  0.00    +0.000 C 
ENDBRANCH   1  15
BRANCH   8  16
ATOM     16  C   UNL     1       3.158   6.292  19.185  0.00  0.00    +0.000 C 
BRANCH  16  17
ATOM     17  N   UNL     1       2.521   4.978  19.254  0.00  0.00    +0.000 NA
ATOM     18  C   UNL     1       3.183   3.945  20.056  0.00  0.00    +0.000 C 
ATOM     19  C   UNL     1       4.180   3.076  19.271  0.00  0.00    +0.000 C 
ATOM     20  O   UNL     1       3.587   2.520  18.091  0.00  0.00    +0.000 OA
ATOM     21  C   UNL     1       3.047   3.544  17.248  0.00  0.00    +0.000 C 
ATOM     22  C   UNL     1       2.024   4.409  17.997  0.00  0.00    +0.000 C 
ENDBRANCH  16  17
ENDBRANCH   8  16
TORSDOF 3
ENDMDL
MODEL 6
REMARK VINA RESULT:      -6.2      2.014      3.245
REMARK  Name = 
REMARK  3 active torsions:
REMARK  status: ('A' for Active; 'I' for Inactive)
REMARK    1  A    between atoms: C_2  and  C_3
REMARK    2  A    between atoms: C_10  and  C_11
REMARK    3  A    between atoms: C_11  and  N_12
REMARK                            x       y       z     vdW  Elec       q    Type
REMARK                         _______ _______ _______ _____ _____    ______ ____
ROOT
ATOM      1  C   UNL     1       0.376  10.216  19.763  0.00  0.00    +0.000 A 
ATOM      2  C   UNL     1       0.149   9.781  21.048  0.00  0.00    +0.000 A 
ATOM      3  N   UNL     1       0.809   8.619  21.407  0.00  0.00    +0.000 NA
ATOM      4  C   UNL     1       1.522   8.159  20.397  0.00  0.00    +0.000 A 
ATOM      5  N   UNL     1       2.357   7.105  20.549  0.00  0.00    +0.000 N 
ATOM      6  C   UNL     1       2.814   6.242  19.536  0.00  0.00    +0.000 A 
ATOM      7  C   UNL     1       4.050   5.611  19.720  0.00  0.00    +0.000 A 
ATOM      8  C   UNL     1       4.587   4.788  18.718  0.00  0.00    +0.000 A 
ATOM      9  C   UNL     1       3.824   4.594  17.567  0.00  0.00    +0.000 A 
ATOM     10  C   UNL     1       2.598   5.230  17.468  0.00  0.00    +0.000 A 
ATOM     11  N   UNL     1       2.093   6.048  18.416  0.00  0.00    +0.000 NA
ATOM     12  S   UNL     1       1.407   9.121  18.962  0.00  0.00    +0.000 S 
ATOM     13  H   UNL     1       2.310   6.648  21.450  0.00  0.00    +0.000 HD
ENDROOT
BRANCH   1  15
ATOM     14  N   UNL     1      -0.548  12.390  18.722  0.00  0.00    +0.000 NA
ATOM     15  C   UNL     1      -0.143  11.407  19.186  0.00  0.00    +0.000 C 
ENDBRANCH   1  15
BRANCH   8  16
ATOM     16  C   UNL     1       5.904   4.072  18.920  0.00  0.00    +0.000 C 
BRANCH  16  17
ATOM     17  N   UNL     1       7.145   4.672  18.432  0.00  0.00    +0.000 NA
ATOM     18  C   UNL     1       7.347   6.104  18.674  0.00  0.00    +0.000 C 
ATOM     19  C   UNL     1       6.830   7.016  17.549  0.00  0.00    +0.000 C 
ATOM     20  O   UNL     1       7.345   6.625  16.270  0.00  0.00    +0.000 OA
ATOM     21  C   UNL     1       7.039   5.256  15.982  0.00  0.00    +0.000 C 
ATOM     22  C   UNL     1       7.571   4.318  17.075  0.00  0.00    +0.000 C 
ENDBRANCH  16  17
ENDBRANCH   8  16
TORSDOF 3
ENDMDL
MODEL 7
REMARK VINA RESULT:      -6.0      2.174      2.720
REMARK  Name = 
REMARK  3 active torsions:
REMARK  status: ('A' for Active; 'I' for Inactive)
REMARK    1  A    between atoms: C_2  and  C_3
REMARK    2  A    between atoms: C_10  and  C_11
REMARK    3  A    between atoms: C_11  and  N_12
REMARK                            x       y       z     vdW  Elec       q    Type
REMARK                         _______ _______ _______ _____ _____    ______ ____
ROOT
ATOM      1  C   UNL     1      -1.984  11.813  18.949  0.00  0.00    +0.000 A 
ATOM      2  C   UNL     1      -1.014  12.696  18.537  0.00  0.00    +0.000 A 
ATOM      3  N   UNL     1       0.249  12.155  18.368  0.00  0.00    +0.000 NA
ATOM      4  C   UNL     1       0.247  10.870  18.666  0.00  0.00    +0.000 A 
ATOM      5  N   UNL     1       1.337  10.097  18.452  0.00  0.00    +0.000 N 
ATOM      6  C   UNL     1       1.651   8.888  19.099  0.00  0.00    +0.000 A 
ATOM      7  C   UNL     1       2.440   7.961  18.410  0.00  0.00    +0.000 A 
ATOM      8  C   UNL     1       2.734   6.711  18.979  0.00  0.00    +0.000 A 
ATOM      9  C   UNL     1       2.250   6.459  20.262  0.00  0.00    +0.000 A 
ATOM     10  C   UNL     1       1.499   7.436  20.893  0.00  0.00    +0.000 A 
ATOM     11  N   UNL     1       1.186   8.626  20.336  0.00  0.00    +0.000 NA
ATOM     12  S   UNL     1      -1.296  10.271  19.176  0.00  0.00    +0.000 S 
ATOM     13  H   UNL     1       2.163  10.597  18.151  0.00  0.00    +0.000 HD
ENDROOT
BRANCH   1  15
ATOM     14  N   UNL     1      -4.480  12.362  19.310  0.00  0.00    +0.000 NA
ATOM     15  C   UNL     1      -3.360  12.119  19.136  0.00  0.00    +0.000 C 
ENDBRANCH   1  15
BRANCH   8  16
ATOM     16  C   UNL     1       3.616   5.715  18.259  0.00  0.00    +0.000 C 
BRANCH  16  17
ATOM     17  N   UNL     1       3.015   4.682  17.416  0.00  0.00    +0.000 NA
ATOM     18  C   UNL     1       1.614   4.331  17.669  0.00  0.00    +0.000 C 
ATOM     19  C   UNL     1       1.421   3.183  18.674  0.00  0.00    +0.000 C 
ATOM     20  O   UNL     1       2.193   2.029  18.318  0.00  0.00    +0.000 OA
ATOM     21  C   UNL     1       3.583   2.351  18.191  0.00  0.00    +0.000 C 
ATOM     22  C   UNL     1       3.809   3.475  17.170  0.00  0.00    +0.000 C 
ENDBRANCH  16  17
ENDBRANCH   8  16
TORSDOF 3
ENDMDL
MODEL 8
REMARK VINA RESULT:      -5.9      2.796      3.307
REMARK  Name = 
REMARK  3 active torsions:
REMARK  status: ('A' for Active; 'I' for Inactive)
REMARK    1  A    between atoms: C_2  and  C_3
REMARK    2  A    between atoms: C_10  and  C_11
REMARK    3  A    between atoms: C_11  and  N_12
REMARK                            x       y       z     vdW  Elec       q    Type
REMARK                         _______ _______ _______ _____ _____    ______ ____
ROOT
ATOM      1  C   UNL     1      -0.593  13.270  22.379  0.00  0.00    +0.000 A 
ATOM      2  C   UNL     1      -1.384  12.415  23.111  0.00  0.00    +0.000 A 
ATOM      3  N   UNL     1      -1.223  11.069  22.832  0.00  0.00    +0.000 NA
ATOM      4  C   UNL     1      -0.327  10.897  21.880  0.00  0.00    +0.000 A 
ATOM      5  N   UNL     1       0.096   9.661  21.527  0.00  0.00    +0.000 N 
ATOM      6  C   UNL     1       0.662   9.285  20.296  0.00  0.00    +0.000 A 
ATOM      7  C   UNL     1       1.537   8.193  20.282  0.00  0.00    +0.000 A 
ATOM      8  C   UNL     1       2.181   7.810  19.095  0.00  0.00    +0.000 A 
ATOM      9  C   UNL     1       1.879   8.528  17.938  0.00  0.00    +0.000 A 
ATOM     10  C   UNL     1       0.983   9.579  18.024  0.00  0.00    +0.000 A 
ATOM     11  N   UNL     1       0.386   9.971  19.170  0.00  0.00    +0.000 NA
ATOM     12  S   UNL     1       0.348  12.374  21.277  0.00  0.00    +0.000 S 
ATOM     13  H   UNL     1      -0.398   8.898  21.972  0.00  0.00    +0.000 HD
ENDROOT
BRANCH   1  15
ATOM     14  N   UNL     1      -0.512  15.834  22.659  0.00  0.00    +0.000 NA
ATOM     15  C   UNL     1      -0.540  14.682  22.525  0.00  0.00    +0.000 C 
ENDBRANCH   1  15
BRANCH   8  16
ATOM     16  C   UNL     1       3.101   6.610  19.059  0.00  0.00    +0.000 C 
BRANCH  16  17
ATOM     17  N   UNL     1       3.576   6.089  17.778  0.00  0.00    +0.000 NA
ATOM     18  C   UNL     1       3.438   4.650  17.538  0.00  0.00    +0.000 C 
ATOM     19  C   UNL     1       4.653   3.815  17.973  0.00  0.00    +0.000 C 
ATOM     20  O   UNL     1       5.873   4.322  17.417  0.00  0.00    +0.000 OA
ATOM     21  C   UNL     1       6.067   5.700  17.757  0.00  0.00    +0.000 C 
ATOM     22  C   UNL     1       4.880   6.563  17.306  0.00  0.00    +0.000 C 
ENDBRANCH  16  17
ENDBRANCH   8  16
TORSDOF 3
ENDMDL
MODEL 9
REMARK VINA RESULT:      -5.9      3.082      3.962
REMARK  Name = 
REMARK  3 active torsions:
REMARK  status: ('A' for Active; 'I' for Inactive)
REMARK    1  A    between atoms: C_2  and  C_3
REMARK    2  A    between atoms: C_10  and  C_11
REMARK    3  A    between atoms: C_11  and  N_12
REMARK                            x       y       z     vdW  Elec       q    Type
REMARK                         _______ _______ _______ _____ _____    ______ ____
ROOT
ATOM      1  C   UNL     1       0.273  13.646  21.011  0.00  0.00    +0.000 A 
ATOM      2  C   UNL     1      -0.868  13.104  21.556  0.00  0.00    +0.000 A 
ATOM      3  N   UNL     1      -0.967  11.726  21.481  0.00  0.00    +0.000 NA
ATOM      4  C   UNL     1       0.083  11.218  20.866  0.00  0.00    +0.000 A 
ATOM      5  N   UNL     1       0.274   9.881  20.788  0.00  0.00    +0.000 N 
ATOM      6  C   UNL     1       1.043   9.196  19.830  0.00  0.00    +0.000 A 
ATOM      7  C   UNL     1       1.599   7.964  20.194  0.00  0.00    +0.000 A 
ATOM      8  C   UNL     1       2.427   7.264  19.302  0.00  0.00    +0.000 A 
ATOM      9  C   UNL     1       2.630   7.820  18.040  0.00  0.00    +0.000 A 
ATOM     10  C   UNL     1       2.024   9.029  17.742  0.00  0.00    +0.000 A 
ATOM     11  N   UNL     1       1.254   9.722  18.608  0.00  0.00    +0.000 NA
ATOM     12  S   UNL     1       1.231  12.405  20.343  0.00  0.00    +0.000 S 
ATOM     13  H   UNL     1      -0.490   9.319  21.140  0.00  0.00    +0.000 HD
ENDROOT
BRANCH   1  15
ATOM     14  N   UNL     1       0.905  16.148  21.044  0.00  0.00    +0.000 NA
ATOM     15  C   UNL     1       0.624  15.023  21.018  0.00  0.00    +0.000 C 
ENDBRANCH   1  15
BRANCH   8  16
ATOM     16  C   UNL     1       3.005   5.915  19.671  0.00  0.00    +0.000 C 
BRANCH  16  17
ATOM     17  N   UNL     1       2.979   4.819  18.703  0.00  0.00    +0.000 NA
ATOM     18  C   UNL     1       1.677   4.222  18.389  0.00  0.00    +0.000 C 
ATOM     19  C   UNL     1       1.295   3.030  19.282  0.00  0.00    +0.000 C 
ATOM     20  O   UNL     1       2.330   2.038  19.315  0.00  0.00    +0.000 OA
ATOM     21  C   UNL     1       3.577   2.600  19.741  0.00  0.00    +0.000 C 
ATOM     22  C   UNL     1       3.998   3.775  18.848  0.00  0.00    +0.000 C 
ENDBRANCH  16  17
ENDBRANCH   8  16
TORSDOF 3
ENDMDL
