MODEL 1
REMARK VINA RESULT:      -7.2      0.000      0.000
REMARK  Name = 
REMARK  7 active torsions:
REMARK  status: ('A' for Active; 'I' for Inactive)
REMARK    1  A    between atoms: C_1  and  C_2
REMARK    2  A    between atoms: C_2  and  C_3
REMARK    3  A    between atoms: C_3  and  N_4
REMARK    4  A    between atoms: N_4  and  C_5
REMARK    5  A    between atoms: C_5  and  C_6
REMARK    6  A    between atoms: N_16  and  C_17
REMARK    7  A    between atoms: N_20  and  C_21
REMARK                            x       y       z     vdW  Elec       q    Type
REMARK                         _______ _______ _______ _____ _____    ______ ____
ROOT
ATOM      1  C   UNL     1       2.233   7.305  19.188  0.00  0.00    +0.000 C 
ATOM      2  C   UNL     1       2.724   6.041  19.026  0.00  0.00    +0.000 C 
ATOM      3  C   UNL     1       2.302   4.914  19.905  0.00  0.00    +0.000 C 
ATOM      4  O   UNL     1       2.076   5.049  21.105  0.00  0.00    +0.000 OA
ATOM      5  N   UNL     1       2.256   3.679  19.274  0.00  0.00    +0.000 N 
ATOM      6  C   UNL     1       1.650   2.571  19.992  0.00  0.00    +0.000 C 
ATOM      7  C   UNL     1       3.025   3.339  18.170  0.00  0.00    +0.000 C 
ATOM      8  O   UNL     1       3.097   2.176  17.773  0.00  0.00    +0.000 OA
ATOM      9  N   UNL     1       3.740   4.362  17.577  0.00  0.00    +0.000 N 
ATOM     10  C   UNL     1       4.642   4.034  16.483  0.00  0.00    +0.000 C 
ATOM     11  C   UNL     1       3.680   5.698  17.937  0.00  0.00    +0.000 C 
ATOM     12  O   UNL     1       4.399   6.537  17.396  0.00  0.00    +0.000 OA
ENDROOT
BRANCH   1  14
ATOM     13  C   UNL     1       1.310   9.249  17.837  0.00  0.00    +0.000 C 
ATOM     14  C   UNL     1       2.548   8.440  18.209  0.00  0.00    +0.000 C 
ENDBRANCH   1  14
BRANCH   1  15
ATOM     15  N   UNL     1       1.288   7.673  20.168  0.00  0.00    +0.000 N 
ATOM     16  H   UNL     1       0.536   8.228  19.755  0.00  0.00    +0.000 HD
BRANCH  15  17
ATOM     17  C   UNL     1       1.703   8.379  21.399  0.00  0.00    +0.000 C 
BRANCH  17  18
ATOM     18  C   UNL     1       0.731   9.491  21.755  0.00  0.00    +0.000 A 
ATOM     19  C   UNL     1      -0.158   9.352  22.833  0.00  0.00    +0.000 A 
ATOM     20  C   UNL     1      -0.997  10.393  23.214  0.00  0.00    +0.000 A 
ATOM     21  C   UNL     1      -0.951  11.599  22.529  0.00  0.00    +0.000 A 
ATOM     22  F   UNL     1      -1.747  12.606  22.907  0.00  0.00    +0.000 F 
ATOM     23  C   UNL     1      -0.075  11.775  21.464  0.00  0.00    +0.000 A 
ATOM     24  C   UNL     1       0.769  10.724  21.079  0.00  0.00    +0.000 A 
ENDBRANCH  17  18
ENDBRANCH  15  17
ENDBRANCH   1  15
TORSDOF 4
ENDMDL
MODEL 2
REMARK VINA RESULT:      -7.2      0.101      1.010
REMARK  Name = 
REMARK  7 active torsions:
REMARK  status: ('A' for Active; 'I' for Inactive)
REMARK    1  A    between atoms: C_1  and  C_2
REMARK    2  A    between atoms: C_2  and  C_3
REMARK    3  A    between atoms: C_3  and  N_4
REMARK    4  A    between atoms: N_4  and  C_5
REMARK    5  A    between atoms: C_5  and  C_6
REMARK    6  A    between atoms: N_16  and  C_17
REMARK    7  A    between atoms: N_20  and  C_21
REMARK                            x       y       z     vdW  Elec       q    Type
REMARK                         _______ _______ _______ _____ _____    ______ ____
ROOT
ATOM      1  C   UNL     1       2.229   7.342  19.247  0.00  0.00    +0.000 C 
ATOM      2  C   UNL     1       2.712   6.079  19.055  0.00  0.00    +0.000 C 
ATOM      3  C   UNL     1       2.286   4.936  19.912  0.00  0.00    +0.000 C 
ATOM      4  O   UNL     1       2.067   5.046  21.116  0.00  0.00    +0.000 OA
ATOM      5  N   UNL     1       2.228   3.716  19.254  0.00  0.00    +0.000 N 
ATOM      6  C   UNL     1       1.618   2.596  19.951  0.00  0.00    +0.000 C 
ATOM      7  C   UNL     1       2.989   3.394  18.139  0.00  0.00    +0.000 C 
ATOM      8  O   UNL     1       3.051   2.240  17.716  0.00  0.00    +0.000 OA
ATOM      9  N   UNL     1       3.709   4.425  17.565  0.00  0.00    +0.000 N 
ATOM     10  C   UNL     1       4.603   4.115  16.460  0.00  0.00    +0.000 C 
ATOM     11  C   UNL     1       3.660   5.753  17.954  0.00  0.00    +0.000 C 
ATOM     12  O   UNL     1       4.381   6.599  17.428  0.00  0.00    +0.000 OA
ENDROOT
BRANCH   1  14
ATOM     13  C   UNL     1       1.292   9.210  17.801  0.00  0.00    +0.000 C 
ATOM     14  C   UNL     1       2.547   8.497  18.291  0.00  0.00    +0.000 C 
ENDBRANCH   1  14
BRANCH   1  15
ATOM     15  N   UNL     1       1.292   7.695  20.240  0.00  0.00    +0.000 N 
ATOM     16  H   UNL     1       0.548   8.274  19.846  0.00  0.00    +0.000 HD
BRANCH  15  17
ATOM     17  C   UNL     1       1.720   8.357  21.491  0.00  0.00    +0.000 C 
BRANCH  17  18
ATOM     18  C   UNL     1       0.798   9.508  21.853  0.00  0.00    +0.000 A 
ATOM     19  C   UNL     1       0.763  10.675  21.071  0.00  0.00    +0.000 A 
ATOM     20  C   UNL     1      -0.133  11.701  21.348  0.00  0.00    +0.000 A 
ATOM     21  C   UNL     1      -1.020  11.572  22.407  0.00  0.00    +0.000 A 
ATOM     22  F   UNL     1      -1.893  12.554  22.663  0.00  0.00    +0.000 F 
ATOM     23  C   UNL     1      -1.020  10.428  23.195  0.00  0.00    +0.000 A 
ATOM     24  C   UNL     1      -0.115   9.394  22.916  0.00  0.00    +0.000 A 
ENDBRANCH  17  18
ENDBRANCH  15  17
ENDBRANCH   1  15
TORSDOF 4
ENDMDL
MODEL 3
REMARK VINA RESULT:      -7.0      4.434      8.373
REMARK  Name = 
REMARK  7 active torsions:
REMARK  status: ('A' for Active; 'I' for Inactive)
REMARK    1  A    between atoms: C_1  and  C_2
REMARK    2  A    between atoms: C_2  and  C_3
REMARK    3  A    between atoms: C_3  and  N_4
REMARK    4  A    between atoms: N_4  and  C_5
REMARK    5  A    between atoms: C_5  and  C_6
REMARK    6  A    between atoms: N_16  and  C_17
REMARK    7  A    between atoms: N_20  and  C_21
REMARK                            x       y       z     vdW  Elec       q    Type
REMARK                         _______ _______ _______ _____ _____    ______ ____
ROOT
ATOM      1  C   UNL     1       5.350   5.363  17.202  0.00  0.00    +0.000 C 
ATOM      2  C   UNL     1       4.257   5.226  18.010  0.00  0.00    +0.000 C 
ATOM      3  C   UNL     1       3.815   3.897  18.518  0.00  0.00    +0.000 C 
ATOM      4  O   UNL     1       3.887   2.868  17.850  0.00  0.00    +0.000 OA
ATOM      5  N   UNL     1       3.246   3.925  19.782  0.00  0.00    +0.000 N 
ATOM      6  C   UNL     1       2.988   2.655  20.440  0.00  0.00    +0.000 C 
ATOM      7  C   UNL     1       2.605   5.030  20.325  0.00  0.00    +0.000 C 
ATOM      8  O   UNL     1       1.945   4.944  21.360  0.00  0.00    +0.000 OA
ATOM      9  N   UNL     1       2.706   6.211  19.614  0.00  0.00    +0.000 N 
ATOM     10  C   UNL     1       1.964   7.370  20.088  0.00  0.00    +0.000 C 
ATOM     11  C   UNL     1       3.461   6.399  18.469  0.00  0.00    +0.000 C 
ATOM     12  O   UNL     1       3.446   7.469  17.864  0.00  0.00    +0.000 OA
ENDROOT
BRANCH   1  14
ATOM     13  C   UNL     1       7.262   7.024  17.404  0.00  0.00    +0.000 C 
ATOM     14  C   UNL     1       5.898   6.733  16.788  0.00  0.00    +0.000 C 
ENDBRANCH   1  14
BRANCH   1  15
ATOM     15  N   UNL     1       6.168   4.295  16.781  0.00  0.00    +0.000 N 
ATOM     16  H   UNL     1       7.112   4.623  16.569  0.00  0.00    +0.000 HD
BRANCH  15  17
ATOM     17  C   UNL     1       5.764   3.425  15.654  0.00  0.00    +0.000 C 
BRANCH  17  18
ATOM     18  C   UNL     1       6.344   3.918  14.339  0.00  0.00    +0.000 A 
ATOM     19  C   UNL     1       5.833   3.463  13.113  0.00  0.00    +0.000 A 
ATOM     20  C   UNL     1       6.304   3.966  11.905  0.00  0.00    +0.000 A 
ATOM     21  C   UNL     1       7.288   4.946  11.905  0.00  0.00    +0.000 A 
ATOM     22  F   UNL     1       7.729   5.441  10.743  0.00  0.00    +0.000 F 
ATOM     23  C   UNL     1       7.808   5.426  13.101  0.00  0.00    +0.000 A 
ATOM     24  C   UNL     1       7.334   4.916  14.318  0.00  0.00    +0.000 A 
ENDBRANCH  17  18
ENDBRANCH  15  17
ENDBRANCH   1  15
TORSDOF 4
ENDMDL
MODEL 4
REMARK VINA RESULT:      -6.9      4.453      8.378
REMARK  Name = 
REMARK  7 active torsions:
REMARK  status: ('A' for Active; 'I' for Inactive)
REMARK    1  A    between atoms: C_1  and  C_2
REMARK    2  A    between atoms: C_2  and  C_3
REMARK    3  A    between atoms: C_3  and  N_4
REMARK    4  A    between atoms: N_4  and  C_5
REMARK    5  A    between atoms: C_5  and  C_6
REMARK    6  A    between atoms: N_16  and  C_17
REMARK    7  A    between atoms: N_20  and  C_21
REMARK                            x       y       z     vdW  Elec       q    Type
REMARK                         _______ _______ _______ _____ _____    ______ ____
ROOT
ATOM      1  C   UNL     1       5.383   5.358  17.278  0.00  0.00    +0.000 C 
ATOM      2  C   UNL     1       4.282   5.206  18.073  0.00  0.00    +0.000 C 
ATOM      3  C   UNL     1       3.861   3.871  18.585  0.00  0.00    +0.000 C 
ATOM      4  O   UNL     1       3.962   2.839  17.926  0.00  0.00    +0.000 OA
ATOM      5  N   UNL     1       3.275   3.897  19.842  0.00  0.00    +0.000 N 
ATOM      6  C   UNL     1       3.034   2.628  20.506  0.00  0.00    +0.000 C 
ATOM      7  C   UNL     1       2.604   4.993  20.367  0.00  0.00    +0.000 C 
ATOM      8  O   UNL     1       1.932   4.902  21.394  0.00  0.00    +0.000 OA
ATOM      9  N   UNL     1       2.691   6.171  19.649  0.00  0.00    +0.000 N 
ATOM     10  C   UNL     1       1.919   7.318  20.103  0.00  0.00    +0.000 C 
ATOM     11  C   UNL     1       3.458   6.365  18.512  0.00  0.00    +0.000 C 
ATOM     12  O   UNL     1       3.429   7.430  17.898  0.00  0.00    +0.000 OA
ENDROOT
BRANCH   1  14
ATOM     13  C   UNL     1       7.306   7.014  17.403  0.00  0.00    +0.000 C 
ATOM     14  C   UNL     1       5.909   6.735  16.860  0.00  0.00    +0.000 C 
ENDBRANCH   1  14
BRANCH   1  15
ATOM     15  N   UNL     1       6.228   4.303  16.876  0.00  0.00    +0.000 N 
ATOM     16  H   UNL     1       7.163   4.652  16.656  0.00  0.00    +0.000 HD
BRANCH  15  17
ATOM     17  C   UNL     1       5.845   3.402  15.768  0.00  0.00    +0.000 C 
BRANCH  17  18
ATOM     18  C   UNL     1       6.297   3.951  14.425  0.00  0.00    +0.000 A 
ATOM     19  C   UNL     1       7.341   4.887  14.346  0.00  0.00    +0.000 A 
ATOM     20  C   UNL     1       7.814   5.337  13.118  0.00  0.00    +0.000 A 
ATOM     21  C   UNL     1       7.258   4.845  11.945  0.00  0.00    +0.000 A 
ATOM     22  F   UNL     1       7.725   5.265  10.764  0.00  0.00    +0.000 F 
ATOM     23  C   UNL     1       6.231   3.909  11.987  0.00  0.00    +0.000 A 
ATOM     24  C   UNL     1       5.753   3.458  13.226  0.00  0.00    +0.000 A 
ENDBRANCH  17  18
ENDBRANCH  15  17
ENDBRANCH   1  15
TORSDOF 4
ENDMDL
MODEL 5
REMARK VINA RESULT:      -6.9      3.373      7.165
REMARK  Name = 
REMARK  7 active torsions:
REMARK  status: ('A' for Active; 'I' for Inactive)
REMARK    1  A    between atoms: C_1  and  C_2
REMARK    2  A    between atoms: C_2  and  C_3
REMARK    3  A    between atoms: C_3  and  N_4
REMARK    4  A    between atoms: N_4  and  C_5
REMARK    5  A    between atoms: C_5  and  C_6
REMARK    6  A    between atoms: N_16  and  C_17
REMARK    7  A    between atoms: N_20  and  C_21
REMARK                            x       y       z     vdW  Elec       q    Type
REMARK                         _______ _______ _______ _____ _____    ______ ____
ROOT
ATOM      1  C   UNL     1       2.638   5.049  18.574  0.00  0.00    +0.000 C 
ATOM      2  C   UNL     1       2.455   6.311  19.063  0.00  0.00    +0.000 C 
ATOM      3  C   UNL     1       2.790   7.522  18.262  0.00  0.00    +0.000 C 
ATOM      4  O   UNL     1       3.758   7.577  17.506  0.00  0.00    +0.000 OA
ATOM      5  N   UNL     1       1.964   8.612  18.493  0.00  0.00    +0.000 N 
ATOM      6  C   UNL     1       2.081   9.755  17.604  0.00  0.00    +0.000 C 
ATOM      7  C   UNL     1       1.282   8.834  19.681  0.00  0.00    +0.000 C 
ATOM      8  O   UNL     1       0.727   9.909  19.910  0.00  0.00    +0.000 OA
ATOM      9  N   UNL     1       1.305   7.809  20.607  0.00  0.00    +0.000 N 
ATOM     10  C   UNL     1       0.695   8.036  21.908  0.00  0.00    +0.000 C 
ATOM     11  C   UNL     1       1.870   6.560  20.410  0.00  0.00    +0.000 C 
ATOM     12  O   UNL     1       1.901   5.724  21.312  0.00  0.00    +0.000 OA
ENDROOT
BRANCH   1  14
ATOM     13  C   UNL     1       1.094   3.030  18.566  0.00  0.00    +0.000 C 
ATOM     14  C   UNL     1       2.168   3.800  19.327  0.00  0.00    +0.000 C 
ENDBRANCH   1  14
BRANCH   1  15
ATOM     15  N   UNL     1       3.138   4.758  17.288  0.00  0.00    +0.000 N 
ATOM     16  H   UNL     1       2.436   4.270  16.729  0.00  0.00    +0.000 HD
BRANCH  15  17
ATOM     17  C   UNL     1       4.404   4.014  17.114  0.00  0.00    +0.000 C 
BRANCH  17  18
ATOM     18  C   UNL     1       5.598   4.840  17.561  0.00  0.00    +0.000 A 
ATOM     19  C   UNL     1       6.231   5.727  16.676  0.00  0.00    +0.000 A 
ATOM     20  C   UNL     1       7.274   6.545  17.097  0.00  0.00    +0.000 A 
ATOM     21  C   UNL     1       7.694   6.497  18.419  0.00  0.00    +0.000 A 
ATOM     22  F   UNL     1       8.687   7.295  18.828  0.00  0.00    +0.000 F 
ATOM     23  C   UNL     1       7.083   5.638  19.325  0.00  0.00    +0.000 A 
ATOM     24  C   UNL     1       6.032   4.813  18.898  0.00  0.00    +0.000 A 
ENDBRANCH  17  18
ENDBRANCH  15  17
ENDBRANCH   1  15
TORSDOF 4
ENDMDL
MODEL 6
REMARK VINA RESULT:      -6.9      4.483      8.403
REMARK  Name = 
REMARK  7 active torsions:
REMARK  status: ('A' for Active; 'I' for Inactive)
REMARK    1  A    between atoms: C_1  and  C_2
REMARK    2  A    between atoms: C_2  and  C_3
REMARK    3  A    between atoms: C_3  and  N_4
REMARK    4  A    between atoms: N_4  and  C_5
REMARK    5  A    between atoms: C_5  and  C_6
REMARK    6  A    between atoms: N_16  and  C_17
REMARK    7  A    between atoms: N_20  and  C_21
REMARK                            x       y       z     vdW  Elec       q    Type
REMARK                         _______ _______ _______ _____ _____    ______ ____
ROOT
ATOM      1  C   UNL     1       5.609   5.674  17.079  0.00  0.00    +0.000 C 
ATOM      2  C   UNL     1       4.506   5.417  17.844  0.00  0.00    +0.000 C 
ATOM      3  C   UNL     1       4.127   4.031  18.237  0.00  0.00    +0.000 C 
ATOM      4  O   UNL     1       4.270   3.062  17.496  0.00  0.00    +0.000 OA
ATOM      5  N   UNL     1       3.527   3.931  19.484  0.00  0.00    +0.000 N 
ATOM      6  C   UNL     1       3.324   2.603  20.037  0.00  0.00    +0.000 C 
ATOM      7  C   UNL     1       2.814   4.956  20.090  0.00  0.00    +0.000 C 
ATOM      8  O   UNL     1       2.135   4.756  21.098  0.00  0.00    +0.000 OA
ATOM      9  N   UNL     1       2.867   6.192  19.474  0.00  0.00    +0.000 N 
ATOM     10  C   UNL     1       2.051   7.270  20.013  0.00  0.00    +0.000 C 
ATOM     11  C   UNL     1       3.637   6.507  18.368  0.00  0.00    +0.000 C 
ATOM     12  O   UNL     1       3.577   7.619  17.845  0.00  0.00    +0.000 OA
ENDROOT
BRANCH   1  14
ATOM     13  C   UNL     1       7.332   7.470  17.586  0.00  0.00    +0.000 C 
ATOM     14  C   UNL     1       6.090   7.098  16.784  0.00  0.00    +0.000 C 
ENDBRANCH   1  14
BRANCH   1  15
ATOM     15  N   UNL     1       6.494   4.685  16.600  0.00  0.00    +0.000 N 
ATOM     16  H   UNL     1       7.147   4.400  17.332  0.00  0.00    +0.000 HD
BRANCH  15  17
ATOM     17  C   UNL     1       7.300   4.912  15.382  0.00  0.00    +0.000 C 
BRANCH  17  18
ATOM     18  C   UNL     1       6.600   4.372  14.146  0.00  0.00    +0.000 A 
ATOM     19  C   UNL     1       7.318   4.115  12.967  0.00  0.00    +0.000 A 
ATOM     20  C   UNL     1       6.701   3.549  11.856  0.00  0.00    +0.000 A 
ATOM     21  C   UNL     1       5.355   3.218  11.912  0.00  0.00    +0.000 A 
ATOM     22  F   UNL     1       4.766   2.658  10.849  0.00  0.00    +0.000 F 
ATOM     23  C   UNL     1       4.616   3.449  13.067  0.00  0.00    +0.000 A 
ATOM     24  C   UNL     1       5.239   4.022  14.185  0.00  0.00    +0.000 A 
ENDBRANCH  17  18
ENDBRANCH  15  17
ENDBRANCH   1  15
TORSDOF 4
ENDMDL
MODEL 7
REMARK VINA RESULT:      -6.8      1.895      3.462
REMARK  Name = 
REMARK  7 active torsions:
REMARK  status: ('A' for Active; 'I' for Inactive)
REMARK    1  A    between atoms: C_1  and  C_2
REMARK    2  A    between atoms: C_2  and  C_3
REMARK    3  A    between atoms: C_3  and  N_4
REMARK    4  A    between atoms: N_4  and  C_5
REMARK    5  A    between atoms: C_5  and  C_6
REMARK    6  A    between atoms: N_16  and  C_17
REMARK    7  A    between atoms: N_20  and  C_21
REMARK                            x       y       z     vdW  Elec       q    Type
REMARK                         _______ _______ _______ _____ _____    ______ ____
ROOT
ATOM      1  C   UNL     1       2.064   7.198  19.634  0.00  0.00    +0.000 C 
ATOM      2  C   UNL     1       2.617   5.964  19.440  0.00  0.00    +0.000 C 
ATOM      3  C   UNL     1       3.714   5.740  18.457  0.00  0.00    +0.000 C 
ATOM      4  O   UNL     1       3.776   6.324  17.378  0.00  0.00    +0.000 OA
ATOM      5  N   UNL     1       4.625   4.761  18.826  0.00  0.00    +0.000 N 
ATOM      6  C   UNL     1       5.839   4.629  18.038  0.00  0.00    +0.000 C 
ATOM      7  C   UNL     1       4.327   3.696  19.664  0.00  0.00    +0.000 C 
ATOM      8  O   UNL     1       5.104   2.750  19.800  0.00  0.00    +0.000 OA
ATOM      9  N   UNL     1       3.097   3.731  20.293  0.00  0.00    +0.000 N 
ATOM     10  C   UNL     1       2.697   2.586  21.097  0.00  0.00    +0.000 C 
ATOM     11  C   UNL     1       2.189   4.774  20.226  0.00  0.00    +0.000 C 
ATOM     12  O   UNL     1       1.088   4.697  20.768  0.00  0.00    +0.000 OA
ENDROOT
BRANCH   1  14
ATOM     13  C   UNL     1       1.389   8.700  21.569  0.00  0.00    +0.000 C 
ATOM     14  C   UNL     1       1.035   7.473  20.737  0.00  0.00    +0.000 C 
ENDBRANCH   1  14
BRANCH   1  15
ATOM     15  N   UNL     1       2.466   8.367  18.956  0.00  0.00    +0.000 N 
ATOM     16  H   UNL     1       2.540   9.154  19.604  0.00  0.00    +0.000 HD
BRANCH  15  17
ATOM     17  C   UNL     1       1.717   8.861  17.780  0.00  0.00    +0.000 C 
BRANCH  17  18
ATOM     18  C   UNL     1       0.780   9.997  18.157  0.00  0.00    +0.000 A 
ATOM     19  C   UNL     1      -0.608   9.873  17.980  0.00  0.00    +0.000 A 
ATOM     20  C   UNL     1      -1.478  10.875  18.394  0.00  0.00    +0.000 A 
ATOM     21  C   UNL     1      -0.975  12.014  19.006  0.00  0.00    +0.000 A 
ATOM     22  F   UNL     1      -1.815  12.971  19.419  0.00  0.00    +0.000 F 
ATOM     23  C   UNL     1       0.392  12.164  19.207  0.00  0.00    +0.000 A 
ATOM     24  C   UNL     1       1.270  11.155  18.787  0.00  0.00    +0.000 A 
ENDBRANCH  17  18
ENDBRANCH  15  17
ENDBRANCH   1  15
TORSDOF 4
ENDMDL
MODEL 8
REMARK VINA RESULT:      -6.8      4.562      8.286
REMARK  Name = 
REMARK  7 active torsions:
REMARK  status: ('A' for Active; 'I' for Inactive)
REMARK    1  A    between atoms: C_1  and  C_2
REMARK    2  A    between atoms: C_2  and  C_3
REMARK    3  A    between atoms: C_3  and  N_4
REMARK    4  A    between atoms: N_4  and  C_5
REMARK    5  A    between atoms: C_5  and  C_6
REMARK    6  A    between atoms: N_16  and  C_17
REMARK    7  A    between atoms: N_20  and  C_21
REMARK                            x       y       z     vdW  Elec       q    Type
REMARK                         _______ _______ _______ _____ _____    ______ ____
ROOT
ATOM      1  C   UNL     1       4.312   5.014  17.070  0.00  0.00    +0.000 C 
ATOM      2  C   UNL     1       3.239   4.830  17.895  0.00  0.00    +0.000 C 
ATOM      3  C   UNL     1       2.509   3.532  17.960  0.00  0.00    +0.000 C 
ATOM      4  O   UNL     1       2.318   2.822  16.976  0.00  0.00    +0.000 OA
ATOM      5  N   UNL     1       1.996   3.223  19.211  0.00  0.00    +0.000 N 
ATOM      6  C   UNL     1       1.463   1.887  19.416  0.00  0.00    +0.000 C 
ATOM      7  C   UNL     1       1.649   4.168  20.166  0.00  0.00    +0.000 C 
ATOM      8  O   UNL     1       1.014   3.857  21.174  0.00  0.00    +0.000 OA
ATOM      9  N   UNL     1       2.007   5.476  19.899  0.00  0.00    +0.000 N 
ATOM     10  C   UNL     1       1.572   6.515  20.819  0.00  0.00    +0.000 C 
ATOM     11  C   UNL     1       2.755   5.898  18.813  0.00  0.00    +0.000 C 
ATOM     12  O   UNL     1       2.977   7.092  18.618  0.00  0.00    +0.000 OA
ENDROOT
BRANCH   1  14
ATOM     13  C   UNL     1       4.966   7.140  15.841  0.00  0.00    +0.000 C 
ATOM     14  C   UNL     1       5.157   6.292  17.094  0.00  0.00    +0.000 C 
ENDBRANCH   1  14
BRANCH   1  15
ATOM     15  N   UNL     1       4.843   4.021  16.220  0.00  0.00    +0.000 N 
ATOM     16  H   UNL     1       4.517   3.094  16.500  0.00  0.00    +0.000 HD
BRANCH  15  17
ATOM     17  C   UNL     1       6.301   3.906  16.002  0.00  0.00    +0.000 C 
BRANCH  17  18
ATOM     18  C   UNL     1       6.668   4.182  14.554  0.00  0.00    +0.000 A 
ATOM     19  C   UNL     1       5.941   3.597  13.504  0.00  0.00    +0.000 A 
ATOM     20  C   UNL     1       6.220   3.904  12.177  0.00  0.00    +0.000 A 
ATOM     21  C   UNL     1       7.224   4.815  11.878  0.00  0.00    +0.000 A 
ATOM     22  F   UNL     1       7.480   5.122  10.601  0.00  0.00    +0.000 F 
ATOM     23  C   UNL     1       7.955   5.420  12.892  0.00  0.00    +0.000 A 
ATOM     24  C   UNL     1       7.675   5.108  14.231  0.00  0.00    +0.000 A 
ENDBRANCH  17  18
ENDBRANCH  15  17
ENDBRANCH   1  15
TORSDOF 4
ENDMDL
MODEL 9
REMARK VINA RESULT:      -6.8      4.458      8.326
REMARK  Name = 
REMARK  7 active torsions:
REMARK  status: ('A' for Active; 'I' for Inactive)
REMARK    1  A    between atoms: C_1  and  C_2
REMARK    2  A    between atoms: C_2  and  C_3
REMARK    3  A    between atoms: C_3  and  N_4
REMARK    4  A    between atoms: N_4  and  C_5
REMARK    5  A    between atoms: C_5  and  C_6
REMARK    6  A    between atoms: N_16  and  C_17
REMARK    7  A    between atoms: N_20  and  C_21
REMARK                            x       y       z     vdW  Elec       q    Type
REMARK                         _______ _______ _______ _____ _____    ______ ____
ROOT
ATOM      1  C   UNL     1       5.641   5.700  17.158  0.00  0.00    +0.000 C 
ATOM      2  C   UNL     1       4.533   5.438  17.913  0.00  0.00    +0.000 C 
ATOM      3  C   UNL     1       4.166   4.050  18.315  0.00  0.00    +0.000 C 
ATOM      4  O   UNL     1       4.329   3.076  17.583  0.00  0.00    +0.000 OA
ATOM      5  N   UNL     1       3.555   3.954  19.556  0.00  0.00    +0.000 N 
ATOM      6  C   UNL     1       3.361   2.629  20.118  0.00  0.00    +0.000 C 
ATOM      7  C   UNL     1       2.823   4.976  20.146  0.00  0.00    +0.000 C 
ATOM      8  O   UNL     1       2.136   4.777  21.148  0.00  0.00    +0.000 OA
ATOM      9  N   UNL     1       2.868   6.207  19.520  0.00  0.00    +0.000 N 
ATOM     10  C   UNL     1       2.034   7.280  20.041  0.00  0.00    +0.000 C 
ATOM     11  C   UNL     1       3.646   6.522  18.419  0.00  0.00    +0.000 C 
ATOM     12  O   UNL     1       3.579   7.628  17.885  0.00  0.00    +0.000 OA
ENDROOT
BRANCH   1  14
ATOM     13  C   UNL     1       7.379   7.497  17.615  0.00  0.00    +0.000 C 
ATOM     14  C   UNL     1       6.109   7.128  16.856  0.00  0.00    +0.000 C 
ENDBRANCH   1  14
BRANCH   1  15
ATOM     15  N   UNL     1       6.542   4.718  16.697  0.00  0.00    +0.000 N 
ATOM     16  H   UNL     1       7.202   4.459  17.433  0.00  0.00    +0.000 HD
BRANCH  15  17
ATOM     17  C   UNL     1       7.343   4.934  15.473  0.00  0.00    +0.000 C 
BRANCH  17  18
ATOM     18  C   UNL     1       6.677   4.311  14.258  0.00  0.00    +0.000 A 
ATOM     19  C   UNL     1       5.329   3.917  14.300  0.00  0.00    +0.000 A 
ATOM     20  C   UNL     1       4.690   3.418  13.170  0.00  0.00    +0.000 A 
ATOM     21  C   UNL     1       5.386   3.317  11.974  0.00  0.00    +0.000 A 
ATOM     22  F   UNL     1       4.765   2.852  10.884  0.00  0.00    +0.000 F 
ATOM     23  C   UNL     1       6.717   3.707  11.895  0.00  0.00    +0.000 A 
ATOM     24  C   UNL     1       7.362   4.208  13.035  0.00  0.00    +0.000 A 
ENDBRANCH  17  18
ENDBRANCH  15  17
ENDBRANCH   1  15
TORSDOF 4
ENDMDL
