MODEL 1
REMARK VINA RESULT:      -8.0      0.000      0.000
REMARK  Name = 
REMARK  3 active torsions:
REMARK  status: ('A' for Active; 'I' for Inactive)
REMARK    1  A    between atoms: C_1  and  C_2
REMARK    2  A    between atoms: C_10  and  C_11
REMARK    3  A    between atoms: C_11  and  O_13
REMARK                            x       y       z     vdW  Elec       q    Type
REMARK                         _______ _______ _______ _____ _____    ______ ____
ROOT
ATOM      1  C   UNL     1       1.278   2.476  21.857  0.00  0.00    +0.000 C 
ATOM      2  C   UNL     1       1.880   3.453  20.895  0.00  0.00    +0.000 A 
ATOM      3  C   UNL     1       1.656   4.866  21.096  0.00  0.00    +0.000 A 
ATOM      4  C   UNL     1       2.173   5.768  20.254  0.00  0.00    +0.000 A 
ATOM      5  C   UNL     1       2.990   5.323  19.091  0.00  0.00    +0.000 A 
ATOM      6  N   UNL     1       3.472   6.221  18.287  0.00  0.00    +0.000 NA
ATOM      7  C   UNL     1       4.241   5.791  17.201  0.00  0.00    +0.000 A 
ATOM      8  C   UNL     1       4.780   6.751  16.339  0.00  0.00    +0.000 A 
ATOM      9  C   UNL     1       5.565   6.371  15.244  0.00  0.00    +0.000 A 
ATOM     10  C   UNL     1       5.806   5.015  14.993  0.00  0.00    +0.000 A 
ATOM     11  C   UNL     1       5.277   4.049  15.857  0.00  0.00    +0.000 A 
ATOM     12  C   UNL     1       4.499   4.446  16.952  0.00  0.00    +0.000 A 
ATOM     13  C   UNL     1       3.931   3.451  17.881  0.00  0.00    +0.000 A 
ATOM     14  O   UNL     1       4.142   2.257  17.670  0.00  0.00    +0.000 OA
ATOM     15  N   UNL     1       3.180   3.953  18.944  0.00  0.00    +0.000 N 
ATOM     16  C   UNL     1       2.621   3.054  19.849  0.00  0.00    +0.000 A 
ENDROOT
BRANCH  10  17
ATOM     17  C   UNL     1       6.657   4.549  13.868  0.00  0.00    +0.000 C 
ATOM     18  O   UNL     1       7.564   5.222  13.409  0.00  0.00    +0.000 OA
BRANCH  17  19
ATOM     19  O   UNL     1       6.362   3.310  13.422  0.00  0.00    +0.000 OA
ATOM     20  H   UNL     1       6.861   2.581  13.831  0.00  0.00    +0.000 HD
ENDBRANCH  17  19
ENDBRANCH  10  17
TORSDOF 2
ENDMDL
MODEL 2
REMARK VINA RESULT:      -7.1      3.003      4.997
REMARK  Name = 
REMARK  3 active torsions:
REMARK  status: ('A' for Active; 'I' for Inactive)
REMARK    1  A    between atoms: C_1  and  C_2
REMARK    2  A    between atoms: C_10  and  C_11
REMARK    3  A    between atoms: C_11  and  O_13
REMARK                            x       y       z     vdW  Elec       q    Type
REMARK                         _______ _______ _______ _____ _____    ______ ____
ROOT
ATOM      1  C   UNL     1       0.069  10.628  20.753  0.00  0.00    +0.000 C 
ATOM      2  C   UNL     1       0.897   9.695  19.923  0.00  0.00    +0.000 A 
ATOM      3  C   UNL     1       1.387  10.143  18.640  0.00  0.00    +0.000 A 
ATOM      4  C   UNL     1       2.124   9.335  17.869  0.00  0.00    +0.000 A 
ATOM      5  C   UNL     1       2.448   7.956  18.326  0.00  0.00    +0.000 A 
ATOM      6  N   UNL     1       3.159   7.192  17.553  0.00  0.00    +0.000 NA
ATOM      7  C   UNL     1       3.460   5.901  17.994  0.00  0.00    +0.000 A 
ATOM      8  C   UNL     1       4.239   5.076  17.178  0.00  0.00    +0.000 A 
ATOM      9  C   UNL     1       4.576   3.779  17.581  0.00  0.00    +0.000 A 
ATOM     10  C   UNL     1       4.119   3.287  18.809  0.00  0.00    +0.000 A 
ATOM     11  C   UNL     1       3.346   4.110  19.637  0.00  0.00    +0.000 A 
ATOM     12  C   UNL     1       3.022   5.408  19.221  0.00  0.00    +0.000 A 
ATOM     13  C   UNL     1       2.212   6.298  20.074  0.00  0.00    +0.000 A 
ATOM     14  O   UNL     1       1.810   5.874  21.157  0.00  0.00    +0.000 OA
ATOM     15  N   UNL     1       1.957   7.574  19.570  0.00  0.00    +0.000 N 
ATOM     16  C   UNL     1       1.194   8.452  20.335  0.00  0.00    +0.000 A 
ENDROOT
BRANCH  10  17
ATOM     17  C   UNL     1       4.470   1.932  19.308  0.00  0.00    +0.000 C 
ATOM     18  O   UNL     1       5.024   1.751  20.378  0.00  0.00    +0.000 OA
BRANCH  17  19
ATOM     19  O   UNL     1       4.094   0.924  18.494  0.00  0.00    +0.000 OA
ATOM     20  H   UNL     1       4.635   0.799  17.695  0.00  0.00    +0.000 HD
ENDBRANCH  17  19
ENDBRANCH  10  17
TORSDOF 2
ENDMDL
MODEL 3
REMARK VINA RESULT:      -6.9      1.703      2.849
REMARK  Name = 
REMARK  3 active torsions:
REMARK  status: ('A' for Active; 'I' for Inactive)
REMARK    1  A    between atoms: C_1  and  C_2
REMARK    2  A    between atoms: C_10  and  C_11
REMARK    3  A    between atoms: C_11  and  O_13
REMARK                            x       y       z     vdW  Elec       q    Type
REMARK                         _______ _______ _______ _____ _____    ______ ____
ROOT
ATOM      1  C   UNL     1       1.003   8.362  21.166  0.00  0.00    +0.000 C 
ATOM      2  C   UNL     1       1.657   7.220  20.451  0.00  0.00    +0.000 A 
ATOM      3  C   UNL     1       1.407   5.872  20.905  0.00  0.00    +0.000 A 
ATOM      4  C   UNL     1       1.979   4.827  20.295  0.00  0.00    +0.000 A 
ATOM      5  C   UNL     1       2.885   5.043  19.133  0.00  0.00    +0.000 A 
ATOM      6  N   UNL     1       3.430   4.010  18.566  0.00  0.00    +0.000 NA
ATOM      7  C   UNL     1       4.276   4.226  17.474  0.00  0.00    +0.000 A 
ATOM      8  C   UNL     1       4.855   3.119  16.845  0.00  0.00    +0.000 A 
ATOM      9  C   UNL     1       5.700   3.283  15.741  0.00  0.00    +0.000 A 
ATOM     10  C   UNL     1       5.987   4.567  15.264  0.00  0.00    +0.000 A 
ATOM     11  C   UNL     1       5.403   5.679  15.883  0.00  0.00    +0.000 A 
ATOM     12  C   UNL     1       4.555   5.498  16.983  0.00  0.00    +0.000 A 
ATOM     13  C   UNL     1       3.924   6.651  17.653  0.00  0.00    +0.000 A 
ATOM     14  O   UNL     1       4.168   7.783  17.236  0.00  0.00    +0.000 OA
ATOM     15  N   UNL     1       3.088   6.359  18.732  0.00  0.00    +0.000 N 
ATOM     16  C   UNL     1       2.470   7.412  19.400  0.00  0.00    +0.000 A 
ENDROOT
BRANCH  10  17
ATOM     17  C   UNL     1       6.848   4.806  14.077  0.00  0.00    +0.000 C 
ATOM     18  O   UNL     1       7.774   5.598  14.087  0.00  0.00    +0.000 OA
BRANCH  17  19
ATOM     19  O   UNL     1       6.539   4.050  13.003  0.00  0.00    +0.000 OA
ATOM     20  H   UNL     1       7.239   3.956  12.333  0.00  0.00    +0.000 HD
ENDBRANCH  17  19
ENDBRANCH  10  17
TORSDOF 2
ENDMDL
MODEL 4
REMARK VINA RESULT:      -6.8      3.683      5.009
REMARK  Name = 
REMARK  3 active torsions:
REMARK  status: ('A' for Active; 'I' for Inactive)
REMARK    1  A    between atoms: C_1  and  C_2
REMARK    2  A    between atoms: C_10  and  C_11
REMARK    3  A    between atoms: C_11  and  O_13
REMARK                            x       y       z     vdW  Elec       q    Type
REMARK                         _______ _______ _______ _____ _____    ______ ____
ROOT
ATOM      1  C   UNL     1      -1.052  11.684  20.731  0.00  0.00    +0.000 C 
ATOM      2  C   UNL     1      -0.249  10.424  20.630  0.00  0.00    +0.000 A 
ATOM      3  C   UNL     1      -0.290   9.476  21.720  0.00  0.00    +0.000 A 
ATOM      4  C   UNL     1       0.419   8.342  21.668  0.00  0.00    +0.000 A 
ATOM      5  C   UNL     1       1.264   8.043  20.479  0.00  0.00    +0.000 A 
ATOM      6  N   UNL     1       1.946   6.938  20.461  0.00  0.00    +0.000 NA
ATOM      7  C   UNL     1       2.733   6.666  19.338  0.00  0.00    +0.000 A 
ATOM      8  C   UNL     1       3.458   5.471  19.300  0.00  0.00    +0.000 A 
ATOM      9  C   UNL     1       4.251   5.149  18.192  0.00  0.00    +0.000 A 
ATOM     10  C   UNL     1       4.338   6.035  17.112  0.00  0.00    +0.000 A 
ATOM     11  C   UNL     1       3.608   7.229  17.139  0.00  0.00    +0.000 A 
ATOM     12  C   UNL     1       2.813   7.534  18.252  0.00  0.00    +0.000 A 
ATOM     13  C   UNL     1       2.031   8.783  18.306  0.00  0.00    +0.000 A 
ATOM     14  O   UNL     1       2.098   9.565  17.359  0.00  0.00    +0.000 OA
ATOM     15  N   UNL     1       1.265   8.984  19.455  0.00  0.00    +0.000 N 
ATOM     16  C   UNL     1       0.510  10.149  19.557  0.00  0.00    +0.000 A 
ENDROOT
BRANCH  10  17
ATOM     17  C   UNL     1       5.136   5.736  15.895  0.00  0.00    +0.000 C 
ATOM     18  O   UNL     1       5.594   4.630  15.666  0.00  0.00    +0.000 OA
BRANCH  17  19
ATOM     19  O   UNL     1       5.280   6.780  15.053  0.00  0.00    +0.000 OA
ATOM     20  H   UNL     1       5.925   6.660  14.333  0.00  0.00    +0.000 HD
ENDBRANCH  17  19
ENDBRANCH  10  17
TORSDOF 2
ENDMDL
MODEL 5
REMARK VINA RESULT:      -6.8      3.236      4.635
REMARK  Name = 
REMARK  3 active torsions:
REMARK  status: ('A' for Active; 'I' for Inactive)
REMARK    1  A    between atoms: C_1  and  C_2
REMARK    2  A    between atoms: C_10  and  C_11
REMARK    3  A    between atoms: C_11  and  O_13
REMARK                            x       y       z     vdW  Elec       q    Type
REMARK                         _______ _______ _______ _____ _____    ______ ____
ROOT
ATOM      1  C   UNL     1      -0.484  11.370  19.982  0.00  0.00    +0.000 C 
ATOM      2  C   UNL     1       0.214  10.050  20.096  0.00  0.00    +0.000 A 
ATOM      3  C   UNL     1       0.002   9.242  21.275  0.00  0.00    +0.000 A 
ATOM      4  C   UNL     1       0.613   8.060  21.414  0.00  0.00    +0.000 A 
ATOM      5  C   UNL     1       1.526   7.561  20.349  0.00  0.00    +0.000 A 
ATOM      6  N   UNL     1       2.111   6.413  20.516  0.00  0.00    +0.000 NA
ATOM      7  C   UNL     1       2.963   5.953  19.508  0.00  0.00    +0.000 A 
ATOM      8  C   UNL     1       3.584   4.711  19.669  0.00  0.00    +0.000 A 
ATOM      9  C   UNL     1       4.437   4.203  18.682  0.00  0.00    +0.000 A 
ATOM     10  C   UNL     1       4.690   4.947  17.524  0.00  0.00    +0.000 A 
ATOM     11  C   UNL     1       4.064   6.188  17.351  0.00  0.00    +0.000 A 
ATOM     12  C   UNL     1       3.208   6.680  18.345  0.00  0.00    +0.000 A 
ATOM     13  C   UNL     1       2.533   7.981  18.189  0.00  0.00    +0.000 A 
ATOM     14  O   UNL     1       2.746   8.640  17.171  0.00  0.00    +0.000 OA
ATOM     15  N   UNL     1       1.693   8.373  19.232  0.00  0.00    +0.000 N 
ATOM     16  C   UNL     1       1.034   9.595  19.135  0.00  0.00    +0.000 A 
ENDROOT
BRANCH  10  17
ATOM     17  C   UNL     1       5.558   4.448  16.426  0.00  0.00    +0.000 C 
ATOM     18  O   UNL     1       5.192   4.416  15.265  0.00  0.00    +0.000 OA
BRANCH  17  19
ATOM     19  O   UNL     1       6.791   4.067  16.820  0.00  0.00    +0.000 OA
ATOM     20  H   UNL     1       6.976   3.113  16.774  0.00  0.00    +0.000 HD
ENDBRANCH  17  19
ENDBRANCH  10  17
TORSDOF 2
ENDMDL
MODEL 6
REMARK VINA RESULT:      -6.7      3.621      5.450
REMARK  Name = 
REMARK  3 active torsions:
REMARK  status: ('A' for Active; 'I' for Inactive)
REMARK    1  A    between atoms: C_1  and  C_2
REMARK    2  A    between atoms: C_10  and  C_11
REMARK    3  A    between atoms: C_11  and  O_13
REMARK                            x       y       z     vdW  Elec       q    Type
REMARK                         _______ _______ _______ _____ _____    ______ ____
ROOT
ATOM      1  C   UNL     1       0.038  12.445  19.163  0.00  0.00    +0.000 C 
ATOM      2  C   UNL     1       0.420  11.058  19.583  0.00  0.00    +0.000 A 
ATOM      3  C   UNL     1       0.003  10.577  20.879  0.00  0.00    +0.000 A 
ATOM      4  C   UNL     1       0.332   9.347  21.291  0.00  0.00    +0.000 A 
ATOM      5  C   UNL     1       1.137   8.455  20.412  0.00  0.00    +0.000 A 
ATOM      6  N   UNL     1       1.446   7.269  20.842  0.00  0.00    +0.000 NA
ATOM      7  C   UNL     1       2.199   6.439  20.007  0.00  0.00    +0.000 A 
ATOM      8  C   UNL     1       2.522   5.153  20.452  0.00  0.00    +0.000 A 
ATOM      9  C   UNL     1       3.265   4.281  19.648  0.00  0.00    +0.000 A 
ATOM     10  C   UNL     1       3.707   4.698  18.386  0.00  0.00    +0.000 A 
ATOM     11  C   UNL     1       3.378   5.980  17.929  0.00  0.00    +0.000 A 
ATOM     12  C   UNL     1       2.629   6.839  18.744  0.00  0.00    +0.000 A 
ATOM     13  C   UNL     1       2.267   8.193  18.288  0.00  0.00    +0.000 A 
ATOM     14  O   UNL     1       2.647   8.565  17.179  0.00  0.00    +0.000 OA
ATOM     15  N   UNL     1       1.509   8.963  19.172  0.00  0.00    +0.000 N 
ATOM     16  C   UNL     1       1.143  10.250  18.790  0.00  0.00    +0.000 A 
ENDROOT
BRANCH  10  17
ATOM     17  C   UNL     1       4.469   3.809  17.472  0.00  0.00    +0.000 C 
ATOM     18  O   UNL     1       5.256   4.237  16.646  0.00  0.00    +0.000 OA
BRANCH  17  19
ATOM     19  O   UNL     1       4.240   2.492  17.656  0.00  0.00    +0.000 OA
ATOM     20  H   UNL     1       3.361   2.257  18.001  0.00  0.00    +0.000 HD
ENDBRANCH  17  19
ENDBRANCH  10  17
TORSDOF 2
ENDMDL
MODEL 7
REMARK VINA RESULT:      -6.6      2.314      3.490
REMARK  Name = 
REMARK  3 active torsions:
REMARK  status: ('A' for Active; 'I' for Inactive)
REMARK    1  A    between atoms: C_1  and  C_2
REMARK    2  A    between atoms: C_10  and  C_11
REMARK    3  A    between atoms: C_11  and  O_13
REMARK                            x       y       z     vdW  Elec       q    Type
REMARK                         _______ _______ _______ _____ _____    ______ ____
ROOT
ATOM      1  C   UNL     1       0.309   9.889  20.692  0.00  0.00    +0.000 C 
ATOM      2  C   UNL     1       1.072   8.651  20.332  0.00  0.00    +0.000 A 
ATOM      3  C   UNL     1       0.980   7.494  21.193  0.00  0.00    +0.000 A 
ATOM      4  C   UNL     1       1.652   6.373  20.907  0.00  0.00    +0.000 A 
ATOM      5  C   UNL     1       2.508   6.304  19.691  0.00  0.00    +0.000 A 
ATOM      6  N   UNL     1       3.154   5.205  19.443  0.00  0.00    +0.000 NA
ATOM      7  C   UNL     1       3.952   5.151  18.297  0.00  0.00    +0.000 A 
ATOM      8  C   UNL     1       4.638   3.966  18.011  0.00  0.00    +0.000 A 
ATOM      9  C   UNL     1       5.441   3.860  16.870  0.00  0.00    +0.000 A 
ATOM     10  C   UNL     1       5.577   4.952  16.006  0.00  0.00    +0.000 A 
ATOM     11  C   UNL     1       4.886   6.139  16.280  0.00  0.00    +0.000 A 
ATOM     12  C   UNL     1       4.081   6.228  17.423  0.00  0.00    +0.000 A 
ATOM     13  C   UNL     1       3.340   7.463  17.736  0.00  0.00    +0.000 A 
ATOM     14  O   UNL     1       3.451   8.427  16.979  0.00  0.00    +0.000 OA
ATOM     15  N   UNL     1       2.560   7.442  18.893  0.00  0.00    +0.000 N 
ATOM     16  C   UNL     1       1.841   8.585  19.234  0.00  0.00    +0.000 A 
ENDROOT
BRANCH  10  17
ATOM     17  C   UNL     1       6.387   4.892  14.762  0.00  0.00    +0.000 C 
ATOM     18  O   UNL     1       7.430   5.506  14.628  0.00  0.00    +0.000 OA
BRANCH  17  19
ATOM     19  O   UNL     1       5.886   4.078  13.810  0.00  0.00    +0.000 OA
ATOM     20  H   UNL     1       5.227   3.427  14.110  0.00  0.00    +0.000 HD
ENDBRANCH  17  19
ENDBRANCH  10  17
TORSDOF 2
ENDMDL
MODEL 8
REMARK VINA RESULT:      -6.5      3.957      6.498
REMARK  Name = 
REMARK  3 active torsions:
REMARK  status: ('A' for Active; 'I' for Inactive)
REMARK    1  A    between atoms: C_1  and  C_2
REMARK    2  A    between atoms: C_10  and  C_11
REMARK    3  A    between atoms: C_11  and  O_13
REMARK                            x       y       z     vdW  Elec       q    Type
REMARK                         _______ _______ _______ _____ _____    ______ ____
ROOT
ATOM      1  C   UNL     1       4.065   1.139  18.472  0.00  0.00    +0.000 C 
ATOM      2  C   UNL     1       3.739   2.598  18.369  0.00  0.00    +0.000 A 
ATOM      3  C   UNL     1       4.133   3.324  17.184  0.00  0.00    +0.000 A 
ATOM      4  C   UNL     1       3.865   4.629  17.059  0.00  0.00    +0.000 A 
ATOM      5  C   UNL     1       3.153   5.353  18.148  0.00  0.00    +0.000 A 
ATOM      6  N   UNL     1       2.913   6.620  18.002  0.00  0.00    +0.000 NA
ATOM      7  C   UNL     1       2.241   7.289  19.030  0.00  0.00    +0.000 A 
ATOM      8  C   UNL     1       1.961   8.650  18.875  0.00  0.00    +0.000 A 
ATOM      9  C   UNL     1       1.281   9.360  19.871  0.00  0.00    +0.000 A 
ATOM     10  C   UNL     1       0.885   8.711  21.046  0.00  0.00    +0.000 A 
ATOM     11  C   UNL     1       1.153   7.346  21.204  0.00  0.00    +0.000 A 
ATOM     12  C   UNL     1       1.829   6.648  20.196  0.00  0.00    +0.000 A 
ATOM     13  C   UNL     1       2.122   5.210  20.333  0.00  0.00    +0.000 A 
ATOM     14  O   UNL     1       1.773   4.631  21.362  0.00  0.00    +0.000 OA
ATOM     15  N   UNL     1       2.791   4.608  19.266  0.00  0.00    +0.000 N 
ATOM     16  C   UNL     1       3.093   3.252  19.348  0.00  0.00    +0.000 A 
ENDROOT
BRANCH  10  17
ATOM     17  C   UNL     1       0.131   9.401  22.125  0.00  0.00    +0.000 C 
ATOM     18  O   UNL     1       0.334  10.563  22.427  0.00  0.00    +0.000 OA
BRANCH  17  19
ATOM     19  O   UNL     1      -0.814   8.641  22.717  0.00  0.00    +0.000 OA
ATOM     20  H   UNL     1      -0.754   8.566  23.686  0.00  0.00    +0.000 HD
ENDBRANCH  17  19
ENDBRANCH  10  17
TORSDOF 2
ENDMDL
MODEL 9
REMARK VINA RESULT:      -6.5      3.382      5.638
REMARK  Name = 
REMARK  3 active torsions:
REMARK  status: ('A' for Active; 'I' for Inactive)
REMARK    1  A    between atoms: C_1  and  C_2
REMARK    2  A    between atoms: C_10  and  C_11
REMARK    3  A    between atoms: C_11  and  O_13
REMARK                            x       y       z     vdW  Elec       q    Type
REMARK                         _______ _______ _______ _____ _____    ______ ____
ROOT
ATOM      1  C   UNL     1       0.992  12.324  18.638  0.00  0.00    +0.000 C 
ATOM      2  C   UNL     1       1.101  10.953  19.230  0.00  0.00    +0.000 A 
ATOM      3  C   UNL     1       0.543  10.706  20.539  0.00  0.00    +0.000 A 
ATOM      4  C   UNL     1       0.627   9.494  21.102  0.00  0.00    +0.000 A 
ATOM      5  C   UNL     1       1.302   8.381  20.381  0.00  0.00    +0.000 A 
ATOM      6  N   UNL     1       1.375   7.218  20.956  0.00  0.00    +0.000 NA
ATOM      7  C   UNL     1       2.008   6.179  20.269  0.00  0.00    +0.000 A 
ATOM      8  C   UNL     1       2.076   4.919  20.871  0.00  0.00    +0.000 A 
ATOM      9  C   UNL     1       2.691   3.844  20.217  0.00  0.00    +0.000 A 
ATOM     10  C   UNL     1       3.260   4.028  18.952  0.00  0.00    +0.000 A 
ATOM     11  C   UNL     1       3.188   5.285  18.338  0.00  0.00    +0.000 A 
ATOM     12  C   UNL     1       2.564   6.348  19.003  0.00  0.00    +0.000 A 
ATOM     13  C   UNL     1       2.470   7.682  18.380  0.00  0.00    +0.000 A 
ATOM     14  O   UNL     1       2.964   7.850  17.266  0.00  0.00    +0.000 OA
ATOM     15  N   UNL     1       1.819   8.668  19.123  0.00  0.00    +0.000 N 
ATOM     16  C   UNL     1       1.706   9.945  18.580  0.00  0.00    +0.000 A 
ENDROOT
BRANCH  10  17
ATOM     17  C   UNL     1       3.897   2.920  18.193  0.00  0.00    +0.000 C 
ATOM     18  O   UNL     1       3.510   1.767  18.267  0.00  0.00    +0.000 OA
BRANCH  17  19
ATOM     19  O   UNL     1       4.914   3.305  17.394  0.00  0.00    +0.000 OA
ATOM     20  H   UNL     1       5.764   2.856  17.543  0.00  0.00    +0.000 HD
ENDBRANCH  17  19
ENDBRANCH  10  17
TORSDOF 2
ENDMDL
