MODEL 1
REMARK VINA RESULT:      -7.9      0.000      0.000
REMARK  Name = 
REMARK  8 active torsions:
REMARK  status: ('A' for Active; 'I' for Inactive)
REMARK    1  A    between atoms: C_1  and  C_2
REMARK    2  A    between atoms: C_4  and  C_5
REMARK    3  A    between atoms: N_7  and  C_8
REMARK    4  A    between atoms: C_8  and  C_9
REMARK    5  A    between atoms: C_9  and  O_10
REMARK    6  A    between atoms: C_9  and  C_11
REMARK    7  A    between atoms: C_11  and  N_12
REMARK    8  A    between atoms: N_15  and  C_16
REMARK                            x       y       z     vdW  Elec       q    Type
REMARK                         _______ _______ _______ _____ _____    ______ ____
ROOT
ATOM      1  C   UNL     1       7.153   6.332  17.459  0.00  0.00    +0.000 C 
ENDROOT
BRANCH   1   2
ATOM      2  N   UNL     1       8.019   7.029  18.395  0.00  0.00    +0.000 N 
ATOM      3  C   UNL     1       8.213   8.378  18.222  0.00  0.00    +0.000 C 
ATOM      4  O   UNL     1       7.610   8.990  17.349  0.00  0.00    +0.000 OA
ATOM      5  N   UNL     1       9.090   8.919  19.132  0.00  0.00    +0.000 N 
ATOM      6  H   UNL     1       8.732   6.474  18.851  0.00  0.00    +0.000 HD
ATOM      7  H   UNL     1       9.733   8.288  19.585  0.00  0.00    +0.000 HD
BRANCH   5   8
ATOM      8  C   UNL     1       9.354  10.306  19.233  0.00  0.00    +0.000 A 
ATOM      9  C   UNL     1       9.712  11.081  18.122  0.00  0.00    +0.000 A 
ATOM     10  C   UNL     1      10.066  12.422  18.264  0.00  0.00    +0.000 A 
ATOM     11  C   UNL     1      10.039  13.006  19.525  0.00  0.00    +0.000 A 
ATOM     12 BR   UNL     1      10.590  14.802  19.729  0.00  0.00    +0.000 Br
ATOM     13  C   UNL     1       9.620  12.269  20.633  0.00  0.00    +0.000 A 
ATOM     14  C   UNL     1       9.264  10.923  20.484  0.00  0.00    +0.000 A 
ENDBRANCH   5   8
ENDBRANCH   1   2
BRANCH   1  15
ATOM     15  C   UNL     1       6.781   4.939  17.964  0.00  0.00    +0.000 C 
BRANCH  15  16
ATOM     16  O   UNL     1       7.934   4.097  17.829  0.00  0.00    +0.000 OA
ATOM     17  H   UNL     1       7.780   3.522  17.059  0.00  0.00    +0.000 HD
ENDBRANCH  15  16
BRANCH  15  18
ATOM     18  C   UNL     1       5.565   4.406  17.160  0.00  0.00    +0.000 C 
BRANCH  18  25
ATOM     19  C   UNL     1       2.330   1.916  18.835  0.00  0.00    +0.000 C 
ATOM     20  C   UNL     1       2.065   3.104  17.903  0.00  0.00    +0.000 C 
ATOM     21  C   UNL     1       1.529   4.319  18.670  0.00  0.00    +0.000 C 
ATOM     22  C   UNL     1       2.623   4.957  19.532  0.00  0.00    +0.000 C 
ATOM     23  C   UNL     1       2.107   6.220  20.218  0.00  0.00    +0.000 C 
ATOM     24  C   UNL     1       3.866   5.268  18.681  0.00  0.00    +0.000 C 
ATOM     25  N   UNL     1       4.376   4.076  17.976  0.00  0.00    +0.000 NA
ATOM     26  C   UNL     1       3.326   3.498  17.115  0.00  0.00    +0.000 C 
ENDBRANCH  18  25
ENDBRANCH  15  18
ENDBRANCH   1  15
TORSDOF 6
ENDMDL
MODEL 2
REMARK VINA RESULT:      -7.8      0.828      1.344
REMARK  Name = 
REMARK  8 active torsions:
REMARK  status: ('A' for Active; 'I' for Inactive)
REMARK    1  A    between atoms: C_1  and  C_2
REMARK    2  A    between atoms: C_4  and  C_5
REMARK    3  A    between atoms: N_7  and  C_8
REMARK    4  A    between atoms: C_8  and  C_9
REMARK    5  A    between atoms: C_9  and  O_10
REMARK    6  A    between atoms: C_9  and  C_11
REMARK    7  A    between atoms: C_11  and  N_12
REMARK    8  A    between atoms: N_15  and  C_16
REMARK                            x       y       z     vdW  Elec       q    Type
REMARK                         _______ _______ _______ _____ _____    ______ ____
ROOT
ATOM      1  C   UNL     1       7.328   6.554  17.677  0.00  0.00    +0.000 C 
ENDROOT
BRANCH   1   2
ATOM      2  N   UNL     1       8.228   7.272  18.563  0.00  0.00    +0.000 N 
ATOM      3  C   UNL     1       8.348   8.632  18.407  0.00  0.00    +0.000 C 
ATOM      4  O   UNL     1       7.658   9.232  17.592  0.00  0.00    +0.000 OA
ATOM      5  N   UNL     1       9.264   9.195  19.263  0.00  0.00    +0.000 N 
ATOM      6  H   UNL     1       8.995   6.742  18.955  0.00  0.00    +0.000 HD
ATOM      7  H   UNL     1       9.965   8.586  19.656  0.00  0.00    +0.000 HD
BRANCH   5   8
ATOM      8  C   UNL     1       9.473  10.591  19.375  0.00  0.00    +0.000 A 
ATOM      9  C   UNL     1       9.259  11.284  20.574  0.00  0.00    +0.000 A 
ATOM     10  C   UNL     1       9.374  12.673  20.631  0.00  0.00    +0.000 A 
ATOM     11  C   UNL     1       9.729  13.377  19.488  0.00  0.00    +0.000 A 
ATOM     12 BR   UNL     1       9.812  15.264  19.546  0.00  0.00    +0.000 Br
ATOM     13  C   UNL     1      10.013  12.699  18.302  0.00  0.00    +0.000 A 
ATOM     14  C   UNL     1       9.897  11.304  18.250  0.00  0.00    +0.000 A 
ENDBRANCH   5   8
ENDBRANCH   1   2
BRANCH   1  15
ATOM     15  C   UNL     1       6.463   5.552  18.440  0.00  0.00    +0.000 C 
BRANCH  15  16
ATOM     16  O   UNL     1       7.054   4.254  18.291  0.00  0.00    +0.000 OA
ATOM     17  H   UNL     1       7.549   4.259  17.453  0.00  0.00    +0.000 HD
ENDBRANCH  15  16
BRANCH  15  18
ATOM     18  C   UNL     1       5.011   5.604  17.898  0.00  0.00    +0.000 C 
BRANCH  18  25
ATOM     19  C   UNL     1       3.503   1.468  18.197  0.00  0.00    +0.000 C 
ATOM     20  C   UNL     1       2.692   2.602  17.560  0.00  0.00    +0.000 C 
ATOM     21  C   UNL     1       1.565   3.081  18.483  0.00  0.00    +0.000 C 
ATOM     22  C   UNL     1       2.121   3.856  19.682  0.00  0.00    +0.000 C 
ATOM     23  C   UNL     1       0.989   4.409  20.544  0.00  0.00    +0.000 C 
ATOM     24  C   UNL     1       3.049   4.988  19.208  0.00  0.00    +0.000 C 
ATOM     25  N   UNL     1       4.140   4.494  18.344  0.00  0.00    +0.000 NA
ATOM     26  C   UNL     1       3.589   3.789  17.170  0.00  0.00    +0.000 C 
ENDBRANCH  18  25
ENDBRANCH  15  18
ENDBRANCH   1  15
TORSDOF 6
ENDMDL
MODEL 3
REMARK VINA RESULT:      -7.8      0.736      1.843
REMARK  Name = 
REMARK  8 active torsions:
REMARK  status: ('A' for Active; 'I' for Inactive)
REMARK    1  A    between atoms: C_1  and  C_2
REMARK    2  A    between atoms: C_4  and  C_5
REMARK    3  A    between atoms: N_7  and  C_8
REMARK    4  A    between atoms: C_8  and  C_9
REMARK    5  A    between atoms: C_9  and  O_10
REMARK    6  A    between atoms: C_9  and  C_11
REMARK    7  A    between atoms: C_11  and  N_12
REMARK    8  A    between atoms: N_15  and  C_16
REMARK                            x       y       z     vdW  Elec       q    Type
REMARK                         _______ _______ _______ _____ _____    ______ ____
ROOT
ATOM      1  C   UNL     1       6.999   6.338  17.404  0.00  0.00    +0.000 C 
ENDROOT
BRANCH   1   2
ATOM      2  N   UNL     1       7.885   7.002  18.344  0.00  0.00    +0.000 N 
ATOM      3  C   UNL     1       8.126   8.344  18.177  0.00  0.00    +0.000 C 
ATOM      4  O   UNL     1       7.548   8.979  17.304  0.00  0.00    +0.000 OA
ATOM      5  N   UNL     1       9.018   8.852  19.092  0.00  0.00    +0.000 N 
ATOM      6  H   UNL     1       8.576   6.421  18.801  0.00  0.00    +0.000 HD
ATOM      7  H   UNL     1       9.637   8.197  19.545  0.00  0.00    +0.000 HD
BRANCH   5   8
ATOM      8  C   UNL     1       9.330  10.228  19.198  0.00  0.00    +0.000 A 
ATOM      9  C   UNL     1       9.669  11.005  18.082  0.00  0.00    +0.000 A 
ATOM     10  C   UNL     1      10.071  12.333  18.226  0.00  0.00    +0.000 A 
ATOM     11  C   UNL     1      10.112  12.901  19.493  0.00  0.00    +0.000 A 
ATOM     12 BR   UNL     1      10.727  14.676  19.697  0.00  0.00    +0.000 Br
ATOM     13  C   UNL     1       9.712  12.164  20.608  0.00  0.00    +0.000 A 
ATOM     14  C   UNL     1       9.308  10.831  20.458  0.00  0.00    +0.000 A 
ENDBRANCH   5   8
ENDBRANCH   1   2
BRANCH   1  15
ATOM     15  C   UNL     1       6.138   5.279  18.089  0.00  0.00    +0.000 C 
BRANCH  15  16
ATOM     16  O   UNL     1       6.904   4.068  18.164  0.00  0.00    +0.000 OA
ATOM     17  H   UNL     1       7.176   3.845  17.257  0.00  0.00    +0.000 HD
ENDBRANCH  15  16
BRANCH  15  18
ATOM     18  C   UNL     1       4.818   5.092  17.295  0.00  0.00    +0.000 C 
BRANCH  18  25
ATOM     19  C   UNL     1       1.854   6.661  20.163  0.00  0.00    +0.000 C 
ATOM     20  C   UNL     1       2.704   5.417  20.445  0.00  0.00    +0.000 C 
ATOM     21  C   UNL     1       1.886   4.127  20.304  0.00  0.00    +0.000 C 
ATOM     22  C   UNL     1       1.556   3.838  18.836  0.00  0.00    +0.000 C 
ATOM     23  C   UNL     1       0.824   2.505  18.696  0.00  0.00    +0.000 C 
ATOM     24  C   UNL     1       2.837   3.849  17.984  0.00  0.00    +0.000 C 
ATOM     25  N   UNL     1       3.589   5.112  18.119  0.00  0.00    +0.000 NA
ATOM     26  C   UNL     1       3.939   5.355  19.532  0.00  0.00    +0.000 C 
ENDBRANCH  18  25
ENDBRANCH  15  18
ENDBRANCH   1  15
TORSDOF 6
ENDMDL
MODEL 4
REMARK VINA RESULT:      -7.7      4.910      6.960
REMARK  Name = 
REMARK  8 active torsions:
REMARK  status: ('A' for Active; 'I' for Inactive)
REMARK    1  A    between atoms: C_1  and  C_2
REMARK    2  A    between atoms: C_4  and  C_5
REMARK    3  A    between atoms: N_7  and  C_8
REMARK    4  A    between atoms: C_8  and  C_9
REMARK    5  A    between atoms: C_9  and  O_10
REMARK    6  A    between atoms: C_9  and  C_11
REMARK    7  A    between atoms: C_11  and  N_12
REMARK    8  A    between atoms: N_15  and  C_16
REMARK                            x       y       z     vdW  Elec       q    Type
REMARK                         _______ _______ _______ _____ _____    ______ ____
ROOT
ATOM      1  C   UNL     1       3.089   3.190  20.175  0.00  0.00    +0.000 C 
ENDROOT
BRANCH   1   2
ATOM      2  N   UNL     1       3.295   4.598  20.467  0.00  0.00    +0.000 N 
ATOM      3  C   UNL     1       2.429   5.511  19.916  0.00  0.00    +0.000 C 
ATOM      4  O   UNL     1       1.465   5.141  19.258  0.00  0.00    +0.000 OA
ATOM      5  N   UNL     1       2.752   6.813  20.218  0.00  0.00    +0.000 N 
ATOM      6  H   UNL     1       4.239   4.878  20.700  0.00  0.00    +0.000 HD
ATOM      7  H   UNL     1       3.703   7.000  20.495  0.00  0.00    +0.000 HD
BRANCH   5   8
ATOM      8  C   UNL     1       1.942   7.920  19.867  0.00  0.00    +0.000 A 
ATOM      9  C   UNL     1       1.093   8.545  20.789  0.00  0.00    +0.000 A 
ATOM     10  C   UNL     1       0.230   9.568  20.394  0.00  0.00    +0.000 A 
ATOM     11  C   UNL     1       0.231   9.988  19.070  0.00  0.00    +0.000 A 
ATOM     12 BR   UNL     1      -0.989  11.321  18.518  0.00  0.00    +0.000 Br
ATOM     13  C   UNL     1       1.117   9.424  18.152  0.00  0.00    +0.000 A 
ATOM     14  C   UNL     1       1.982   8.398  18.555  0.00  0.00    +0.000 A 
ENDBRANCH   5   8
ENDBRANCH   1   2
BRANCH   1  15
ATOM     15  C   UNL     1       4.169   2.641  19.245  0.00  0.00    +0.000 C 
BRANCH  15  16
ATOM     16  O   UNL     1       5.431   3.175  19.668  0.00  0.00    +0.000 OA
ATOM     17  H   UNL     1       5.264   3.704  20.468  0.00  0.00    +0.000 HD
ENDBRANCH  15  16
BRANCH  15  18
ATOM     18  C   UNL     1       3.831   3.021  17.779  0.00  0.00    +0.000 C 
BRANCH  18  25
ATOM     19  C   UNL     1       6.381   6.600  17.381  0.00  0.00    +0.000 C 
ATOM     20  C   UNL     1       5.156   6.352  16.494  0.00  0.00    +0.000 C 
ATOM     21  C   UNL     1       5.558   5.907  15.083  0.00  0.00    +0.000 C 
ATOM     22  C   UNL     1       6.116   4.480  15.089  0.00  0.00    +0.000 C 
ATOM     23  C   UNL     1       6.426   4.011  13.669  0.00  0.00    +0.000 C 
ATOM     24  C   UNL     1       5.132   3.520  15.778  0.00  0.00    +0.000 C 
ATOM     25  N   UNL     1       4.784   3.958  17.144  0.00  0.00    +0.000 NA
ATOM     26  C   UNL     1       4.205   5.316  17.118  0.00  0.00    +0.000 C 
ENDBRANCH  18  25
ENDBRANCH  15  18
ENDBRANCH   1  15
TORSDOF 6
ENDMDL
MODEL 5
REMARK VINA RESULT:      -7.7      4.894      6.869
REMARK  Name = 
REMARK  8 active torsions:
REMARK  status: ('A' for Active; 'I' for Inactive)
REMARK    1  A    between atoms: C_1  and  C_2
REMARK    2  A    between atoms: C_4  and  C_5
REMARK    3  A    between atoms: N_7  and  C_8
REMARK    4  A    between atoms: C_8  and  C_9
REMARK    5  A    between atoms: C_9  and  O_10
REMARK    6  A    between atoms: C_9  and  C_11
REMARK    7  A    between atoms: C_11  and  N_12
REMARK    8  A    between atoms: N_15  and  C_16
REMARK                            x       y       z     vdW  Elec       q    Type
REMARK                         _______ _______ _______ _____ _____    ______ ____
ROOT
ATOM      1  C   UNL     1       2.776   2.761  19.904  0.00  0.00    +0.000 C 
ENDROOT
BRANCH   1   2
ATOM      2  N   UNL     1       2.987   4.100  20.428  0.00  0.00    +0.000 N 
ATOM      3  C   UNL     1       2.286   5.138  19.863  0.00  0.00    +0.000 C 
ATOM      4  O   UNL     1       1.450   4.929  18.992  0.00  0.00    +0.000 OA
ATOM      5  N   UNL     1       2.604   6.362  20.402  0.00  0.00    +0.000 N 
ATOM      6  H   UNL     1       3.880   4.278  20.868  0.00  0.00    +0.000 HD
ATOM      7  H   UNL     1       3.492   6.442  20.874  0.00  0.00    +0.000 HD
BRANCH   5   8
ATOM      8  C   UNL     1       1.928   7.561  20.071  0.00  0.00    +0.000 A 
ATOM      9  C   UNL     1       2.035   8.153  18.805  0.00  0.00    +0.000 A 
ATOM     10  C   UNL     1       1.443   9.387  18.536  0.00  0.00    +0.000 A 
ATOM     11  C   UNL     1       0.715  10.027  19.531  0.00  0.00    +0.000 A 
ATOM     12 BR   UNL     1      -0.025  11.732  19.191  0.00  0.00    +0.000 Br
ATOM     13  C   UNL     1       0.541   9.421  20.776  0.00  0.00    +0.000 A 
ATOM     14  C   UNL     1       1.137   8.182  21.041  0.00  0.00    +0.000 A 
ENDBRANCH   5   8
ENDBRANCH   1   2
BRANCH   1  15
ATOM     15  C   UNL     1       3.930   2.317  19.008  0.00  0.00    +0.000 C 
BRANCH  15  16
ATOM     16  O   UNL     1       5.145   2.430  19.761  0.00  0.00    +0.000 OA
ATOM     17  H   UNL     1       5.088   1.791  20.494  0.00  0.00    +0.000 HD
ENDBRANCH  15  16
BRANCH  15  18
ATOM     18  C   UNL     1       3.951   3.186  17.723  0.00  0.00    +0.000 C 
BRANCH  18  25
ATOM     19  C   UNL     1       7.633   5.434  18.652  0.00  0.00    +0.000 C 
ATOM     20  C   UNL     1       6.490   6.023  17.817  0.00  0.00    +0.000 C 
ATOM     21  C   UNL     1       6.840   6.064  16.324  0.00  0.00    +0.000 C 
ATOM     22  C   UNL     1       6.851   4.657  15.719  0.00  0.00    +0.000 C 
ATOM     23  C   UNL     1       7.107   4.716  14.214  0.00  0.00    +0.000 C 
ATOM     24  C   UNL     1       5.529   3.931  16.019  0.00  0.00    +0.000 C 
ATOM     25  N   UNL     1       5.231   3.883  17.464  0.00  0.00    +0.000 NA
ATOM     26  C   UNL     1       5.178   5.247  18.025  0.00  0.00    +0.000 C 
ENDBRANCH  18  25
ENDBRANCH  15  18
ENDBRANCH   1  15
TORSDOF 6
ENDMDL
MODEL 6
REMARK VINA RESULT:      -7.7      1.237      1.367
REMARK  Name = 
REMARK  8 active torsions:
REMARK  status: ('A' for Active; 'I' for Inactive)
REMARK    1  A    between atoms: C_1  and  C_2
REMARK    2  A    between atoms: C_4  and  C_5
REMARK    3  A    between atoms: N_7  and  C_8
REMARK    4  A    between atoms: C_8  and  C_9
REMARK    5  A    between atoms: C_9  and  O_10
REMARK    6  A    between atoms: C_9  and  C_11
REMARK    7  A    between atoms: C_11  and  N_12
REMARK    8  A    between atoms: N_15  and  C_16
REMARK                            x       y       z     vdW  Elec       q    Type
REMARK                         _______ _______ _______ _____ _____    ______ ____
ROOT
ATOM      1  C   UNL     1       7.261   5.866  17.340  0.00  0.00    +0.000 C 
ENDROOT
BRANCH   1   2
ATOM      2  N   UNL     1       7.912   6.651  18.374  0.00  0.00    +0.000 N 
ATOM      3  C   UNL     1       8.183   7.973  18.116  0.00  0.00    +0.000 C 
ATOM      4  O   UNL     1       7.816   8.494  17.070  0.00  0.00    +0.000 OA
ATOM      5  N   UNL     1       8.845   8.601  19.144  0.00  0.00    +0.000 N 
ATOM      6  H   UNL     1       8.482   6.142  19.037  0.00  0.00    +0.000 HD
ATOM      7  H   UNL     1       9.346   8.016  19.795  0.00  0.00    +0.000 HD
BRANCH   5   8
ATOM      8  C   UNL     1       9.123   9.989  19.163  0.00  0.00    +0.000 A 
ATOM      9  C   UNL     1       9.219  10.746  17.988  0.00  0.00    +0.000 A 
ATOM     10  C   UNL     1       9.595  12.089  18.027  0.00  0.00    +0.000 A 
ATOM     11  C   UNL     1       9.854  12.691  19.252  0.00  0.00    +0.000 A 
ATOM     12 BR   UNL     1      10.435  14.488  19.301  0.00  0.00    +0.000 Br
ATOM     13  C   UNL     1       9.698  11.971  20.437  0.00  0.00    +0.000 A 
ATOM     14  C   UNL     1       9.320  10.623  20.392  0.00  0.00    +0.000 A 
ENDBRANCH   5   8
ENDBRANCH   1   2
BRANCH   1  15
ATOM     15  C   UNL     1       5.749   5.800  17.547  0.00  0.00    +0.000 C 
BRANCH  15  16
ATOM     16  O   UNL     1       5.210   7.106  17.296  0.00  0.00    +0.000 OA
ATOM     17  H   UNL     1       4.774   7.398  18.115  0.00  0.00    +0.000 HD
ENDBRANCH  15  16
BRANCH  15  18
ATOM     18  C   UNL     1       5.445   5.305  18.986  0.00  0.00    +0.000 C 
BRANCH  18  25
ATOM     19  C   UNL     1       3.644   1.325  18.366  0.00  0.00    +0.000 C 
ATOM     20  C   UNL     1       3.072   2.602  17.739  0.00  0.00    +0.000 C 
ATOM     21  C   UNL     1       1.800   3.067  18.459  0.00  0.00    +0.000 C 
ATOM     22  C   UNL     1       2.123   3.630  19.846  0.00  0.00    +0.000 C 
ATOM     23  C   UNL     1       0.864   4.176  20.517  0.00  0.00    +0.000 C 
ATOM     24  C   UNL     1       3.204   4.719  19.747  0.00  0.00    +0.000 C 
ATOM     25  N   UNL     1       4.426   4.236  19.074  0.00  0.00    +0.000 NA
ATOM     26  C   UNL     1       4.108   3.738  17.722  0.00  0.00    +0.000 C 
ENDBRANCH  18  25
ENDBRANCH  15  18
ENDBRANCH   1  15
TORSDOF 6
ENDMDL
MODEL 7
REMARK VINA RESULT:      -7.6      1.441      1.993
REMARK  Name = 
REMARK  8 active torsions:
REMARK  status: ('A' for Active; 'I' for Inactive)
REMARK    1  A    between atoms: C_1  and  C_2
REMARK    2  A    between atoms: C_4  and  C_5
REMARK    3  A    between atoms: N_7  and  C_8
REMARK    4  A    between atoms: C_8  and  C_9
REMARK    5  A    between atoms: C_9  and  O_10
REMARK    6  A    between atoms: C_9  and  C_11
REMARK    7  A    between atoms: C_11  and  N_12
REMARK    8  A    between atoms: N_15  and  C_16
REMARK                            x       y       z     vdW  Elec       q    Type
REMARK                         _______ _______ _______ _____ _____    ______ ____
ROOT
ATOM      1  C   UNL     1       7.190   5.869  17.538  0.00  0.00    +0.000 C 
ENDROOT
BRANCH   1   2
ATOM      2  N   UNL     1       7.172   7.298  17.280  0.00  0.00    +0.000 N 
ATOM      3  C   UNL     1       7.971   8.109  18.049  0.00  0.00    +0.000 C 
ATOM      4  O   UNL     1       8.736   7.630  18.878  0.00  0.00    +0.000 OA
ATOM      5  N   UNL     1       7.833   9.444  17.751  0.00  0.00    +0.000 N 
ATOM      6  H   UNL     1       6.328   7.672  16.866  0.00  0.00    +0.000 HD
ATOM      7  H   UNL     1       6.984   9.728  17.288  0.00  0.00    +0.000 HD
BRANCH   5   8
ATOM      8  C   UNL     1       8.638  10.459  18.322  0.00  0.00    +0.000 A 
ATOM      9  C   UNL     1       9.334  10.273  19.524  0.00  0.00    +0.000 A 
ATOM     10  C   UNL     1      10.037  11.322  20.117  0.00  0.00    +0.000 A 
ATOM     11  C   UNL     1      10.069  12.562  19.493  0.00  0.00    +0.000 A 
ATOM     12 BR   UNL     1      10.959  14.002  20.333  0.00  0.00    +0.000 Br
ATOM     13  C   UNL     1       9.440  12.748  18.262  0.00  0.00    +0.000 A 
ATOM     14  C   UNL     1       8.735  11.691  17.670  0.00  0.00    +0.000 A 
ENDBRANCH   5   8
ENDBRANCH   1   2
BRANCH   1  15
ATOM     15  C   UNL     1       6.235   5.485  18.667  0.00  0.00    +0.000 C 
BRANCH  15  16
ATOM     16  O   UNL     1       6.964   5.539  19.901  0.00  0.00    +0.000 OA
ATOM     17  H   UNL     1       7.853   5.876  19.693  0.00  0.00    +0.000 HD
ENDBRANCH  15  16
BRANCH  15  18
ATOM     18  C   UNL     1       5.648   4.076  18.391  0.00  0.00    +0.000 C 
BRANCH  18  25
ATOM     19  C   UNL     1       1.336   4.464  17.543  0.00  0.00    +0.000 C 
ATOM     20  C   UNL     1       2.027   5.217  18.685  0.00  0.00    +0.000 C 
ATOM     21  C   UNL     1       1.704   4.597  20.050  0.00  0.00    +0.000 C 
ATOM     22  C   UNL     1       2.402   3.245  20.225  0.00  0.00    +0.000 C 
ATOM     23  C   UNL     1       2.152   2.680  21.621  0.00  0.00    +0.000 C 
ATOM     24  C   UNL     1       3.910   3.378  19.953  0.00  0.00    +0.000 C 
ATOM     25  N   UNL     1       4.192   3.952  18.622  0.00  0.00    +0.000 NA
ATOM     26  C   UNL     1       3.551   5.274  18.485  0.00  0.00    +0.000 C 
ENDBRANCH  18  25
ENDBRANCH  15  18
ENDBRANCH   1  15
TORSDOF 6
ENDMDL
MODEL 8
REMARK VINA RESULT:      -7.6      1.151      2.073
REMARK  Name = 
REMARK  8 active torsions:
REMARK  status: ('A' for Active; 'I' for Inactive)
REMARK    1  A    between atoms: C_1  and  C_2
REMARK    2  A    between atoms: C_4  and  C_5
REMARK    3  A    between atoms: N_7  and  C_8
REMARK    4  A    between atoms: C_8  and  C_9
REMARK    5  A    between atoms: C_9  and  O_10
REMARK    6  A    between atoms: C_9  and  C_11
REMARK    7  A    between atoms: C_11  and  N_12
REMARK    8  A    between atoms: N_15  and  C_16
REMARK                            x       y       z     vdW  Elec       q    Type
REMARK                         _______ _______ _______ _____ _____    ______ ____
ROOT
ATOM      1  C   UNL     1       7.753   6.877  18.206  0.00  0.00    +0.000 C 
ENDROOT
BRANCH   1   2
ATOM      2  N   UNL     1       8.626   7.780  18.936  0.00  0.00    +0.000 N 
ATOM      3  C   UNL     1       8.623   9.110  18.592  0.00  0.00    +0.000 C 
ATOM      4  O   UNL     1       7.848   9.535  17.743  0.00  0.00    +0.000 OA
ATOM      5  N   UNL     1       9.523   9.858  19.313  0.00  0.00    +0.000 N 
ATOM      6  H   UNL     1       9.452   7.372  19.353  0.00  0.00    +0.000 HD
ATOM      7  H   UNL     1      10.291   9.366  19.745  0.00  0.00    +0.000 HD
BRANCH   5   8
ATOM      8  C   UNL     1       9.617  11.268  19.224  0.00  0.00    +0.000 A 
ATOM      9  C   UNL     1      10.103  11.913  18.079  0.00  0.00    +0.000 A 
ATOM     10  C   UNL     1      10.281  13.296  18.055  0.00  0.00    +0.000 A 
ATOM     11  C   UNL     1       9.948  14.048  19.174  0.00  0.00    +0.000 A 
ATOM     12 BR   UNL     1      10.258  15.912  19.168  0.00  0.00    +0.000 Br
ATOM     13  C   UNL     1       9.399  13.431  20.299  0.00  0.00    +0.000 A 
ATOM     14  C   UNL     1       9.221  12.042  20.318  0.00  0.00    +0.000 A 
ENDBRANCH   5   8
ENDBRANCH   1   2
BRANCH   1  15
ATOM     15  C   UNL     1       7.183   5.787  19.111  0.00  0.00    +0.000 C 
BRANCH  15  16
ATOM     16  O   UNL     1       8.263   5.244  19.884  0.00  0.00    +0.000 OA
ATOM     17  H   UNL     1       8.063   5.423  20.820  0.00  0.00    +0.000 HD
ENDBRANCH  15  16
BRANCH  15  18
ATOM     18  C   UNL     1       6.481   4.709  18.243  0.00  0.00    +0.000 C 
BRANCH  18  25
ATOM     19  C   UNL     1       2.573   6.757  18.190  0.00  0.00    +0.000 C 
ATOM     20  C   UNL     1       2.975   5.765  19.287  0.00  0.00    +0.000 C 
ATOM     21  C   UNL     1       2.271   4.414  19.116  0.00  0.00    +0.000 C 
ATOM     22  C   UNL     1       2.828   3.647  17.913  0.00  0.00    +0.000 C 
ATOM     23  C   UNL     1       2.187   2.264  17.807  0.00  0.00    +0.000 C 
ATOM     24  C   UNL     1       4.358   3.533  18.009  0.00  0.00    +0.000 C 
ATOM     25  N   UNL     1       5.011   4.849  18.146  0.00  0.00    +0.000 NA
ATOM     26  C   UNL     1       4.498   5.559  19.334  0.00  0.00    +0.000 C 
ENDBRANCH  18  25
ENDBRANCH  15  18
ENDBRANCH   1  15
TORSDOF 6
ENDMDL
MODEL 9
REMARK VINA RESULT:      -7.5      0.600      2.039
REMARK  Name = 
REMARK  8 active torsions:
REMARK  status: ('A' for Active; 'I' for Inactive)
REMARK    1  A    between atoms: C_1  and  C_2
REMARK    2  A    between atoms: C_4  and  C_5
REMARK    3  A    between atoms: N_7  and  C_8
REMARK    4  A    between atoms: C_8  and  C_9
REMARK    5  A    between atoms: C_9  and  O_10
REMARK    6  A    between atoms: C_9  and  C_11
REMARK    7  A    between atoms: C_11  and  N_12
REMARK    8  A    between atoms: N_15  and  C_16
REMARK                            x       y       z     vdW  Elec       q    Type
REMARK                         _______ _______ _______ _____ _____    ______ ____
ROOT
ATOM      1  C   UNL     1       7.021   6.553  17.379  0.00  0.00    +0.000 C 
ENDROOT
BRANCH   1   2
ATOM      2  N   UNL     1       7.983   7.166  18.279  0.00  0.00    +0.000 N 
ATOM      3  C   UNL     1       8.155   8.528  18.219  0.00  0.00    +0.000 C 
ATOM      4  O   UNL     1       7.460   9.215  17.480  0.00  0.00    +0.000 OA
ATOM      5  N   UNL     1       9.124   8.989  19.077  0.00  0.00    +0.000 N 
ATOM      6  H   UNL     1       8.742   6.579  18.599  0.00  0.00    +0.000 HD
ATOM      7  H   UNL     1       9.814   8.325  19.395  0.00  0.00    +0.000 HD
BRANCH   5   8
ATOM      8  C   UNL     1       9.396  10.363  19.284  0.00  0.00    +0.000 A 
ATOM      9  C   UNL     1       9.247  10.974  20.536  0.00  0.00    +0.000 A 
ATOM     10  C   UNL     1       9.422  12.349  20.691  0.00  0.00    +0.000 A 
ATOM     11  C   UNL     1       9.774  13.121  19.592  0.00  0.00    +0.000 A 
ATOM     12 BR   UNL     1       9.938  14.994  19.785  0.00  0.00    +0.000 Br
ATOM     13  C   UNL     1       9.993  12.522  18.351  0.00  0.00    +0.000 A 
ATOM     14  C   UNL     1       9.817  11.140  18.201  0.00  0.00    +0.000 A 
ENDBRANCH   5   8
ENDBRANCH   1   2
BRANCH   1  15
ATOM     15  C   UNL     1       6.697   5.118  17.790  0.00  0.00    +0.000 C 
BRANCH  15  16
ATOM     16  O   UNL     1       7.835   4.301  17.480  0.00  0.00    +0.000 OA
ATOM     17  H   UNL     1       8.056   3.800  18.285  0.00  0.00    +0.000 HD
ENDBRANCH  15  16
BRANCH  15  18
ATOM     18  C   UNL     1       5.416   4.646  17.054  0.00  0.00    +0.000 C 
BRANCH  18  25
ATOM     19  C   UNL     1       2.469   6.858  19.482  0.00  0.00    +0.000 C 
ATOM     20  C   UNL     1       3.181   5.597  19.987  0.00  0.00    +0.000 C 
ATOM     21  C   UNL     1       2.252   4.376  19.970  0.00  0.00    +0.000 C 
ATOM     22  C   UNL     1       1.974   3.912  18.537  0.00  0.00    +0.000 C 
ATOM     23  C   UNL     1       1.127   2.641  18.533  0.00  0.00    +0.000 C 
ATOM     24  C   UNL     1       3.292   3.690  17.777  0.00  0.00    +0.000 C 
ATOM     25  N   UNL     1       4.153   4.890  17.786  0.00  0.00    +0.000 NA
ATOM     26  C   UNL     1       4.451   5.300  19.172  0.00  0.00    +0.000 C 
ENDBRANCH  18  25
ENDBRANCH  15  18
ENDBRANCH   1  15
TORSDOF 6
ENDMDL
