MODEL 1
REMARK VINA RESULT:      -7.6      0.000      0.000
REMARK  Name = 
REMARK  5 active torsions:
REMARK  status: ('A' for Active; 'I' for Inactive)
REMARK    1  A    between atoms: C_1  and  C_2
REMARK    2  A    between atoms: C_2  and  C_3
REMARK    3  A    between atoms: C_2  and  N_4
REMARK    4  A    between atoms: C_11  and  C_13
REMARK    5  A    between atoms: C_16  and  N_17
REMARK                            x       y       z     vdW  Elec       q    Type
REMARK                         _______ _______ _______ _____ _____    ______ ____
ROOT
ATOM      1  N   UNL     1       2.214   6.114  19.463  0.00  0.00    +0.000 NA
ATOM      2  C   UNL     1       1.367   5.672  18.344  0.00  0.00    +0.000 C 
ATOM      3  C   UNL     1       1.712   4.215  17.967  0.00  0.00    +0.000 C 
ATOM      4  C   UNL     1       1.520   3.274  19.156  0.00  0.00    +0.000 C 
ATOM      5  C   UNL     1       2.397   3.808  20.289  0.00  0.00    +0.000 C 
ATOM      6  C   UNL     1       3.900   3.746  19.889  0.00  0.00    +0.000 C 
ATOM      7  N   UNL     1       4.209   4.045  18.473  0.00  0.00    +0.000 N 
ATOM      8  C   UNL     1       5.547   4.147  18.106  0.00  0.00    +0.000 C 
ATOM      9  O   UNL     1       6.392   4.146  18.993  0.00  0.00    +0.000 OA
ATOM     10  C   UNL     1       3.150   4.087  17.459  0.00  0.00    +0.000 C 
ATOM     11  C   UNL     1       1.975   5.257  20.637  0.00  0.00    +0.000 C 
ENDROOT
BRANCH   8  12
ATOM     12  C   UNL     1       6.068   4.341  16.689  0.00  0.00    +0.000 A 
ATOM     13  C   UNL     1       7.078   5.306  16.465  0.00  0.00    +0.000 A 
ATOM     14  C   UNL     1       7.582   5.552  15.180  0.00  0.00    +0.000 A 
ATOM     15  C   UNL     1       7.100   4.825  14.074  0.00  0.00    +0.000 A 
ATOM     16  C   UNL     1       6.132   3.848  14.289  0.00  0.00    +0.000 A 
ATOM     17  C   UNL     1       5.631   3.607  15.562  0.00  0.00    +0.000 A 
BRANCH  15  18
ATOM     18  N   UNL     1       7.593   5.059  12.757  0.00  0.00    +0.000 N 
ATOM     19  O   UNL     1       7.323   4.311  11.869  0.00  0.00    +0.000 OA
ATOM     20  O   UNL     1       8.366   6.102  12.502  0.00  0.00    +0.000 OA
ENDBRANCH  15  18
ENDBRANCH   8  12
BRANCH   1  22
ATOM     21  C   UNL     1       1.976   8.406  18.386  0.00  0.00    +0.000 C 
ATOM     22  C   UNL     1       2.260   7.589  19.656  0.00  0.00    +0.000 C 
ATOM     23  C   UNL     1       1.329   8.050  20.791  0.00  0.00    +0.000 C 
ENDBRANCH   1  22
TORSDOF 3
ENDMDL
MODEL 2
REMARK VINA RESULT:      -7.5      0.147      1.198
REMARK  Name = 
REMARK  5 active torsions:
REMARK  status: ('A' for Active; 'I' for Inactive)
REMARK    1  A    between atoms: C_1  and  C_2
REMARK    2  A    between atoms: C_2  and  C_3
REMARK    3  A    between atoms: C_2  and  N_4
REMARK    4  A    between atoms: C_11  and  C_13
REMARK    5  A    between atoms: C_16  and  N_17
REMARK                            x       y       z     vdW  Elec       q    Type
REMARK                         _______ _______ _______ _____ _____    ______ ____
ROOT
ATOM      1  N   UNL     1       2.145   6.102  19.542  0.00  0.00    +0.000 NA
ATOM      2  C   UNL     1       1.328   5.752  18.369  0.00  0.00    +0.000 C 
ATOM      3  C   UNL     1       1.660   4.318  17.906  0.00  0.00    +0.000 C 
ATOM      4  C   UNL     1       1.413   3.302  19.022  0.00  0.00    +0.000 C 
ATOM      5  C   UNL     1       2.262   3.743  20.215  0.00  0.00    +0.000 C 
ATOM      6  C   UNL     1       3.776   3.679  19.859  0.00  0.00    +0.000 C 
ATOM      7  N   UNL     1       4.135   4.067  18.478  0.00  0.00    +0.000 N 
ATOM      8  C   UNL     1       5.486   4.168  18.161  0.00  0.00    +0.000 C 
ATOM      9  O   UNL     1       6.302   4.091  19.072  0.00  0.00    +0.000 OA
ATOM     10  C   UNL     1       3.111   4.197  17.436  0.00  0.00    +0.000 C 
ATOM     11  C   UNL     1       1.853   5.173  20.646  0.00  0.00    +0.000 C 
ENDROOT
BRANCH   8  12
ATOM     12  C   UNL     1       6.057   4.447  16.777  0.00  0.00    +0.000 A 
ATOM     13  C   UNL     1       5.630   3.645  15.693  0.00  0.00    +0.000 A 
ATOM     14  C   UNL     1       6.136   3.834  14.399  0.00  0.00    +0.000 A 
ATOM     15  C   UNL     1       7.079   4.849  14.144  0.00  0.00    +0.000 A 
ATOM     16  C   UNL     1       7.478   5.668  15.197  0.00  0.00    +0.000 A 
ATOM     17  C   UNL     1       6.979   5.477  16.479  0.00  0.00    +0.000 A 
BRANCH  15  18
ATOM     18  N   UNL     1       7.612   5.059  12.839  0.00  0.00    +0.000 N 
ATOM     19  O   UNL     1       8.304   6.002  12.614  0.00  0.00    +0.000 OA
ATOM     20  O   UNL     1       7.337   4.217  11.856  0.00  0.00    +0.000 OA
ENDBRANCH  15  18
ENDBRANCH   8  12
BRANCH   1  22
ATOM     21  C   UNL     1       1.934   8.465  18.625  0.00  0.00    +0.000 C 
ATOM     22  C   UNL     1       2.208   7.560  19.835  0.00  0.00    +0.000 C 
ATOM     23  C   UNL     1       1.282   7.953  20.999  0.00  0.00    +0.000 C 
ENDBRANCH   1  22
TORSDOF 3
ENDMDL
MODEL 3
REMARK VINA RESULT:      -7.2      0.623      1.172
REMARK  Name = 
REMARK  5 active torsions:
REMARK  status: ('A' for Active; 'I' for Inactive)
REMARK    1  A    between atoms: C_1  and  C_2
REMARK    2  A    between atoms: C_2  and  C_3
REMARK    3  A    between atoms: C_2  and  N_4
REMARK    4  A    between atoms: C_11  and  C_13
REMARK    5  A    between atoms: C_16  and  N_17
REMARK                            x       y       z     vdW  Elec       q    Type
REMARK                         _______ _______ _______ _____ _____    ______ ____
ROOT
ATOM      1  N   UNL     1       1.979   5.263  19.406  0.00  0.00    +0.000 NA
ATOM      2  C   UNL     1       1.276   4.550  18.327  0.00  0.00    +0.000 C 
ATOM      3  C   UNL     1       1.969   3.199  18.051  0.00  0.00    +0.000 C 
ATOM      4  C   UNL     1       2.000   2.325  19.305  0.00  0.00    +0.000 C 
ATOM      5  C   UNL     1       2.710   3.135  20.391  0.00  0.00    +0.000 C 
ATOM      6  C   UNL     1       4.187   3.413  19.984  0.00  0.00    +0.000 C 
ATOM      7  N   UNL     1       4.426   3.678  18.549  0.00  0.00    +0.000 N 
ATOM      8  C   UNL     1       5.703   4.077  18.166  0.00  0.00    +0.000 C 
ATOM      9  O   UNL     1       6.514   4.344  19.044  0.00  0.00    +0.000 OA
ATOM     10  C   UNL     1       3.399   3.390  17.543  0.00  0.00    +0.000 C 
ATOM     11  C   UNL     1       1.944   4.458  20.639  0.00  0.00    +0.000 C 
ENDROOT
BRANCH   8  12
ATOM     12  C   UNL     1       6.175   4.293  16.734  0.00  0.00    +0.000 A 
ATOM     13  C   UNL     1       7.178   5.260  16.490  0.00  0.00    +0.000 A 
ATOM     14  C   UNL     1       7.638   5.525  15.192  0.00  0.00    +0.000 A 
ATOM     15  C   UNL     1       7.116   4.816  14.092  0.00  0.00    +0.000 A 
ATOM     16  C   UNL     1       6.155   3.837  14.327  0.00  0.00    +0.000 A 
ATOM     17  C   UNL     1       5.698   3.577  15.612  0.00  0.00    +0.000 A 
BRANCH  15  18
ATOM     18  N   UNL     1       7.563   5.070  12.763  0.00  0.00    +0.000 N 
ATOM     19  O   UNL     1       8.177   6.060  12.511  0.00  0.00    +0.000 OA
ATOM     20  O   UNL     1       7.294   4.218  11.787  0.00  0.00    +0.000 OA
ENDBRANCH  15  18
ENDBRANCH   8  12
BRANCH   1  22
ATOM     21  C   UNL     1       1.715   7.292  20.916  0.00  0.00    +0.000 C 
ATOM     22  C   UNL     1       1.662   6.714  19.494  0.00  0.00    +0.000 C 
ATOM     23  C   UNL     1       2.547   7.554  18.557  0.00  0.00    +0.000 C 
ENDBRANCH   1  22
TORSDOF 3
ENDMDL
MODEL 4
REMARK VINA RESULT:      -7.1      0.641      1.551
REMARK  Name = 
REMARK  5 active torsions:
REMARK  status: ('A' for Active; 'I' for Inactive)
REMARK    1  A    between atoms: C_1  and  C_2
REMARK    2  A    between atoms: C_2  and  C_3
REMARK    3  A    between atoms: C_2  and  N_4
REMARK    4  A    between atoms: C_11  and  C_13
REMARK    5  A    between atoms: C_16  and  N_17
REMARK                            x       y       z     vdW  Elec       q    Type
REMARK                         _______ _______ _______ _____ _____    ______ ____
ROOT
ATOM      1  N   UNL     1       1.979   5.225  19.347  0.00  0.00    +0.000 NA
ATOM      2  C   UNL     1       1.305   4.569  18.215  0.00  0.00    +0.000 C 
ATOM      3  C   UNL     1       2.013   3.239  17.881  0.00  0.00    +0.000 C 
ATOM      4  C   UNL     1       2.023   2.297  19.085  0.00  0.00    +0.000 C 
ATOM      5  C   UNL     1       2.703   3.050  20.229  0.00  0.00    +0.000 C 
ATOM      6  C   UNL     1       4.186   3.359  19.872  0.00  0.00    +0.000 C 
ATOM      7  N   UNL     1       4.456   3.705  18.459  0.00  0.00    +0.000 N 
ATOM      8  C   UNL     1       5.738   4.131  18.127  0.00  0.00    +0.000 C 
ATOM      9  O   UNL     1       6.527   4.354  19.037  0.00  0.00    +0.000 OA
ATOM     10  C   UNL     1       3.454   3.466  17.416  0.00  0.00    +0.000 C 
ATOM     11  C   UNL     1       1.923   4.353  20.532  0.00  0.00    +0.000 C 
ENDROOT
BRANCH   8  12
ATOM     12  C   UNL     1       6.240   4.429  16.721  0.00  0.00    +0.000 A 
ATOM     13  C   UNL     1       5.808   3.601  15.658  0.00  0.00    +0.000 A 
ATOM     14  C   UNL     1       6.253   3.806  14.344  0.00  0.00    +0.000 A 
ATOM     15  C   UNL     1       7.138   4.862  14.048  0.00  0.00    +0.000 A 
ATOM     16  C   UNL     1       7.540   5.705  15.081  0.00  0.00    +0.000 A 
ATOM     17  C   UNL     1       7.100   5.499  16.382  0.00  0.00    +0.000 A 
BRANCH  15  18
ATOM     18  N   UNL     1       7.608   5.089  12.722  0.00  0.00    +0.000 N 
ATOM     19  O   UNL     1       8.266   6.050  12.471  0.00  0.00    +0.000 OA
ATOM     20  O   UNL     1       7.312   4.244  11.748  0.00  0.00    +0.000 OA
ENDBRANCH  15  18
ENDBRANCH   8  12
BRANCH   1  22
ATOM     21  C   UNL     1       1.706   7.176  20.956  0.00  0.00    +0.000 C 
ATOM     22  C   UNL     1       1.649   6.667  19.508  0.00  0.00    +0.000 C 
ATOM     23  C   UNL     1       2.521   7.560  18.608  0.00  0.00    +0.000 C 
ENDBRANCH   1  22
TORSDOF 3
ENDMDL
MODEL 5
REMARK VINA RESULT:      -6.8      3.170      4.672
REMARK  Name = 
REMARK  5 active torsions:
REMARK  status: ('A' for Active; 'I' for Inactive)
REMARK    1  A    between atoms: C_1  and  C_2
REMARK    2  A    between atoms: C_2  and  C_3
REMARK    3  A    between atoms: C_2  and  N_4
REMARK    4  A    between atoms: C_11  and  C_13
REMARK    5  A    between atoms: C_16  and  N_17
REMARK                            x       y       z     vdW  Elec       q    Type
REMARK                         _______ _______ _______ _____ _____    ______ ____
ROOT
ATOM      1  N   UNL     1       2.982   3.558  19.685  0.00  0.00    +0.000 NA
ATOM      2  C   UNL     1       2.269   4.840  19.794  0.00  0.00    +0.000 C 
ATOM      3  C   UNL     1       2.288   5.570  18.434  0.00  0.00    +0.000 C 
ATOM      4  C   UNL     1       1.646   4.720  17.338  0.00  0.00    +0.000 C 
ATOM      5  C   UNL     1       2.410   3.396  17.302  0.00  0.00    +0.000 C 
ATOM      6  C   UNL     1       3.893   3.633  16.893  0.00  0.00    +0.000 C 
ATOM      7  N   UNL     1       4.521   4.867  17.415  0.00  0.00    +0.000 N 
ATOM      8  C   UNL     1       5.884   5.045  17.198  0.00  0.00    +0.000 C 
ATOM      9  O   UNL     1       6.523   4.108  16.735  0.00  0.00    +0.000 OA
ATOM     10  C   UNL     1       3.713   5.936  18.009  0.00  0.00    +0.000 C 
ATOM     11  C   UNL     1       2.320   2.704  18.684  0.00  0.00    +0.000 C 
ENDROOT
BRANCH   8  12
ATOM     12  C   UNL     1       6.687   6.287  17.560  0.00  0.00    +0.000 A 
ATOM     13  C   UNL     1       7.678   6.183  18.565  0.00  0.00    +0.000 A 
ATOM     14  C   UNL     1       8.434   7.294  18.963  0.00  0.00    +0.000 A 
ATOM     15  C   UNL     1       8.233   8.549  18.354  0.00  0.00    +0.000 A 
ATOM     16  C   UNL     1       7.286   8.652  17.339  0.00  0.00    +0.000 A 
ATOM     17  C   UNL     1       6.535   7.552  16.948  0.00  0.00    +0.000 A 
BRANCH  15  18
ATOM     18  N   UNL     1       8.985   9.695  18.744  0.00  0.00    +0.000 N 
ATOM     19  O   UNL     1       9.260   9.877  19.889  0.00  0.00    +0.000 OA
ATOM     20  O   UNL     1       9.380  10.580  17.843  0.00  0.00    +0.000 OA
ENDBRANCH  15  18
ENDBRANCH   8  12
BRANCH   1  22
ATOM     21  C   UNL     1       2.194   2.424  21.821  0.00  0.00    +0.000 C 
ATOM     22  C   UNL     1       3.371   2.956  20.989  0.00  0.00    +0.000 C 
ATOM     23  C   UNL     1       4.430   1.852  20.821  0.00  0.00    +0.000 C 
ENDBRANCH   1  22
TORSDOF 3
ENDMDL
MODEL 6
REMARK VINA RESULT:      -6.8      3.192      4.702
REMARK  Name = 
REMARK  5 active torsions:
REMARK  status: ('A' for Active; 'I' for Inactive)
REMARK    1  A    between atoms: C_1  and  C_2
REMARK    2  A    between atoms: C_2  and  C_3
REMARK    3  A    between atoms: C_2  and  N_4
REMARK    4  A    between atoms: C_11  and  C_13
REMARK    5  A    between atoms: C_16  and  N_17
REMARK                            x       y       z     vdW  Elec       q    Type
REMARK                         _______ _______ _______ _____ _____    ______ ____
ROOT
ATOM      1  N   UNL     1       2.978   3.529  19.706  0.00  0.00    +0.000 NA
ATOM      2  C   UNL     1       2.283   4.819  19.840  0.00  0.00    +0.000 C 
ATOM      3  C   UNL     1       2.325   5.581  18.499  0.00  0.00    +0.000 C 
ATOM      4  C   UNL     1       1.680   4.767  17.377  0.00  0.00    +0.000 C 
ATOM      5  C   UNL     1       2.424   3.433  17.315  0.00  0.00    +0.000 C 
ATOM      6  C   UNL     1       3.914   3.658  16.924  0.00  0.00    +0.000 C 
ATOM      7  N   UNL     1       4.556   4.869  17.481  0.00  0.00    +0.000 N 
ATOM      8  C   UNL     1       5.923   5.033  17.280  0.00  0.00    +0.000 C 
ATOM      9  O   UNL     1       6.552   4.098  16.799  0.00  0.00    +0.000 OA
ATOM     10  C   UNL     1       3.757   5.936  18.095  0.00  0.00    +0.000 C 
ATOM     11  C   UNL     1       2.313   2.709  18.680  0.00  0.00    +0.000 C 
ENDROOT
BRANCH   8  12
ATOM     12  C   UNL     1       6.741   6.253  17.679  0.00  0.00    +0.000 A 
ATOM     13  C   UNL     1       6.483   7.483  17.029  0.00  0.00    +0.000 A 
ATOM     14  C   UNL     1       7.218   8.638  17.332  0.00  0.00    +0.000 A 
ATOM     15  C   UNL     1       8.230   8.603  18.312  0.00  0.00    +0.000 A 
ATOM     16  C   UNL     1       8.466   7.406  18.983  0.00  0.00    +0.000 A 
ATOM     17  C   UNL     1       7.739   6.262  18.679  0.00  0.00    +0.000 A 
BRANCH  15  18
ATOM     18  N   UNL     1       8.994   9.761  18.635  0.00  0.00    +0.000 N 
ATOM     19  O   UNL     1       9.392  10.482  17.773  0.00  0.00    +0.000 OA
ATOM     20  O   UNL     1       9.285  10.047  19.894  0.00  0.00    +0.000 OA
ENDBRANCH  15  18
ENDBRANCH   8  12
BRANCH   1  22
ATOM     21  C   UNL     1       2.157   2.345  21.802  0.00  0.00    +0.000 C 
ATOM     22  C   UNL     1       3.347   2.890  20.999  0.00  0.00    +0.000 C 
ATOM     23  C   UNL     1       4.401   1.784  20.815  0.00  0.00    +0.000 C 
ENDBRANCH   1  22
TORSDOF 3
ENDMDL
MODEL 7
REMARK VINA RESULT:      -6.8      4.446      7.154
REMARK  Name = 
REMARK  5 active torsions:
REMARK  status: ('A' for Active; 'I' for Inactive)
REMARK    1  A    between atoms: C_1  and  C_2
REMARK    2  A    between atoms: C_2  and  C_3
REMARK    3  A    between atoms: C_2  and  N_4
REMARK    4  A    between atoms: C_11  and  C_13
REMARK    5  A    between atoms: C_16  and  N_17
REMARK                            x       y       z     vdW  Elec       q    Type
REMARK                         _______ _______ _______ _____ _____    ______ ____
ROOT
ATOM      1  N   UNL     1      -1.125  10.762  18.864  0.00  0.00    +0.000 NA
ATOM      2  C   UNL     1      -1.193  10.539  20.318  0.00  0.00    +0.000 C 
ATOM      3  C   UNL     1       0.232  10.459  20.904  0.00  0.00    +0.000 C 
ATOM      4  C   UNL     1       1.022  11.736  20.620  0.00  0.00    +0.000 C 
ATOM      5  C   UNL     1       1.025  11.925  19.102  0.00  0.00    +0.000 C 
ATOM      6  C   UNL     1       1.777  10.752  18.409  0.00  0.00    +0.000 C 
ATOM      7  N   UNL     1       1.595   9.415  19.015  0.00  0.00    +0.000 N 
ATOM      8  C   UNL     1       2.126   8.318  18.343  0.00  0.00    +0.000 C 
ATOM      9  O   UNL     1       2.571   8.491  17.215  0.00  0.00    +0.000 OA
ATOM     10  C   UNL     1       1.005   9.261  20.349  0.00  0.00    +0.000 C 
ATOM     11  C   UNL     1      -0.432  12.031  18.588  0.00  0.00    +0.000 C 
ENDROOT
BRANCH   8  12
ATOM     12  C   UNL     1       2.137   6.883  18.852  0.00  0.00    +0.000 A 
ATOM     13  C   UNL     1       2.218   5.831  17.910  0.00  0.00    +0.000 A 
ATOM     14  C   UNL     1       2.206   4.488  18.312  0.00  0.00    +0.000 A 
ATOM     15  C   UNL     1       2.129   4.153  19.678  0.00  0.00    +0.000 A 
ATOM     16  C   UNL     1       2.086   5.182  20.615  0.00  0.00    +0.000 A 
ATOM     17  C   UNL     1       2.094   6.512  20.216  0.00  0.00    +0.000 A 
BRANCH  15  18
ATOM     18  N   UNL     1       2.111   2.796  20.113  0.00  0.00    +0.000 N 
ATOM     19  O   UNL     1       1.779   2.521  21.224  0.00  0.00    +0.000 OA
ATOM     20  O   UNL     1       2.474   1.821  19.294  0.00  0.00    +0.000 OA
ENDBRANCH  15  18
ENDBRANCH   8  12
BRANCH   1  22
ATOM     21  C   UNL     1      -3.399  11.626  18.118  0.00  0.00    +0.000 C 
ATOM     22  C   UNL     1      -2.390  10.467  18.136  0.00  0.00    +0.000 C 
ATOM     23  C   UNL     1      -2.127   9.984  16.699  0.00  0.00    +0.000 C 
ENDBRANCH   1  22
TORSDOF 3
ENDMDL
MODEL 8
REMARK VINA RESULT:      -6.6      4.465      7.188
REMARK  Name = 
REMARK  5 active torsions:
REMARK  status: ('A' for Active; 'I' for Inactive)
REMARK    1  A    between atoms: C_1  and  C_2
REMARK    2  A    between atoms: C_2  and  C_3
REMARK    3  A    between atoms: C_2  and  N_4
REMARK    4  A    between atoms: C_11  and  C_13
REMARK    5  A    between atoms: C_16  and  N_17
REMARK                            x       y       z     vdW  Elec       q    Type
REMARK                         _______ _______ _______ _____ _____    ______ ____
ROOT
ATOM      1  N   UNL     1      -1.115  10.781  18.802  0.00  0.00    +0.000 NA
ATOM      2  C   UNL     1      -1.159  10.597  20.262  0.00  0.00    +0.000 C 
ATOM      3  C   UNL     1       0.276  10.544  20.829  0.00  0.00    +0.000 C 
ATOM      4  C   UNL     1       1.051  11.819  20.497  0.00  0.00    +0.000 C 
ATOM      5  C   UNL     1       1.029  11.967  18.976  0.00  0.00    +0.000 C 
ATOM      6  C   UNL     1       1.780  10.782  18.302  0.00  0.00    +0.000 C 
ATOM      7  N   UNL     1       1.618   9.460  18.947  0.00  0.00    +0.000 N 
ATOM      8  C   UNL     1       2.148   8.350  18.297  0.00  0.00    +0.000 C 
ATOM      9  O   UNL     1       2.575   8.495  17.158  0.00  0.00    +0.000 OA
ATOM     10  C   UNL     1       1.051   9.338  20.294  0.00  0.00    +0.000 C 
ATOM     11  C   UNL     1      -0.436  12.048  18.481  0.00  0.00    +0.000 C 
ENDROOT
BRANCH   8  12
ATOM     12  C   UNL     1       2.179   6.929  18.845  0.00  0.00    +0.000 A 
ATOM     13  C   UNL     1       2.037   6.738  20.239  0.00  0.00    +0.000 A 
ATOM     14  C   UNL     1       2.082   5.457  20.809  0.00  0.00    +0.000 A 
ATOM     15  C   UNL     1       2.255   4.320  19.996  0.00  0.00    +0.000 A 
ATOM     16  C   UNL     1       2.358   4.496  18.618  0.00  0.00    +0.000 A 
ATOM     17  C   UNL     1       2.317   5.764  18.055  0.00  0.00    +0.000 A 
BRANCH  15  18
ATOM     18  N   UNL     1       2.308   3.009  20.551  0.00  0.00    +0.000 N 
ATOM     19  O   UNL     1       2.343   2.053  19.841  0.00  0.00    +0.000 OA
ATOM     20  O   UNL     1       2.307   2.832  21.862  0.00  0.00    +0.000 OA
ENDBRANCH  15  18
ENDBRANCH   8  12
BRANCH   1  22
ATOM     21  C   UNL     1      -3.406  11.607  18.069  0.00  0.00    +0.000 C 
ATOM     22  C   UNL     1      -2.387  10.458  18.102  0.00  0.00    +0.000 C 
ATOM     23  C   UNL     1      -2.142   9.938  16.674  0.00  0.00    +0.000 C 
ENDBRANCH   1  22
TORSDOF 3
ENDMDL
MODEL 9
REMARK VINA RESULT:      -6.5      3.651      7.045
REMARK  Name = 
REMARK  5 active torsions:
REMARK  status: ('A' for Active; 'I' for Inactive)
REMARK    1  A    between atoms: C_1  and  C_2
REMARK    2  A    between atoms: C_2  and  C_3
REMARK    3  A    between atoms: C_2  and  N_4
REMARK    4  A    between atoms: C_11  and  C_13
REMARK    5  A    between atoms: C_16  and  N_17
REMARK                            x       y       z     vdW  Elec       q    Type
REMARK                         _______ _______ _______ _____ _____    ______ ____
ROOT
ATOM      1  N   UNL     1       3.222   3.118  19.480  0.00  0.00    +0.000 NA
ATOM      2  C   UNL     1       1.805   2.905  19.145  0.00  0.00    +0.000 C 
ATOM      3  C   UNL     1       1.467   3.611  17.815  0.00  0.00    +0.000 C 
ATOM      4  C   UNL     1       2.345   3.097  16.675  0.00  0.00    +0.000 C 
ATOM      5  C   UNL     1       3.797   3.317  17.100  0.00  0.00    +0.000 C 
ATOM      6  C   UNL     1       4.093   4.836  17.262  0.00  0.00    +0.000 C 
ATOM      7  N   UNL     1       2.996   5.656  17.823  0.00  0.00    +0.000 N 
ATOM      8  C   UNL     1       3.267   6.987  18.122  0.00  0.00    +0.000 C 
ATOM      9  O   UNL     1       4.429   7.370  18.060  0.00  0.00    +0.000 OA
ATOM     10  C   UNL     1       1.632   5.129  17.924  0.00  0.00    +0.000 C 
ATOM     11  C   UNL     1       4.075   2.554  18.420  0.00  0.00    +0.000 C 
ENDROOT
BRANCH   8  12
ATOM     12  C   UNL     1       2.251   8.015  18.603  0.00  0.00    +0.000 A 
ATOM     13  C   UNL     1       1.907   8.036  19.975  0.00  0.00    +0.000 A 
ATOM     14  C   UNL     1       0.960   8.939  20.477  0.00  0.00    +0.000 A 
ATOM     15  C   UNL     1       0.335   9.867  19.620  0.00  0.00    +0.000 A 
ATOM     16  C   UNL     1       0.694   9.878  18.275  0.00  0.00    +0.000 A 
ATOM     17  C   UNL     1       1.630   8.980  17.778  0.00  0.00    +0.000 A 
BRANCH  15  18
ATOM     18  N   UNL     1      -0.634  10.793  20.105  0.00  0.00    +0.000 N 
ATOM     19  O   UNL     1      -0.619  11.142  21.244  0.00  0.00    +0.000 OA
ATOM     20  O   UNL     1      -1.572  11.268  19.302  0.00  0.00    +0.000 OA
ENDBRANCH  15  18
ENDBRANCH   8  12
BRANCH   1  22
ATOM     21  C   UNL     1       2.361   2.570  21.810  0.00  0.00    +0.000 C 
ATOM     22  C   UNL     1       3.570   2.834  20.899  0.00  0.00    +0.000 C 
ATOM     23  C   UNL     1       4.578   1.678  21.025  0.00  0.00    +0.000 C 
ENDBRANCH   1  22
TORSDOF 3
ENDMDL
