MODEL 1
REMARK VINA RESULT:      -8.2      0.000      0.000
REMARK  Name = 
REMARK  7 active torsions:
REMARK  status: ('A' for Active; 'I' for Inactive)
REMARK    1  A    between atoms: C_1  and  O_2
REMARK    2  A    between atoms: O_2  and  C_3
REMARK    3  A    between atoms: C_6  and  C_7
REMARK    4  A    between atoms: C_7  and  N_8
REMARK    5  A    between atoms: C_9  and  C_11
REMARK    6  A    between atoms: C_12  and  N_13
REMARK    7  A    between atoms: C_14  and  C_16
REMARK                            x       y       z     vdW  Elec       q    Type
REMARK                         _______ _______ _______ _____ _____    ______ ____
ROOT
ATOM      1  C   UNL     1       3.581   5.145  17.976  0.00  0.00    +0.000 A 
ATOM      2  C   UNL     1       4.060   4.269  17.017  0.00  0.00    +0.000 A 
ATOM      3  S   UNL     1       3.903   2.639  17.469  0.00  0.00    +0.000 S 
ATOM      4  C   UNL     1       3.199   3.047  18.970  0.00  0.00    +0.000 A 
ATOM      5  C   UNL     1       3.061   4.421  19.126  0.00  0.00    +0.000 A 
ATOM      6  C   UNL     1       2.405   5.085  20.316  0.00  0.00    +0.000 C 
ATOM      7  C   UNL     1       1.139   4.361  20.762  0.00  0.00    +0.000 C 
ATOM      8  C   UNL     1       1.412   3.167  21.673  0.00  0.00    +0.000 C 
ATOM      9  C   UNL     1       2.669   2.352  21.350  0.00  0.00    +0.000 C 
ATOM     10  C   UNL     1       2.769   1.932  19.884  0.00  0.00    +0.000 C 
ENDROOT
BRANCH   1  12
ATOM     11  N   UNL     1       2.259   7.115  18.094  0.00  0.00    +0.000 N 
ATOM     12  C   UNL     1       3.518   6.605  17.833  0.00  0.00    +0.000 C 
ATOM     13  O   UNL     1       4.480   7.301  17.578  0.00  0.00    +0.000 OA
ATOM     14  H   UNL     1       1.686   6.565  18.722  0.00  0.00    +0.000 HD
BRANCH  11  15
ATOM     15  C   UNL     1       2.017   8.529  18.025  0.00  0.00    +0.000 C 
BRANCH  15  19
ATOM     16  C   UNL     1       0.479  10.067  21.770  0.00  0.00    +0.000 A 
ATOM     17  C   UNL     1       1.023   8.786  21.688  0.00  0.00    +0.000 A 
ATOM     18  C   UNL     1       1.509   8.295  20.476  0.00  0.00    +0.000 A 
ATOM     19  C   UNL     1       1.458   9.076  19.315  0.00  0.00    +0.000 A 
ATOM     20  C   UNL     1       0.895  10.359  19.398  0.00  0.00    +0.000 A 
ATOM     21  C   UNL     1       0.403  10.850  20.618  0.00  0.00    +0.000 A 
BRANCH  16  23
ATOM     22  C   UNL     1      -1.242  11.046  23.061  0.00  0.00    +0.000 C 
ATOM     23  O   UNL     1       0.043  10.437  23.012  0.00  0.00    +0.000 OA
ENDBRANCH  16  23
ENDBRANCH  15  19
ENDBRANCH  11  15
ENDBRANCH   1  12
BRANCH   2  24
ATOM     24  N   UNL     1       4.740   4.493  15.827  0.00  0.00    +0.000 N 
ATOM     25  C   UNL     1       6.143   4.563  15.821  0.00  0.00    +0.000 C 
ATOM     26  O   UNL     1       6.844   4.488  16.828  0.00  0.00    +0.000 OA
ATOM     27  H   UNL     1       4.268   4.287  14.950  0.00  0.00    +0.000 HD
BRANCH  25  28
ATOM     28  C   UNL     1       6.748   4.669  14.407  0.00  0.00    +0.000 C 
ATOM     29  F   UNL     1       8.044   5.094  14.437  0.00  0.00    +0.000 F 
ATOM     30  F   UNL     1       6.745   3.481  13.744  0.00  0.00    +0.000 F 
ATOM     31  F   UNL     1       6.073   5.557  13.624  0.00  0.00    +0.000 F 
ENDBRANCH  25  28
ENDBRANCH   2  24
TORSDOF 6
ENDMDL
MODEL 2
REMARK VINA RESULT:      -8.0      0.189      1.150
REMARK  Name = 
REMARK  7 active torsions:
REMARK  status: ('A' for Active; 'I' for Inactive)
REMARK    1  A    between atoms: C_1  and  O_2
REMARK    2  A    between atoms: O_2  and  C_3
REMARK    3  A    between atoms: C_6  and  C_7
REMARK    4  A    between atoms: C_7  and  N_8
REMARK    5  A    between atoms: C_9  and  C_11
REMARK    6  A    between atoms: C_12  and  N_13
REMARK    7  A    between atoms: C_14  and  C_16
REMARK                            x       y       z     vdW  Elec       q    Type
REMARK                         _______ _______ _______ _____ _____    ______ ____
ROOT
ATOM      1  C   UNL     1       3.549   5.186  18.023  0.00  0.00    +0.000 A 
ATOM      2  C   UNL     1       4.049   4.332  17.056  0.00  0.00    +0.000 A 
ATOM      3  S   UNL     1       3.908   2.693  17.480  0.00  0.00    +0.000 S 
ATOM      4  C   UNL     1       3.182   3.068  18.979  0.00  0.00    +0.000 A 
ATOM      5  C   UNL     1       3.025   4.437  19.156  0.00  0.00    +0.000 A 
ATOM      6  C   UNL     1       2.348   5.073  20.348  0.00  0.00    +0.000 C 
ATOM      7  C   UNL     1       1.085   4.326  20.768  0.00  0.00    +0.000 C 
ATOM      8  C   UNL     1       1.364   3.121  21.663  0.00  0.00    +0.000 C 
ATOM      9  C   UNL     1       2.634   2.328  21.341  0.00  0.00    +0.000 C 
ATOM     10  C   UNL     1       2.756   1.933  19.870  0.00  0.00    +0.000 C 
ENDROOT
BRANCH   1  12
ATOM     11  N   UNL     1       2.206   7.139  18.179  0.00  0.00    +0.000 N 
ATOM     12  C   UNL     1       3.469   6.647  17.903  0.00  0.00    +0.000 C 
ATOM     13  O   UNL     1       4.421   7.357  17.653  0.00  0.00    +0.000 OA
ATOM     14  H   UNL     1       1.642   6.572  18.801  0.00  0.00    +0.000 HD
BRANCH  11  15
ATOM     15  C   UNL     1       1.948   8.550  18.132  0.00  0.00    +0.000 C 
BRANCH  15  19
ATOM     16  C   UNL     1       0.389  10.094  21.867  0.00  0.00    +0.000 A 
ATOM     17  C   UNL     1       0.253  10.812  20.679  0.00  0.00    +0.000 A 
ATOM     18  C   UNL     1       0.765  10.311  19.481  0.00  0.00    +0.000 A 
ATOM     19  C   UNL     1       1.429   9.079  19.447  0.00  0.00    +0.000 A 
ATOM     20  C   UNL     1       1.578   8.367  20.647  0.00  0.00    +0.000 A 
ATOM     21  C   UNL     1       1.065   8.874  21.851  0.00  0.00    +0.000 A 
BRANCH  16  23
ATOM     22  C   UNL     1      -1.071  11.748  22.715  0.00  0.00    +0.000 C 
ATOM     23  O   UNL     1      -0.160  10.684  22.971  0.00  0.00    +0.000 OA
ENDBRANCH  16  23
ENDBRANCH  15  19
ENDBRANCH  11  15
ENDBRANCH   1  12
BRANCH   2  24
ATOM     24  N   UNL     1       4.740   4.584  15.878  0.00  0.00    +0.000 N 
ATOM     25  C   UNL     1       6.145   4.556  15.866  0.00  0.00    +0.000 C 
ATOM     26  O   UNL     1       6.842   4.370  16.861  0.00  0.00    +0.000 OA
ATOM     27  H   UNL     1       4.253   4.466  14.993  0.00  0.00    +0.000 HD
BRANCH  25  28
ATOM     28  C   UNL     1       6.751   4.710  14.457  0.00  0.00    +0.000 C 
ATOM     29  F   UNL     1       6.763   3.529  13.775  0.00  0.00    +0.000 F 
ATOM     30  F   UNL     1       6.067   5.596  13.685  0.00  0.00    +0.000 F 
ATOM     31  F   UNL     1       8.043   5.141  14.496  0.00  0.00    +0.000 F 
ENDBRANCH  25  28
ENDBRANCH   2  24
TORSDOF 6
ENDMDL
MODEL 3
REMARK VINA RESULT:      -7.7      2.288      2.807
REMARK  Name = 
REMARK  7 active torsions:
REMARK  status: ('A' for Active; 'I' for Inactive)
REMARK    1  A    between atoms: C_1  and  O_2
REMARK    2  A    between atoms: O_2  and  C_3
REMARK    3  A    between atoms: C_6  and  C_7
REMARK    4  A    between atoms: C_7  and  N_8
REMARK    5  A    between atoms: C_9  and  C_11
REMARK    6  A    between atoms: C_12  and  N_13
REMARK    7  A    between atoms: C_14  and  C_16
REMARK                            x       y       z     vdW  Elec       q    Type
REMARK                         _______ _______ _______ _____ _____    ______ ____
ROOT
ATOM      1  C   UNL     1       3.696   5.904  18.584  0.00  0.00    +0.000 A 
ATOM      2  C   UNL     1       5.048   5.638  18.712  0.00  0.00    +0.000 A 
ATOM      3  S   UNL     1       5.372   4.015  19.093  0.00  0.00    +0.000 S 
ATOM      4  C   UNL     1       3.713   3.611  19.111  0.00  0.00    +0.000 A 
ATOM      5  C   UNL     1       2.907   4.701  18.808  0.00  0.00    +0.000 A 
ATOM      6  C   UNL     1       1.402   4.641  18.674  0.00  0.00    +0.000 C 
ATOM      7  C   UNL     1       0.933   3.398  17.925  0.00  0.00    +0.000 C 
ATOM      8  C   UNL     1       0.829   2.159  18.811  0.00  0.00    +0.000 C 
ATOM      9  C   UNL     1       1.901   2.022  19.897  0.00  0.00    +0.000 C 
ATOM     10  C   UNL     1       3.329   2.181  19.376  0.00  0.00    +0.000 C 
ENDROOT
BRANCH   1  12
ATOM     11  N   UNL     1       2.246   7.705  19.133  0.00  0.00    +0.000 N 
ATOM     12  C   UNL     1       3.120   7.196  18.189  0.00  0.00    +0.000 C 
ATOM     13  O   UNL     1       3.426   7.789  17.175  0.00  0.00    +0.000 OA
ATOM     14  H   UNL     1       2.411   7.405  20.086  0.00  0.00    +0.000 HD
BRANCH  11  15
ATOM     15  C   UNL     1       1.606   8.972  18.924  0.00  0.00    +0.000 C 
BRANCH  15  19
ATOM     16  C   UNL     1      -0.426  10.449  22.452  0.00  0.00    +0.000 A 
ATOM     17  C   UNL     1      -0.386  11.200  21.278  0.00  0.00    +0.000 A 
ATOM     18  C   UNL     1       0.278  10.720  20.148  0.00  0.00    +0.000 A 
ATOM     19  C   UNL     1       0.921   9.477  20.170  0.00  0.00    +0.000 A 
ATOM     20  C   UNL     1       0.893   8.732  21.359  0.00  0.00    +0.000 A 
ATOM     21  C   UNL     1       0.227   9.218  22.495  0.00  0.00    +0.000 A 
BRANCH  16  23
ATOM     22  C   UNL     1      -2.203  11.859  23.118  0.00  0.00    +0.000 C 
ATOM     23  O   UNL     1      -1.112  11.022  23.487  0.00  0.00    +0.000 OA
ENDBRANCH  16  23
ENDBRANCH  15  19
ENDBRANCH  11  15
ENDBRANCH   1  12
BRANCH   2  24
ATOM     24  N   UNL     1       6.153   6.478  18.701  0.00  0.00    +0.000 N 
ATOM     25  C   UNL     1       6.706   6.897  17.479  0.00  0.00    +0.000 C 
ATOM     26  O   UNL     1       6.308   6.529  16.376  0.00  0.00    +0.000 OA
ATOM     27  H   UNL     1       6.352   7.033  19.531  0.00  0.00    +0.000 HD
BRANCH  25  28
ATOM     28  C   UNL     1       7.831   7.940  17.639  0.00  0.00    +0.000 C 
ATOM     29  F   UNL     1       8.656   7.970  16.553  0.00  0.00    +0.000 F 
ATOM     30  F   UNL     1       7.356   9.204  17.799  0.00  0.00    +0.000 F 
ATOM     31  F   UNL     1       8.625   7.680  18.714  0.00  0.00    +0.000 F 
ENDBRANCH  25  28
ENDBRANCH   2  24
TORSDOF 6
ENDMDL
MODEL 4
REMARK VINA RESULT:      -7.6      2.290      2.590
REMARK  Name = 
REMARK  7 active torsions:
REMARK  status: ('A' for Active; 'I' for Inactive)
REMARK    1  A    between atoms: C_1  and  O_2
REMARK    2  A    between atoms: O_2  and  C_3
REMARK    3  A    between atoms: C_6  and  C_7
REMARK    4  A    between atoms: C_7  and  N_8
REMARK    5  A    between atoms: C_9  and  C_11
REMARK    6  A    between atoms: C_12  and  N_13
REMARK    7  A    between atoms: C_14  and  C_16
REMARK                            x       y       z     vdW  Elec       q    Type
REMARK                         _______ _______ _______ _____ _____    ______ ____
ROOT
ATOM      1  C   UNL     1       3.715   5.908  18.542  0.00  0.00    +0.000 A 
ATOM      2  C   UNL     1       5.064   5.649  18.711  0.00  0.00    +0.000 A 
ATOM      3  S   UNL     1       5.382   4.038  19.148  0.00  0.00    +0.000 S 
ATOM      4  C   UNL     1       3.723   3.632  19.139  0.00  0.00    +0.000 A 
ATOM      5  C   UNL     1       2.923   4.710  18.784  0.00  0.00    +0.000 A 
ATOM      6  C   UNL     1       1.422   4.643  18.617  0.00  0.00    +0.000 C 
ATOM      7  C   UNL     1       0.973   3.376  17.894  0.00  0.00    +0.000 C 
ATOM      8  C   UNL     1       0.850   2.164  18.815  0.00  0.00    +0.000 C 
ATOM      9  C   UNL     1       1.895   2.063  19.930  0.00  0.00    +0.000 C 
ATOM     10  C   UNL     1       3.335   2.209  19.438  0.00  0.00    +0.000 C 
ENDROOT
BRANCH   1  12
ATOM     11  N   UNL     1       2.284   7.742  19.021  0.00  0.00    +0.000 N 
ATOM     12  C   UNL     1       3.147   7.185  18.095  0.00  0.00    +0.000 C 
ATOM     13  O   UNL     1       3.450   7.731  17.054  0.00  0.00    +0.000 OA
ATOM     14  H   UNL     1       2.452   7.484  19.986  0.00  0.00    +0.000 HD
BRANCH  11  15
ATOM     15  C   UNL     1       1.652   9.005  18.761  0.00  0.00    +0.000 C 
BRANCH  15  19
ATOM     16  C   UNL     1      -0.513  10.442  22.226  0.00  0.00    +0.000 A 
ATOM     17  C   UNL     1       0.319   9.326  22.310  0.00  0.00    +0.000 A 
ATOM     18  C   UNL     1       1.008   8.865  21.187  0.00  0.00    +0.000 A 
ATOM     19  C   UNL     1       0.874   9.509  19.951  0.00  0.00    +0.000 A 
ATOM     20  C   UNL     1       0.023  10.622  19.867  0.00  0.00    +0.000 A 
ATOM     21  C   UNL     1      -0.671  11.082  20.998  0.00  0.00    +0.000 A 
BRANCH  16  23
ATOM     22  C   UNL     1      -2.022  11.903  23.309  0.00  0.00    +0.000 C 
ATOM     23  O   UNL     1      -1.126  10.800  23.395  0.00  0.00    +0.000 OA
ENDBRANCH  16  23
ENDBRANCH  15  19
ENDBRANCH  11  15
ENDBRANCH   1  12
BRANCH   2  24
ATOM     24  N   UNL     1       6.168   6.491  18.700  0.00  0.00    +0.000 N 
ATOM     25  C   UNL     1       6.729   6.900  17.479  0.00  0.00    +0.000 C 
ATOM     26  O   UNL     1       6.341   6.520  16.377  0.00  0.00    +0.000 OA
ATOM     27  H   UNL     1       6.359   7.053  19.526  0.00  0.00    +0.000 HD
BRANCH  25  28
ATOM     28  C   UNL     1       7.852   7.946  17.638  0.00  0.00    +0.000 C 
ATOM     29  F   UNL     1       8.640   7.687  18.720  0.00  0.00    +0.000 F 
ATOM     30  F   UNL     1       8.679   7.995  16.560  0.00  0.00    +0.000 F 
ATOM     31  F   UNL     1       7.361   9.204  17.815  0.00  0.00    +0.000 F 
ENDBRANCH  25  28
ENDBRANCH   2  24
TORSDOF 6
ENDMDL
MODEL 5
REMARK VINA RESULT:      -7.4      5.249      9.179
REMARK  Name = 
REMARK  7 active torsions:
REMARK  status: ('A' for Active; 'I' for Inactive)
REMARK    1  A    between atoms: C_1  and  O_2
REMARK    2  A    between atoms: O_2  and  C_3
REMARK    3  A    between atoms: C_6  and  C_7
REMARK    4  A    between atoms: C_7  and  N_8
REMARK    5  A    between atoms: C_9  and  C_11
REMARK    6  A    between atoms: C_12  and  N_13
REMARK    7  A    between atoms: C_14  and  C_16
REMARK                            x       y       z     vdW  Elec       q    Type
REMARK                         _______ _______ _______ _____ _____    ______ ____
ROOT
ATOM      1  C   UNL     1      -1.565  12.220  19.668  0.00  0.00    +0.000 A 
ATOM      2  C   UNL     1      -2.698  12.200  18.874  0.00  0.00    +0.000 A 
ATOM      3  S   UNL     1      -4.124  12.506  19.745  0.00  0.00    +0.000 S 
ATOM      4  C   UNL     1      -3.277  12.664  21.219  0.00  0.00    +0.000 A 
ATOM      5  C   UNL     1      -1.907  12.506  21.053  0.00  0.00    +0.000 A 
ATOM      6  C   UNL     1      -0.888  12.663  22.159  0.00  0.00    +0.000 C 
ATOM      7  C   UNL     1      -1.189  13.854  23.063  0.00  0.00    +0.000 C 
ATOM      8  C   UNL     1      -2.214  13.546  24.153  0.00  0.00    +0.000 C 
ATOM      9  C   UNL     1      -3.350  12.600  23.752  0.00  0.00    +0.000 C 
ATOM     10  C   UNL     1      -4.058  13.003  22.459  0.00  0.00    +0.000 C 
ENDROOT
BRANCH   1  12
ATOM     11  N   UNL     1       0.143  10.744  18.927  0.00  0.00    +0.000 N 
ATOM     12  C   UNL     1      -0.188  12.062  19.182  0.00  0.00    +0.000 C 
ATOM     13  O   UNL     1       0.561  12.992  18.964  0.00  0.00    +0.000 OA
ATOM     14  H   UNL     1      -0.632  10.136  18.692  0.00  0.00    +0.000 HD
BRANCH  11  15
ATOM     15  C   UNL     1       1.444  10.404  18.424  0.00  0.00    +0.000 C 
BRANCH  15  19
ATOM     16  C   UNL     1       2.654   6.359  19.389  0.00  0.00    +0.000 A 
ATOM     17  C   UNL     1       2.935   6.915  18.142  0.00  0.00    +0.000 A 
ATOM     18  C   UNL     1       2.535   8.217  17.836  0.00  0.00    +0.000 A 
ATOM     19  C   UNL     1       1.839   8.991  18.773  0.00  0.00    +0.000 A 
ATOM     20  C   UNL     1       1.544   8.421  20.021  0.00  0.00    +0.000 A 
ATOM     21  C   UNL     1       1.945   7.110  20.325  0.00  0.00    +0.000 A 
BRANCH  16  23
ATOM     22  C   UNL     1       4.487   4.869  19.310  0.00  0.00    +0.000 C 
ATOM     23  O   UNL     1       3.104   5.080  19.571  0.00  0.00    +0.000 OA
ENDBRANCH  16  23
ENDBRANCH  15  19
ENDBRANCH  11  15
ENDBRANCH   1  12
BRANCH   2  24
ATOM     24  N   UNL     1      -2.878  11.863  17.539  0.00  0.00    +0.000 N 
ATOM     25  C   UNL     1      -2.889  10.514  17.149  0.00  0.00    +0.000 C 
ATOM     26  O   UNL     1      -2.696   9.571  17.914  0.00  0.00    +0.000 OA
ATOM     27  H   UNL     1      -3.312  12.543  16.919  0.00  0.00    +0.000 HD
BRANCH  25  28
ATOM     28  C   UNL     1      -3.244  10.305  15.663  0.00  0.00    +0.000 C 
ATOM     29  F   UNL     1      -2.678  11.255  14.865  0.00  0.00    +0.000 F 
ATOM     30  F   UNL     1      -2.826   9.101  15.188  0.00  0.00    +0.000 F 
ATOM     31  F   UNL     1      -4.586  10.370  15.441  0.00  0.00    +0.000 F 
ENDBRANCH  25  28
ENDBRANCH   2  24
TORSDOF 6
ENDMDL
MODEL 6
REMARK VINA RESULT:      -7.4      5.487      9.520
REMARK  Name = 
REMARK  7 active torsions:
REMARK  status: ('A' for Active; 'I' for Inactive)
REMARK    1  A    between atoms: C_1  and  O_2
REMARK    2  A    between atoms: O_2  and  C_3
REMARK    3  A    between atoms: C_6  and  C_7
REMARK    4  A    between atoms: C_7  and  N_8
REMARK    5  A    between atoms: C_9  and  C_11
REMARK    6  A    between atoms: C_12  and  N_13
REMARK    7  A    between atoms: C_14  and  C_16
REMARK                            x       y       z     vdW  Elec       q    Type
REMARK                         _______ _______ _______ _____ _____    ______ ____
ROOT
ATOM      1  C   UNL     1      -2.256  12.532  20.002  0.00  0.00    +0.000 A 
ATOM      2  C   UNL     1      -3.342  12.373  19.159  0.00  0.00    +0.000 A 
ATOM      3  S   UNL     1      -4.832  12.492  19.965  0.00  0.00    +0.000 S 
ATOM      4  C   UNL     1      -4.078  12.750  21.475  0.00  0.00    +0.000 A 
ATOM      5  C   UNL     1      -2.692  12.768  21.371  0.00  0.00    +0.000 A 
ATOM      6  C   UNL     1      -1.752  13.048  22.521  0.00  0.00    +0.000 C 
ATOM      7  C   UNL     1      -2.241  14.188  23.409  0.00  0.00    +0.000 C 
ATOM      8  C   UNL     1      -3.266  13.748  24.452  0.00  0.00    +0.000 C 
ATOM      9  C   UNL     1      -4.255  12.668  24.003  0.00  0.00    +0.000 C 
ATOM     10  C   UNL     1      -4.950  12.982  22.678  0.00  0.00    +0.000 C 
ENDROOT
BRANCH   1  12
ATOM     11  N   UNL     1      -0.331  11.286  19.381  0.00  0.00    +0.000 N 
ATOM     12  C   UNL     1      -0.850  12.553  19.579  0.00  0.00    +0.000 C 
ATOM     13  O   UNL     1      -0.225  13.570  19.361  0.00  0.00    +0.000 OA
ATOM     14  H   UNL     1      -1.005  10.571  19.135  0.00  0.00    +0.000 HD
BRANCH  11  15
ATOM     15  C   UNL     1       1.025  11.114  18.943  0.00  0.00    +0.000 C 
BRANCH  15  19
ATOM     16  C   UNL     1       2.306   7.003  19.406  0.00  0.00    +0.000 A 
ATOM     17  C   UNL     1       1.670   7.680  20.446  0.00  0.00    +0.000 A 
ATOM     18  C   UNL     1       1.267   9.007  20.291  0.00  0.00    +0.000 A 
ATOM     19  C   UNL     1       1.496   9.689  19.091  0.00  0.00    +0.000 A 
ATOM     20  C   UNL     1       2.151   9.009  18.051  0.00  0.00    +0.000 A 
ATOM     21  C   UNL     1       2.558   7.675  18.210  0.00  0.00    +0.000 A 
BRANCH  16  23
ATOM     22  C   UNL     1       4.005   5.360  19.438  0.00  0.00    +0.000 C 
ATOM     23  O   UNL     1       2.645   5.706  19.675  0.00  0.00    +0.000 OA
ENDBRANCH  16  23
ENDBRANCH  15  19
ENDBRANCH  11  15
ENDBRANCH   1  12
BRANCH   2  24
ATOM     24  N   UNL     1      -3.417  12.021  17.818  0.00  0.00    +0.000 N 
ATOM     25  C   UNL     1      -3.108  10.711  17.416  0.00  0.00    +0.000 C 
ATOM     26  O   UNL     1      -2.714   9.829  18.175  0.00  0.00    +0.000 OA
ATOM     27  H   UNL     1      -3.988  12.590  17.197  0.00  0.00    +0.000 HD
BRANCH  25  28
ATOM     28  C   UNL     1      -3.383  10.445  15.921  0.00  0.00    +0.000 C 
ATOM     29  F   UNL     1      -4.683  10.689  15.591  0.00  0.00    +0.000 F 
ATOM     30  F   UNL     1      -2.623  11.221  15.103  0.00  0.00    +0.000 F 
ATOM     31  F   UNL     1      -3.138   9.151  15.575  0.00  0.00    +0.000 F 
ENDBRANCH  25  28
ENDBRANCH   2  24
TORSDOF 6
ENDMDL
MODEL 7
REMARK VINA RESULT:      -7.3      5.553      9.631
REMARK  Name = 
REMARK  7 active torsions:
REMARK  status: ('A' for Active; 'I' for Inactive)
REMARK    1  A    between atoms: C_1  and  O_2
REMARK    2  A    between atoms: O_2  and  C_3
REMARK    3  A    between atoms: C_6  and  C_7
REMARK    4  A    between atoms: C_7  and  N_8
REMARK    5  A    between atoms: C_9  and  C_11
REMARK    6  A    between atoms: C_12  and  N_13
REMARK    7  A    between atoms: C_14  and  C_16
REMARK                            x       y       z     vdW  Elec       q    Type
REMARK                         _______ _______ _______ _____ _____    ______ ____
ROOT
ATOM      1  C   UNL     1      -2.432  12.590  20.153  0.00  0.00    +0.000 A 
ATOM      2  C   UNL     1      -3.506  12.376  19.307  0.00  0.00    +0.000 A 
ATOM      3  S   UNL     1      -5.003  12.422  20.109  0.00  0.00    +0.000 S 
ATOM      4  C   UNL     1      -4.267  12.718  21.621  0.00  0.00    +0.000 A 
ATOM      5  C   UNL     1      -2.883  12.803  21.521  0.00  0.00    +0.000 A 
ATOM      6  C   UNL     1      -1.961  13.130  22.673  0.00  0.00    +0.000 C 
ATOM      7  C   UNL     1      -2.509  14.245  23.559  0.00  0.00    +0.000 C 
ATOM      8  C   UNL     1      -3.513  13.755  24.600  0.00  0.00    +0.000 C 
ATOM      9  C   UNL     1      -4.446  12.627  24.149  0.00  0.00    +0.000 C 
ATOM     10  C   UNL     1      -5.152  12.906  22.822  0.00  0.00    +0.000 C 
ENDROOT
BRANCH   1  12
ATOM     11  N   UNL     1      -0.366  11.467  19.812  0.00  0.00    +0.000 N 
ATOM     12  C   UNL     1      -1.028  12.679  19.734  0.00  0.00    +0.000 C 
ATOM     13  O   UNL     1      -0.516  13.691  19.301  0.00  0.00    +0.000 OA
ATOM     14  H   UNL     1      -0.950  10.644  19.726  0.00  0.00    +0.000 HD
BRANCH  11  15
ATOM     15  C   UNL     1       1.010  11.362  19.419  0.00  0.00    +0.000 C 
BRANCH  15  19
ATOM     16  C   UNL     1       2.315   7.274  18.830  0.00  0.00    +0.000 A 
ATOM     17  C   UNL     1       2.355   8.199  17.788  0.00  0.00    +0.000 A 
ATOM     18  C   UNL     1       1.925   9.512  17.984  0.00  0.00    +0.000 A 
ATOM     19  C   UNL     1       1.442   9.929  19.230  0.00  0.00    +0.000 A 
ATOM     20  C   UNL     1       1.388   8.990  20.272  0.00  0.00    +0.000 A 
ATOM     21  C   UNL     1       1.818   7.669  20.072  0.00  0.00    +0.000 A 
BRANCH  16  23
ATOM     22  C   UNL     1       3.916   5.974  17.675  0.00  0.00    +0.000 C 
ATOM     23  O   UNL     1       2.770   6.023  18.517  0.00  0.00    +0.000 OA
ENDBRANCH  16  23
ENDBRANCH  15  19
ENDBRANCH  11  15
ENDBRANCH   1  12
BRANCH   2  24
ATOM     24  N   UNL     1      -3.561  12.020  17.966  0.00  0.00    +0.000 N 
ATOM     25  C   UNL     1      -3.104  10.758  17.554  0.00  0.00    +0.000 C 
ATOM     26  O   UNL     1      -2.594   9.928  18.303  0.00  0.00    +0.000 OA
ATOM     27  H   UNL     1      -4.206  12.518  17.356  0.00  0.00    +0.000 HD
BRANCH  25  28
ATOM     28  C   UNL     1      -3.369  10.464  16.063  0.00  0.00    +0.000 C 
ATOM     29  F   UNL     1      -2.555  11.194  15.247  0.00  0.00    +0.000 F 
ATOM     30  F   UNL     1      -3.168   9.158  15.742  0.00  0.00    +0.000 F 
ATOM     31  F   UNL     1      -4.646  10.766  15.698  0.00  0.00    +0.000 F 
ENDBRANCH  25  28
ENDBRANCH   2  24
TORSDOF 6
ENDMDL
MODEL 8
REMARK VINA RESULT:      -7.2      5.231      7.109
REMARK  Name = 
REMARK  7 active torsions:
REMARK  status: ('A' for Active; 'I' for Inactive)
REMARK    1  A    between atoms: C_1  and  O_2
REMARK    2  A    between atoms: O_2  and  C_3
REMARK    3  A    between atoms: C_6  and  C_7
REMARK    4  A    between atoms: C_7  and  N_8
REMARK    5  A    between atoms: C_9  and  C_11
REMARK    6  A    between atoms: C_12  and  N_13
REMARK    7  A    between atoms: C_14  and  C_16
REMARK                            x       y       z     vdW  Elec       q    Type
REMARK                         _______ _______ _______ _____ _____    ______ ____
ROOT
ATOM      1  C   UNL     1       1.388   8.995  20.375  0.00  0.00    +0.000 A 
ATOM      2  C   UNL     1       1.273   9.758  19.225  0.00  0.00    +0.000 A 
ATOM      3  S   UNL     1       1.745   8.921  17.824  0.00  0.00    +0.000 S 
ATOM      4  C   UNL     1       2.131   7.512  18.706  0.00  0.00    +0.000 A 
ATOM      5  C   UNL     1       1.884   7.662  20.065  0.00  0.00    +0.000 A 
ATOM      6  C   UNL     1       2.057   6.566  21.092  0.00  0.00    +0.000 C 
ATOM      7  C   UNL     1       1.544   5.217  20.596  0.00  0.00    +0.000 C 
ATOM      8  C   UNL     1       2.554   4.465  19.733  0.00  0.00    +0.000 C 
ATOM      9  C   UNL     1       3.415   5.328  18.806  0.00  0.00    +0.000 C 
ATOM     10  C   UNL     1       2.609   6.303  17.948  0.00  0.00    +0.000 C 
ENDROOT
BRANCH   1  12
ATOM     11  N   UNL     1      -0.363   9.714  21.809  0.00  0.00    +0.000 N 
ATOM     12  C   UNL     1       0.987   9.425  21.720  0.00  0.00    +0.000 C 
ATOM     13  O   UNL     1       1.741   9.461  22.670  0.00  0.00    +0.000 OA
ATOM     14  H   UNL     1      -0.959   9.230  21.149  0.00  0.00    +0.000 HD
BRANCH  11  15
ATOM     15  C   UNL     1      -0.938  10.129  23.058  0.00  0.00    +0.000 C 
BRANCH  15  19
ATOM     16  C   UNL     1      -2.389  14.210  23.005  0.00  0.00    +0.000 A 
ATOM     17  C   UNL     1      -3.214  13.158  23.402  0.00  0.00    +0.000 A 
ATOM     18  C   UNL     1      -2.741  11.845  23.408  0.00  0.00    +0.000 A 
ATOM     19  C   UNL     1      -1.430  11.555  23.014  0.00  0.00    +0.000 A 
ATOM     20  C   UNL     1      -0.607  12.614  22.600  0.00  0.00    +0.000 A 
ATOM     21  C   UNL     1      -1.086  13.934  22.591  0.00  0.00    +0.000 A 
BRANCH  16  23
ATOM     22  C   UNL     1      -4.146  15.556  23.835  0.00  0.00    +0.000 C 
ATOM     23  O   UNL     1      -2.964  15.450  23.049  0.00  0.00    +0.000 OA
ENDBRANCH  16  23
ENDBRANCH  15  19
ENDBRANCH  11  15
ENDBRANCH   1  12
BRANCH   2  24
ATOM     24  N   UNL     1       0.959  11.098  19.041  0.00  0.00    +0.000 N 
ATOM     25  C   UNL     1      -0.384  11.500  18.954  0.00  0.00    +0.000 C 
ATOM     26  O   UNL     1      -1.340  10.729  18.979  0.00  0.00    +0.000 OA
ATOM     27  H   UNL     1       1.654  11.799  19.289  0.00  0.00    +0.000 HD
BRANCH  25  28
ATOM     28  C   UNL     1      -0.565  13.031  18.898  0.00  0.00    +0.000 C 
ATOM     29  F   UNL     1       0.450  13.688  19.529  0.00  0.00    +0.000 F 
ATOM     30  F   UNL     1      -0.602  13.508  17.625  0.00  0.00    +0.000 F 
ATOM     31  F   UNL     1      -1.716  13.435  19.503  0.00  0.00    +0.000 F 
ENDBRANCH  25  28
ENDBRANCH   2  24
TORSDOF 6
ENDMDL
MODEL 9
REMARK VINA RESULT:      -7.1      5.210      6.954
REMARK  Name = 
REMARK  7 active torsions:
REMARK  status: ('A' for Active; 'I' for Inactive)
REMARK    1  A    between atoms: C_1  and  O_2
REMARK    2  A    between atoms: O_2  and  C_3
REMARK    3  A    between atoms: C_6  and  C_7
REMARK    4  A    between atoms: C_7  and  N_8
REMARK    5  A    between atoms: C_9  and  C_11
REMARK    6  A    between atoms: C_12  and  N_13
REMARK    7  A    between atoms: C_14  and  C_16
REMARK                            x       y       z     vdW  Elec       q    Type
REMARK                         _______ _______ _______ _____ _____    ______ ____
ROOT
ATOM      1  C   UNL     1       1.019   8.537  20.252  0.00  0.00    +0.000 A 
ATOM      2  C   UNL     1       1.203   9.424  19.206  0.00  0.00    +0.000 A 
ATOM      3  S   UNL     1       2.281   8.847  18.026  0.00  0.00    +0.000 S 
ATOM      4  C   UNL     1       2.549   7.392  18.879  0.00  0.00    +0.000 A 
ATOM      5  C   UNL     1       1.807   7.329  20.052  0.00  0.00    +0.000 A 
ATOM      6  C   UNL     1       1.775   6.137  20.981  0.00  0.00    +0.000 C 
ATOM      7  C   UNL     1       1.707   4.812  20.226  0.00  0.00    +0.000 C 
ATOM      8  C   UNL     1       3.071   4.313  19.753  0.00  0.00    +0.000 C 
ATOM      9  C   UNL     1       4.053   5.392  19.289  0.00  0.00    +0.000 C 
ATOM     10  C   UNL     1       3.462   6.364  18.268  0.00  0.00    +0.000 C 
ENDROOT
BRANCH   1  12
ATOM     11  N   UNL     1       0.325   9.907  22.064  0.00  0.00    +0.000 N 
ATOM     12  C   UNL     1       0.093   8.731  21.374  0.00  0.00    +0.000 C 
ATOM     13  O   UNL     1      -0.821   7.975  21.634  0.00  0.00    +0.000 OA
ATOM     14  H   UNL     1       0.756  10.650  21.527  0.00  0.00    +0.000 HD
BRANCH  11  15
ATOM     15  C   UNL     1      -0.501  10.273  23.180  0.00  0.00    +0.000 C 
BRANCH  15  19
ATOM     16  C   UNL     1      -2.513  14.041  22.464  0.00  0.00    +0.000 A 
ATOM     17  C   UNL     1      -1.186  13.850  22.081  0.00  0.00    +0.000 A 
ATOM     18  C   UNL     1      -0.542  12.635  22.322  0.00  0.00    +0.000 A 
ATOM     19  C   UNL     1      -1.213  11.584  22.957  0.00  0.00    +0.000 A 
ATOM     20  C   UNL     1      -2.544  11.785  23.356  0.00  0.00    +0.000 A 
ATOM     21  C   UNL     1      -3.188  13.009  23.115  0.00  0.00    +0.000 A 
BRANCH  16  23
ATOM     22  C   UNL     1      -4.096  15.710  23.006  0.00  0.00    +0.000 C 
ATOM     23  O   UNL     1      -3.034  15.269  22.166  0.00  0.00    +0.000 OA
ENDBRANCH  16  23
ENDBRANCH  15  19
ENDBRANCH  11  15
ENDBRANCH   1  12
BRANCH   2  24
ATOM     24  N   UNL     1       0.760  10.727  19.020  0.00  0.00    +0.000 N 
ATOM     25  C   UNL     1      -0.524  10.966  18.502  0.00  0.00    +0.000 C 
ATOM     26  O   UNL     1      -1.299  10.085  18.139  0.00  0.00    +0.000 OA
ATOM     27  H   UNL     1       1.211  11.474  19.542  0.00  0.00    +0.000 HD
BRANCH  25  28
ATOM     28  C   UNL     1      -0.916  12.458  18.495  0.00  0.00    +0.000 C 
ATOM     29  F   UNL     1       0.024  13.235  19.104  0.00  0.00    +0.000 F 
ATOM     30  F   UNL     1      -1.073  12.953  17.238  0.00  0.00    +0.000 F 
ATOM     31  F   UNL     1      -2.086  12.685  19.155  0.00  0.00    +0.000 F 
ENDBRANCH  25  28
ENDBRANCH   2  24
TORSDOF 6
ENDMDL
