MODEL 1
REMARK VINA RESULT:      -7.0      0.000      0.000
REMARK  Name = 
REMARK  6 active torsions:
REMARK  status: ('A' for Active; 'I' for Inactive)
REMARK    1  A    between atoms: C_3  and  C_4
REMARK    2  A    between atoms: C_4  and  N_5
REMARK    3  A    between atoms: N_5  and  C_6
REMARK    4  A    between atoms: C_6  and  C_7
REMARK    5  A    between atoms: C_7  and  C_8
REMARK    6  A    between atoms: C_10  and  C_11
REMARK                            x       y       z     vdW  Elec       q    Type
REMARK                         _______ _______ _______ _____ _____    ______ ____
ROOT
ATOM      1  N   UNL     1       4.099   2.326  18.295  0.00  0.00    +0.000 NA
ATOM      2  H   UNL     1       4.176   3.134  18.916  0.00  0.00    +0.000 HD
ENDROOT
BRANCH   1   3
ATOM      3  C   UNL     1       4.070   2.837  16.916  0.00  0.00    +0.000 C 
BRANCH   3   6
ATOM      4  C   UNL     1       6.642   5.056  15.131  0.00  0.00    +0.000 A 
ATOM      5  C   UNL     1       5.611   4.143  15.377  0.00  0.00    +0.000 A 
ATOM      6  C   UNL     1       5.162   3.856  16.682  0.00  0.00    +0.000 A 
ATOM      7  C   UNL     1       5.846   4.534  17.708  0.00  0.00    +0.000 A 
ATOM      8  N   UNL     1       5.690   4.485  19.071  0.00  0.00    +0.000 N 
ATOM      9  N   UNL     1       6.514   5.297  19.755  0.00  0.00    +0.000 NA
ATOM     10  C   UNL     1       7.234   5.879  18.792  0.00  0.00    +0.000 A 
ATOM     11  C   UNL     1       6.870   5.447  17.496  0.00  0.00    +0.000 A 
ATOM     12  C   UNL     1       7.282   5.721  16.183  0.00  0.00    +0.000 A 
ATOM     13  H   UNL     1       5.006   3.924  19.571  0.00  0.00    +0.000 HD
ENDBRANCH   3   6
ENDBRANCH   1   3
BRANCH   1  14
ATOM     14  C   UNL     1       2.859   1.603  18.621  0.00  0.00    +0.000 C 
BRANCH  14  15
ATOM     15  C   UNL     1       1.651   2.498  18.328  0.00  0.00    +0.000 C 
BRANCH  15  16
ATOM     16  C   UNL     1       1.763   3.826  19.009  0.00  0.00    +0.000 A 
ATOM     17  N   UNL     1       2.247   4.910  18.440  0.00  0.00    +0.000 NA
ATOM     18  C   UNL     1       2.312   5.932  19.365  0.00  0.00    +0.000 A 
ATOM     19  C   UNL     1       1.849   5.626  20.626  0.00  0.00    +0.000 A 
ATOM     20  S   UNL     1       1.310   4.000  20.661  0.00  0.00    +0.000 S 
BRANCH  18  21
ATOM     21  C   UNL     1       2.885   7.300  19.018  0.00  0.00    +0.000 C 
ATOM     22  C   UNL     1       3.496   7.478  17.642  0.00  0.00    +0.000 C 
ATOM     23  C   UNL     1       2.190   8.124  17.955  0.00  0.00    +0.000 C 
ENDBRANCH  18  21
ENDBRANCH  15  16
ENDBRANCH  14  15
ENDBRANCH   1  14
TORSDOF 6
ENDMDL
MODEL 2
REMARK VINA RESULT:      -7.0      2.540      5.803
REMARK  Name = 
REMARK  6 active torsions:
REMARK  status: ('A' for Active; 'I' for Inactive)
REMARK    1  A    between atoms: C_3  and  C_4
REMARK    2  A    between atoms: C_4  and  N_5
REMARK    3  A    between atoms: N_5  and  C_6
REMARK    4  A    between atoms: C_6  and  C_7
REMARK    5  A    between atoms: C_7  and  C_8
REMARK    6  A    between atoms: C_10  and  C_11
REMARK                            x       y       z     vdW  Elec       q    Type
REMARK                         _______ _______ _______ _____ _____    ______ ____
ROOT
ATOM      1  N   UNL     1       6.359   4.526  18.824  0.00  0.00    +0.000 NA
ATOM      2  H   UNL     1       6.193   4.425  17.820  0.00  0.00    +0.000 HD
ENDROOT
BRANCH   1   3
ATOM      3  C   UNL     1       5.104   4.999  19.428  0.00  0.00    +0.000 C 
BRANCH   3   6
ATOM      4  C   UNL     1       2.628   2.880  17.400  0.00  0.00    +0.000 A 
ATOM      5  C   UNL     1       3.709   3.695  17.753  0.00  0.00    +0.000 A 
ATOM      6  C   UNL     1       3.948   4.086  19.086  0.00  0.00    +0.000 A 
ATOM      7  C   UNL     1       3.005   3.618  20.020  0.00  0.00    +0.000 A 
ATOM      8  N   UNL     1       2.916   3.814  21.376  0.00  0.00    +0.000 N 
ATOM      9  N   UNL     1       1.881   3.187  21.962  0.00  0.00    +0.000 NA
ATOM     10  C   UNL     1       1.277   2.577  20.938  0.00  0.00    +0.000 A 
ATOM     11  C   UNL     1       1.925   2.806  19.702  0.00  0.00    +0.000 A 
ATOM     12  C   UNL     1       1.726   2.422  18.367  0.00  0.00    +0.000 A 
ATOM     13  H   UNL     1       3.565   4.351  21.942  0.00  0.00    +0.000 HD
ENDBRANCH   3   6
ENDBRANCH   1   3
BRANCH   1  14
ATOM     14  C   UNL     1       7.445   5.498  19.024  0.00  0.00    +0.000 C 
BRANCH  14  15
ATOM     15  C   UNL     1       7.502   6.456  17.829  0.00  0.00    +0.000 C 
BRANCH  15  16
ATOM     16  C   UNL     1       6.774   5.907  16.641  0.00  0.00    +0.000 A 
ATOM     17  N   UNL     1       7.225   4.927  15.887  0.00  0.00    +0.000 NA
ATOM     18  C   UNL     1       6.374   4.733  14.818  0.00  0.00    +0.000 A 
ATOM     19  C   UNL     1       5.264   5.549  14.784  0.00  0.00    +0.000 A 
ATOM     20  S   UNL     1       5.281   6.599  16.137  0.00  0.00    +0.000 S 
BRANCH  18  21
ATOM     21  C   UNL     1       6.660   3.701  13.735  0.00  0.00    +0.000 C 
ATOM     22  C   UNL     1       5.614   3.509  12.654  0.00  0.00    +0.000 C 
ATOM     23  C   UNL     1       6.897   4.189  12.321  0.00  0.00    +0.000 C 
ENDBRANCH  18  21
ENDBRANCH  15  16
ENDBRANCH  14  15
ENDBRANCH   1  14
TORSDOF 6
ENDMDL
MODEL 3
REMARK VINA RESULT:      -6.8      2.631      5.976
REMARK  Name = 
REMARK  6 active torsions:
REMARK  status: ('A' for Active; 'I' for Inactive)
REMARK    1  A    between atoms: C_3  and  C_4
REMARK    2  A    between atoms: C_4  and  N_5
REMARK    3  A    between atoms: N_5  and  C_6
REMARK    4  A    between atoms: C_6  and  C_7
REMARK    5  A    between atoms: C_7  and  C_8
REMARK    6  A    between atoms: C_10  and  C_11
REMARK                            x       y       z     vdW  Elec       q    Type
REMARK                         _______ _______ _______ _____ _____    ______ ____
ROOT
ATOM      1  N   UNL     1       4.112   6.305  18.020  0.00  0.00    +0.000 NA
ATOM      2  H   UNL     1       4.400   7.270  17.841  0.00  0.00    +0.000 HD
ENDROOT
BRANCH   1   3
ATOM      3  C   UNL     1       2.864   6.359  18.795  0.00  0.00    +0.000 C 
BRANCH   3   6
ATOM      4  C   UNL     1       0.933   3.209  17.753  0.00  0.00    +0.000 A 
ATOM      5  C   UNL     1       1.589   4.445  17.716  0.00  0.00    +0.000 A 
ATOM      6  C   UNL     1       2.194   5.004  18.860  0.00  0.00    +0.000 A 
ATOM      7  C   UNL     1       2.063   4.242  20.034  0.00  0.00    +0.000 A 
ATOM      8  N   UNL     1       2.504   4.484  21.312  0.00  0.00    +0.000 N 
ATOM      9  N   UNL     1       2.216   3.511  22.195  0.00  0.00    +0.000 NA
ATOM     10  C   UNL     1       1.553   2.618  21.454  0.00  0.00    +0.000 A 
ATOM     11  C   UNL     1       1.422   3.013  20.103  0.00  0.00    +0.000 A 
ATOM     12  C   UNL     1       0.844   2.477  18.942  0.00  0.00    +0.000 A 
ATOM     13  H   UNL     1       3.033   5.297  21.614  0.00  0.00    +0.000 HD
ENDBRANCH   3   6
ENDBRANCH   1   3
BRANCH   1  14
ATOM     14  C   UNL     1       5.180   5.632  18.778  0.00  0.00    +0.000 C 
BRANCH  14  15
ATOM     15  C   UNL     1       5.483   4.272  18.140  0.00  0.00    +0.000 C 
BRANCH  15  16
ATOM     16  C   UNL     1       5.953   4.413  16.725  0.00  0.00    +0.000 A 
ATOM     17  N   UNL     1       5.582   3.621  15.742  0.00  0.00    +0.000 NA
ATOM     18  C   UNL     1       6.274   3.951  14.594  0.00  0.00    +0.000 A 
ATOM     19  C   UNL     1       7.145   5.013  14.706  0.00  0.00    +0.000 A 
ATOM     20  S   UNL     1       7.100   5.626  16.305  0.00  0.00    +0.000 S 
BRANCH  18  21
ATOM     21  C   UNL     1       6.103   3.172  13.296  0.00  0.00    +0.000 C 
ATOM     22  C   UNL     1       5.111   3.706  12.281  0.00  0.00    +0.000 C 
ATOM     23  C   UNL     1       6.572   3.811  12.006  0.00  0.00    +0.000 C 
ENDBRANCH  18  21
ENDBRANCH  15  16
ENDBRANCH  14  15
ENDBRANCH   1  14
TORSDOF 6
ENDMDL
MODEL 4
REMARK VINA RESULT:      -6.7      3.842      6.129
REMARK  Name = 
REMARK  6 active torsions:
REMARK  status: ('A' for Active; 'I' for Inactive)
REMARK    1  A    between atoms: C_3  and  C_4
REMARK    2  A    between atoms: C_4  and  N_5
REMARK    3  A    between atoms: N_5  and  C_6
REMARK    4  A    between atoms: C_6  and  C_7
REMARK    5  A    between atoms: C_7  and  C_8
REMARK    6  A    between atoms: C_10  and  C_11
REMARK                            x       y       z     vdW  Elec       q    Type
REMARK                         _______ _______ _______ _____ _____    ______ ____
ROOT
ATOM      1  N   UNL     1       3.044   7.517  18.087  0.00  0.00    +0.000 NA
ATOM      2  H   UNL     1       2.883   6.861  17.319  0.00  0.00    +0.000 HD
ENDROOT
BRANCH   1   3
ATOM      3  C   UNL     1       2.598   6.858  19.324  0.00  0.00    +0.000 C 
BRANCH   3   6
ATOM      4  C   UNL     1       1.643   3.595  17.544  0.00  0.00    +0.000 A 
ATOM      5  C   UNL     1       1.983   4.929  17.790  0.00  0.00    +0.000 A 
ATOM      6  C   UNL     1       2.269   5.401  19.087  0.00  0.00    +0.000 A 
ATOM      7  C   UNL     1       2.160   4.439  20.107  0.00  0.00    +0.000 A 
ATOM      8  N   UNL     1       2.345   4.547  21.463  0.00  0.00    +0.000 N 
ATOM      9  N   UNL     1       2.176   3.399  22.142  0.00  0.00    +0.000 NA
ATOM     10  C   UNL     1       1.857   2.525  21.183  0.00  0.00    +0.000 A 
ATOM     11  C   UNL     1       1.828   3.107  19.895  0.00  0.00    +0.000 A 
ATOM     12  C   UNL     1       1.564   2.667  18.589  0.00  0.00    +0.000 A 
ATOM     13  H   UNL     1       2.617   5.390  21.960  0.00  0.00    +0.000 HD
ENDBRANCH   3   6
ENDBRANCH   1   3
BRANCH   1  14
ATOM     14  C   UNL     1       2.268   8.740  17.826  0.00  0.00    +0.000 C 
BRANCH  14  15
ATOM     15  C   UNL     1       1.483   9.128  19.083  0.00  0.00    +0.000 C 
BRANCH  15  16
ATOM     16  C   UNL     1       0.455  10.178  18.797  0.00  0.00    +0.000 A 
ATOM     17  N   UNL     1      -0.707   9.937  18.228  0.00  0.00    +0.000 NA
ATOM     18  C   UNL     1      -1.373  11.125  18.009  0.00  0.00    +0.000 A 
ATOM     19  C   UNL     1      -0.723  12.261  18.441  0.00  0.00    +0.000 A 
ATOM     20  S   UNL     1       0.776  11.832  19.149  0.00  0.00    +0.000 S 
BRANCH  18  21
ATOM     21  C   UNL     1      -2.725  11.177  17.310  0.00  0.00    +0.000 C 
ATOM     22  C   UNL     1      -2.748  10.984  15.806  0.00  0.00    +0.000 C 
ATOM     23  C   UNL     1      -3.267   9.905  16.693  0.00  0.00    +0.000 C 
ENDBRANCH  18  21
ENDBRANCH  15  16
ENDBRANCH  14  15
ENDBRANCH   1  14
TORSDOF 6
ENDMDL
MODEL 5
REMARK VINA RESULT:      -6.7      2.145      2.979
REMARK  Name = 
REMARK  6 active torsions:
REMARK  status: ('A' for Active; 'I' for Inactive)
REMARK    1  A    between atoms: C_3  and  C_4
REMARK    2  A    between atoms: C_4  and  N_5
REMARK    3  A    between atoms: N_5  and  C_6
REMARK    4  A    between atoms: C_6  and  C_7
REMARK    5  A    between atoms: C_7  and  C_8
REMARK    6  A    between atoms: C_10  and  C_11
REMARK                            x       y       z     vdW  Elec       q    Type
REMARK                         _______ _______ _______ _____ _____    ______ ____
ROOT
ATOM      1  N   UNL     1       3.187   3.998  18.999  0.00  0.00    +0.000 NA
ATOM      2  H   UNL     1       4.044   4.435  19.344  0.00  0.00    +0.000 HD
ENDROOT
BRANCH   1   3
ATOM      3  C   UNL     1       3.321   3.868  17.540  0.00  0.00    +0.000 C 
BRANCH   3   6
ATOM      4  C   UNL     1       6.392   4.338  15.286  0.00  0.00    +0.000 A 
ATOM      5  C   UNL     1       5.099   4.048  15.734  0.00  0.00    +0.000 A 
ATOM      6  C   UNL     1       4.717   4.225  17.080  0.00  0.00    +0.000 A 
ATOM      7  C   UNL     1       5.737   4.686  17.931  0.00  0.00    +0.000 A 
ATOM      8  N   UNL     1       5.727   4.949  19.279  0.00  0.00    +0.000 N 
ATOM      9  N   UNL     1       6.895   5.405  19.766  0.00  0.00    +0.000 NA
ATOM     10  C   UNL     1       7.686   5.422  18.689  0.00  0.00    +0.000 A 
ATOM     11  C   UNL     1       7.028   4.985  17.516  0.00  0.00    +0.000 A 
ATOM     12  C   UNL     1       7.371   4.812  16.166  0.00  0.00    +0.000 A 
ATOM     13  H   UNL     1       4.927   4.854  19.897  0.00  0.00    +0.000 HD
ENDBRANCH   3   6
ENDBRANCH   1   3
BRANCH   1  14
ATOM     14  C   UNL     1       2.047   4.858  19.354  0.00  0.00    +0.000 C 
BRANCH  14  15
ATOM     15  C   UNL     1       2.546   6.064  20.157  0.00  0.00    +0.000 C 
BRANCH  15  16
ATOM     16  C   UNL     1       2.284   7.355  19.446  0.00  0.00    +0.000 A 
ATOM     17  N   UNL     1       1.500   8.305  19.907  0.00  0.00    +0.000 NA
ATOM     18  C   UNL     1       1.387   9.311  18.968  0.00  0.00    +0.000 A 
ATOM     19  C   UNL     1       2.112   9.130  17.810  0.00  0.00    +0.000 A 
ATOM     20  S   UNL     1       2.969   7.650  17.895  0.00  0.00    +0.000 S 
BRANCH  18  21
ATOM     21  C   UNL     1       0.497  10.527  19.189  0.00  0.00    +0.000 C 
ATOM     22  C   UNL     1      -0.976  10.391  18.854  0.00  0.00    +0.000 C 
ATOM     23  C   UNL     1      -0.551  10.464  20.280  0.00  0.00    +0.000 C 
ENDBRANCH  18  21
ENDBRANCH  15  16
ENDBRANCH  14  15
ENDBRANCH   1  14
TORSDOF 6
ENDMDL
MODEL 6
REMARK VINA RESULT:      -6.7      2.240      5.977
REMARK  Name = 
REMARK  6 active torsions:
REMARK  status: ('A' for Active; 'I' for Inactive)
REMARK    1  A    between atoms: C_3  and  C_4
REMARK    2  A    between atoms: C_4  and  N_5
REMARK    3  A    between atoms: N_5  and  C_6
REMARK    4  A    between atoms: C_6  and  C_7
REMARK    5  A    between atoms: C_7  and  C_8
REMARK    6  A    between atoms: C_10  and  C_11
REMARK                            x       y       z     vdW  Elec       q    Type
REMARK                         _______ _______ _______ _____ _____    ______ ____
ROOT
ATOM      1  N   UNL     1       6.210   4.549  18.923  0.00  0.00    +0.000 NA
ATOM      2  H   UNL     1       5.888   4.230  18.006  0.00  0.00    +0.000 HD
ENDROOT
BRANCH   1   3
ATOM      3  C   UNL     1       5.211   5.503  19.428  0.00  0.00    +0.000 C 
BRANCH   3   6
ATOM      4  C   UNL     1       1.566   4.906  20.471  0.00  0.00    +0.000 A 
ATOM      5  C   UNL     1       2.822   5.495  20.292  0.00  0.00    +0.000 A 
ATOM      6  C   UNL     1       3.852   4.855  19.572  0.00  0.00    +0.000 A 
ATOM      7  C   UNL     1       3.526   3.580  19.077  0.00  0.00    +0.000 A 
ATOM      8  N   UNL     1       4.276   2.680  18.360  0.00  0.00    +0.000 N 
ATOM      9  N   UNL     1       3.626   1.551  18.029  0.00  0.00    +0.000 NA
ATOM     10  C   UNL     1       2.416   1.730  18.568  0.00  0.00    +0.000 A 
ATOM     11  C   UNL     1       2.289   2.970  19.234  0.00  0.00    +0.000 A 
ATOM     12  C   UNL     1       1.281   3.642  19.944  0.00  0.00    +0.000 A 
ATOM     13  H   UNL     1       5.234   2.817  18.053  0.00  0.00    +0.000 HD
ENDBRANCH   3   6
ENDBRANCH   1   3
BRANCH   1  14
ATOM     14  C   UNL     1       7.524   5.191  18.760  0.00  0.00    +0.000 C 
BRANCH  14  15
ATOM     15  C   UNL     1       7.453   6.225  17.631  0.00  0.00    +0.000 C 
BRANCH  15  16
ATOM     16  C   UNL     1       6.723   5.696  16.436  0.00  0.00    +0.000 A 
ATOM     17  N   UNL     1       7.168   4.722  15.670  0.00  0.00    +0.000 NA
ATOM     18  C   UNL     1       6.315   4.547  14.599  0.00  0.00    +0.000 A 
ATOM     19  C   UNL     1       5.210   5.370  14.575  0.00  0.00    +0.000 A 
ATOM     20  S   UNL     1       5.233   6.402  15.941  0.00  0.00    +0.000 S 
BRANCH  18  21
ATOM     21  C   UNL     1       6.595   3.528  13.502  0.00  0.00    +0.000 C 
ATOM     22  C   UNL     1       5.619   3.456  12.344  0.00  0.00    +0.000 C 
ATOM     23  C   UNL     1       6.974   4.035  12.127  0.00  0.00    +0.000 C 
ENDBRANCH  18  21
ENDBRANCH  15  16
ENDBRANCH  14  15
ENDBRANCH   1  14
TORSDOF 6
ENDMDL
MODEL 7
REMARK VINA RESULT:      -6.6      3.466      6.782
REMARK  Name = 
REMARK  6 active torsions:
REMARK  status: ('A' for Active; 'I' for Inactive)
REMARK    1  A    between atoms: C_3  and  C_4
REMARK    2  A    between atoms: C_4  and  N_5
REMARK    3  A    between atoms: N_5  and  C_6
REMARK    4  A    between atoms: C_6  and  C_7
REMARK    5  A    between atoms: C_7  and  C_8
REMARK    6  A    between atoms: C_10  and  C_11
REMARK                            x       y       z     vdW  Elec       q    Type
REMARK                         _______ _______ _______ _____ _____    ______ ____
ROOT
ATOM      1  N   UNL     1       1.811   6.789  20.717  0.00  0.00    +0.000 NA
ATOM      2  H   UNL     1       0.863   6.913  21.080  0.00  0.00    +0.000 HD
ENDROOT
BRANCH   1   3
ATOM      3  C   UNL     1       2.109   7.952  19.868  0.00  0.00    +0.000 C 
BRANCH   3   6
ATOM      4  C   UNL     1      -0.396  10.734  19.018  0.00  0.00    +0.000 A 
ATOM      5  C   UNL     1       0.546   9.706  18.901  0.00  0.00    +0.000 A 
ATOM      6  C   UNL     1       1.064   9.034  20.027  0.00  0.00    +0.000 A 
ATOM      7  C   UNL     1       0.583   9.494  21.266  0.00  0.00    +0.000 A 
ATOM      8  N   UNL     1       0.877   9.091  22.545  0.00  0.00    +0.000 N 
ATOM      9  N   UNL     1       0.201   9.747  23.505  0.00  0.00    +0.000 NA
ATOM     10  C   UNL     1      -0.544  10.613  22.813  0.00  0.00    +0.000 A 
ATOM     11  C   UNL     1      -0.354  10.508  21.415  0.00  0.00    +0.000 A 
ATOM     12  C   UNL     1      -0.860  11.146  20.272  0.00  0.00    +0.000 A 
ATOM     13  H   UNL     1       1.519   8.347  22.801  0.00  0.00    +0.000 HD
ENDBRANCH   3   6
ENDBRANCH   1   3
BRANCH   1  14
ATOM     14  C   UNL     1       1.855   5.539  19.942  0.00  0.00    +0.000 C 
BRANCH  14  15
ATOM     15  C   UNL     1       3.083   4.721  20.357  0.00  0.00    +0.000 C 
BRANCH  15  16
ATOM     16  C   UNL     1       4.077   4.606  19.244  0.00  0.00    +0.000 A 
ATOM     17  N   UNL     1       5.273   5.154  19.263  0.00  0.00    +0.000 NA
ATOM     18  C   UNL     1       5.896   4.951  18.048  0.00  0.00    +0.000 A 
ATOM     19  C   UNL     1       5.180   4.222  17.124  0.00  0.00    +0.000 A 
ATOM     20  S   UNL     1       3.670   3.771  17.795  0.00  0.00    +0.000 S 
BRANCH  18  21
ATOM     21  C   UNL     1       7.276   5.520  17.743  0.00  0.00    +0.000 C 
ATOM     22  C   UNL     1       7.380   7.010  17.480  0.00  0.00    +0.000 C 
ATOM     23  C   UNL     1       7.912   6.450  18.754  0.00  0.00    +0.000 C 
ENDBRANCH  18  21
ENDBRANCH  15  16
ENDBRANCH  14  15
ENDBRANCH   1  14
TORSDOF 6
ENDMDL
MODEL 8
REMARK VINA RESULT:      -6.6      2.334      3.166
REMARK  Name = 
REMARK  6 active torsions:
REMARK  status: ('A' for Active; 'I' for Inactive)
REMARK    1  A    between atoms: C_3  and  C_4
REMARK    2  A    between atoms: C_4  and  N_5
REMARK    3  A    between atoms: N_5  and  C_6
REMARK    4  A    between atoms: C_6  and  C_7
REMARK    5  A    between atoms: C_7  and  C_8
REMARK    6  A    between atoms: C_10  and  C_11
REMARK                            x       y       z     vdW  Elec       q    Type
REMARK                         _______ _______ _______ _____ _____    ______ ____
ROOT
ATOM      1  N   UNL     1       2.952   4.460  18.846  0.00  0.00    +0.000 NA
ATOM      2  H   UNL     1       3.757   4.706  19.426  0.00  0.00    +0.000 HD
ENDROOT
BRANCH   1   3
ATOM      3  C   UNL     1       3.448   3.629  17.739  0.00  0.00    +0.000 C 
BRANCH   3   6
ATOM      4  C   UNL     1       6.181   4.655  15.247  0.00  0.00    +0.000 A 
ATOM      5  C   UNL     1       4.978   4.192  15.791  0.00  0.00    +0.000 A 
ATOM      6  C   UNL     1       4.746   4.169  17.182  0.00  0.00    +0.000 A 
ATOM      7  C   UNL     1       5.821   4.618  17.971  0.00  0.00    +0.000 A 
ATOM      8  N   UNL     1       5.951   4.714  19.334  0.00  0.00    +0.000 N 
ATOM      9  N   UNL     1       7.128   5.216  19.748  0.00  0.00    +0.000 NA
ATOM     10  C   UNL     1       7.781   5.437  18.603  0.00  0.00    +0.000 A 
ATOM     11  C   UNL     1       7.025   5.085  17.462  0.00  0.00    +0.000 A 
ATOM     12  C   UNL     1       7.217   5.109  16.071  0.00  0.00    +0.000 A 
ATOM     13  H   UNL     1       5.240   4.470  20.017  0.00  0.00    +0.000 HD
ENDBRANCH   3   6
ENDBRANCH   1   3
BRANCH   1  14
ATOM     14  C   UNL     1       2.340   5.702  18.346  0.00  0.00    +0.000 C 
BRANCH  14  15
ATOM     15  C   UNL     1       2.975   6.906  19.049  0.00  0.00    +0.000 C 
BRANCH  15  16
ATOM     16  C   UNL     1       1.953   7.931  19.430  0.00  0.00    +0.000 A 
ATOM     17  N   UNL     1       1.433   8.802  18.591  0.00  0.00    +0.000 NA
ATOM     18  C   UNL     1       0.608   9.671  19.276  0.00  0.00    +0.000 A 
ATOM     19  C   UNL     1       0.482   9.435  20.627  0.00  0.00    +0.000 A 
ATOM     20  S   UNL     1       1.430   8.076  21.063  0.00  0.00    +0.000 S 
BRANCH  18  21
ATOM     21  C   UNL     1      -0.097  10.830  18.583  0.00  0.00    +0.000 C 
ATOM     22  C   UNL     1      -1.286  10.505  17.701  0.00  0.00    +0.000 C 
ATOM     23  C   UNL     1      -1.507  11.176  19.012  0.00  0.00    +0.000 C 
ENDBRANCH  18  21
ENDBRANCH  15  16
ENDBRANCH  14  15
ENDBRANCH   1  14
TORSDOF 6
ENDMDL
MODEL 9
REMARK VINA RESULT:      -6.6      0.996      1.109
REMARK  Name = 
REMARK  6 active torsions:
REMARK  status: ('A' for Active; 'I' for Inactive)
REMARK    1  A    between atoms: C_3  and  C_4
REMARK    2  A    between atoms: C_4  and  N_5
REMARK    3  A    between atoms: N_5  and  C_6
REMARK    4  A    between atoms: C_6  and  C_7
REMARK    5  A    between atoms: C_7  and  C_8
REMARK    6  A    between atoms: C_10  and  C_11
REMARK                            x       y       z     vdW  Elec       q    Type
REMARK                         _______ _______ _______ _____ _____    ______ ____
ROOT
ATOM      1  N   UNL     1       4.248   2.773  18.396  0.00  0.00    +0.000 NA
ATOM      2  H   UNL     1       3.927   3.652  18.809  0.00  0.00    +0.000 HD
ENDROOT
BRANCH   1   3
ATOM      3  C   UNL     1       4.685   3.071  17.024  0.00  0.00    +0.000 C 
BRANCH   3   6
ATOM      4  C   UNL     1       5.523   6.590  15.741  0.00  0.00    +0.000 A 
ATOM      5  C   UNL     1       4.947   5.322  15.877  0.00  0.00    +0.000 A 
ATOM      6  C   UNL     1       5.300   4.449  16.926  0.00  0.00    +0.000 A 
ATOM      7  C   UNL     1       6.288   4.939  17.800  0.00  0.00    +0.000 A 
ATOM      8  N   UNL     1       6.874   4.363  18.899  0.00  0.00    +0.000 N 
ATOM      9  N   UNL     1       7.779   5.141  19.519  0.00  0.00    +0.000 NA
ATOM     10  C   UNL     1       7.780   6.253  18.779  0.00  0.00    +0.000 A 
ATOM     11  C   UNL     1       6.876   6.192  17.693  0.00  0.00    +0.000 A 
ATOM     12  C   UNL     1       6.490   7.042  16.646  0.00  0.00    +0.000 A 
ATOM     13  H   UNL     1       6.660   3.444  19.274  0.00  0.00    +0.000 HD
ENDBRANCH   3   6
ENDBRANCH   1   3
BRANCH   1  14
ATOM     14  C   UNL     1       3.129   1.817  18.403  0.00  0.00    +0.000 C 
BRANCH  14  15
ATOM     15  C   UNL     1       2.014   2.340  19.315  0.00  0.00    +0.000 C 
BRANCH  15  16
ATOM     16  C   UNL     1       2.013   3.835  19.392  0.00  0.00    +0.000 A 
ATOM     17  N   UNL     1       1.951   4.629  18.344  0.00  0.00    +0.000 NA
ATOM     18  C   UNL     1       2.079   5.942  18.747  0.00  0.00    +0.000 A 
ATOM     19  C   UNL     1       2.206   6.140  20.105  0.00  0.00    +0.000 A 
ATOM     20  S   UNL     1       2.165   4.630  20.911  0.00  0.00    +0.000 S 
BRANCH  18  21
ATOM     21  C   UNL     1       2.103   7.095  17.751  0.00  0.00    +0.000 C 
ATOM     22  C   UNL     1       1.804   8.485  18.277  0.00  0.00    +0.000 C 
ATOM     23  C   UNL     1       3.196   8.135  17.879  0.00  0.00    +0.000 C 
ENDBRANCH  18  21
ENDBRANCH  15  16
ENDBRANCH  14  15
ENDBRANCH   1  14
TORSDOF 6
ENDMDL
