MODEL 1
REMARK VINA RESULT:      -8.7      0.000      0.000
REMARK  Name = 
REMARK  12 active torsions:
REMARK  status: ('A' for Active; 'I' for Inactive)
REMARK    1  A    between atoms: C_1  and  O_2
REMARK    2  A    between atoms: O_2  and  C_3
REMARK    3  A    between atoms: C_5  and  C_6
REMARK    4  A    between atoms: C_7  and  O_8
REMARK    5  A    between atoms: C_12  and  C_13
REMARK    6  A    between atoms: C_13  and  O_14
REMARK    7  A    between atoms: C_13  and  C_15
REMARK    8  A    between atoms: C_18  and  O_19
REMARK    9  A    between atoms: O_19  and  C_20
REMARK   10  A    between atoms: C_21  and  O_22
REMARK   11  A    between atoms: O_22  and  C_23
REMARK   12  A    between atoms: C_27  and  O_28
REMARK                            x       y       z     vdW  Elec       q    Type
REMARK                         _______ _______ _______ _____ _____    ______ ____
ROOT
ATOM      1  C   UNL     1       2.956   5.232  18.513  0.00  0.00    +0.000 C 
ATOM      2  C   UNL     1       1.829   4.257  18.277  0.00  0.00    +0.000 C 
ATOM      3  C   UNL     1       1.674   3.316  19.204  0.00  0.00    +0.000 C 
ATOM      4  C   UNL     1       2.721   3.574  20.194  0.00  0.00    +0.000 C 
ATOM      5  O   UNL     1       2.753   2.981  21.261  0.00  0.00    +0.000 OA
ATOM      6  C   UNL     1       3.679   4.661  19.761  0.00  0.00    +0.000 C 
ENDROOT
BRANCH   1   9
ATOM      7  C   UNL     1       1.520   8.386  20.182  0.00  0.00    +0.000 A 
ATOM      8  C   UNL     1       1.985   7.078  19.977  0.00  0.00    +0.000 A 
ATOM      9  C   UNL     1       2.462   6.651  18.724  0.00  0.00    +0.000 A 
ATOM     10  C   UNL     1       2.467   7.561  17.664  0.00  0.00    +0.000 A 
ATOM     11  C   UNL     1       1.994   8.861  17.851  0.00  0.00    +0.000 A 
ATOM     12  C   UNL     1       1.517   9.267  19.105  0.00  0.00    +0.000 A 
BRANCH   7  14
ATOM     13  C   UNL     1      -0.274   8.587  21.746  0.00  0.00    +0.000 C 
ATOM     14  O   UNL     1       1.115   8.600  21.472  0.00  0.00    +0.000 OA
ENDBRANCH   7  14
BRANCH  12  15
ATOM     15  O   UNL     1       1.061  10.550  19.232  0.00  0.00    +0.000 OA
ATOM     16  H   UNL     1       0.508  10.775  18.467  0.00  0.00    +0.000 HD
ENDBRANCH  12  15
ENDBRANCH   1   9
BRANCH   2  17
ATOM     17  O   UNL     1       1.009   4.371  17.183  0.00  0.00    +0.000 OA
ATOM     18  H   UNL     1       1.324   5.111  16.633  0.00  0.00    +0.000 HD
ENDBRANCH   2  17
BRANCH   6  19
ATOM     19  C   UNL     1       5.072   4.134  19.401  0.00  0.00    +0.000 C 
BRANCH  19  20
ATOM     20  C   UNL     1       5.646   4.507  18.050  0.00  0.00    +0.000 A 
ATOM     21  C   UNL     1       5.362   3.697  16.946  0.00  0.00    +0.000 A 
ATOM     22  C   UNL     1       5.938   3.952  15.698  0.00  0.00    +0.000 A 
ATOM     23  C   UNL     1       6.789   5.049  15.502  0.00  0.00    +0.000 A 
ATOM     24  C   UNL     1       7.028   5.914  16.584  0.00  0.00    +0.000 A 
ATOM     25  C   UNL     1       6.454   5.631  17.839  0.00  0.00    +0.000 A 
BRANCH  23  26
ATOM     26  O   UNL     1       7.393   5.312  14.302  0.00  0.00    +0.000 OA
ATOM     27  C   UNL     1       7.021   4.531  13.174  0.00  0.00    +0.000 C 
ENDBRANCH  23  26
BRANCH  24  28
ATOM     28  O   UNL     1       7.782   7.060  16.614  0.00  0.00    +0.000 OA
ATOM     29  C   UNL     1       7.743   7.879  17.771  0.00  0.00    +0.000 C 
ENDBRANCH  24  28
ENDBRANCH  19  20
BRANCH  19  30
ATOM     30  O   UNL     1       5.034   2.702  19.479  0.00  0.00    +0.000 OA
ATOM     31  H   UNL     1       5.831   2.420  19.966  0.00  0.00    +0.000 HD
ENDBRANCH  19  30
ENDBRANCH   6  19
TORSDOF 9
ENDMDL
MODEL 2
REMARK VINA RESULT:      -8.3      0.707      1.631
REMARK  Name = 
REMARK  12 active torsions:
REMARK  status: ('A' for Active; 'I' for Inactive)
REMARK    1  A    between atoms: C_1  and  O_2
REMARK    2  A    between atoms: O_2  and  C_3
REMARK    3  A    between atoms: C_5  and  C_6
REMARK    4  A    between atoms: C_7  and  O_8
REMARK    5  A    between atoms: C_12  and  C_13
REMARK    6  A    between atoms: C_13  and  O_14
REMARK    7  A    between atoms: C_13  and  C_15
REMARK    8  A    between atoms: C_18  and  O_19
REMARK    9  A    between atoms: O_19  and  C_20
REMARK   10  A    between atoms: C_21  and  O_22
REMARK   11  A    between atoms: O_22  and  C_23
REMARK   12  A    between atoms: C_27  and  O_28
REMARK                            x       y       z     vdW  Elec       q    Type
REMARK                         _______ _______ _______ _____ _____    ______ ____
ROOT
ATOM      1  C   UNL     1       2.880   5.167  18.678  0.00  0.00    +0.000 C 
ATOM      2  C   UNL     1       1.795   4.195  18.287  0.00  0.00    +0.000 C 
ATOM      3  C   UNL     1       1.675   3.119  19.060  0.00  0.00    +0.000 C 
ATOM      4  C   UNL     1       2.707   3.268  20.089  0.00  0.00    +0.000 C 
ATOM      5  O   UNL     1       2.758   2.523  21.055  0.00  0.00    +0.000 OA
ATOM      6  C   UNL     1       3.621   4.445  19.833  0.00  0.00    +0.000 C 
ENDROOT
BRANCH   1   9
ATOM      7  C   UNL     1       1.794   8.855  18.570  0.00  0.00    +0.000 A 
ATOM      8  C   UNL     1       2.298   7.601  18.196  0.00  0.00    +0.000 A 
ATOM      9  C   UNL     1       2.326   6.517  19.094  0.00  0.00    +0.000 A 
ATOM     10  C   UNL     1       1.838   6.709  20.388  0.00  0.00    +0.000 A 
ATOM     11  C   UNL     1       1.348   7.956  20.778  0.00  0.00    +0.000 A 
ATOM     12  C   UNL     1       1.332   9.025  19.872  0.00  0.00    +0.000 A 
BRANCH   7  14
ATOM     13  C   UNL     1       2.451  11.019  17.799  0.00  0.00    +0.000 C 
ATOM     14  O   UNL     1       1.844   9.765  17.548  0.00  0.00    +0.000 OA
ENDBRANCH   7  14
BRANCH  12  15
ATOM     15  O   UNL     1       0.846  10.227  20.307  0.00  0.00    +0.000 OA
ATOM     16  H   UNL     1       1.292  10.479  21.130  0.00  0.00    +0.000 HD
ENDBRANCH  12  15
ENDBRANCH   1   9
BRANCH   2  17
ATOM     17  O   UNL     1       0.976   4.438  17.213  0.00  0.00    +0.000 OA
ATOM     18  H   UNL     1       1.123   3.745  16.545  0.00  0.00    +0.000 HD
ENDBRANCH   2  17
BRANCH   6  19
ATOM     19  C   UNL     1       5.035   4.035  19.413  0.00  0.00    +0.000 C 
BRANCH  19  20
ATOM     20  C   UNL     1       5.513   4.440  18.035  0.00  0.00    +0.000 A 
ATOM     21  C   UNL     1       5.073   3.714  16.924  0.00  0.00    +0.000 A 
ATOM     22  C   UNL     1       5.553   3.997  15.642  0.00  0.00    +0.000 A 
ATOM     23  C   UNL     1       6.462   5.041  15.421  0.00  0.00    +0.000 A 
ATOM     24  C   UNL     1       6.860   5.826  16.516  0.00  0.00    +0.000 A 
ATOM     25  C   UNL     1       6.380   5.516  17.804  0.00  0.00    +0.000 A 
BRANCH  23  26
ATOM     26  O   UNL     1       6.975   5.326  14.184  0.00  0.00    +0.000 OA
ATOM     27  C   UNL     1       6.850   4.349  13.160  0.00  0.00    +0.000 C 
ENDBRANCH  23  26
BRANCH  24  28
ATOM     28  O   UNL     1       7.696   6.914  16.531  0.00  0.00    +0.000 OA
ATOM     29  C   UNL     1       7.697   7.765  17.666  0.00  0.00    +0.000 C 
ENDBRANCH  24  28
ENDBRANCH  19  20
BRANCH  19  30
ATOM     30  O   UNL     1       5.124   2.606  19.503  0.00  0.00    +0.000 OA
ATOM     31  H   UNL     1       5.415   2.393  20.409  0.00  0.00    +0.000 HD
ENDBRANCH  19  30
ENDBRANCH   6  19
TORSDOF 9
ENDMDL
MODEL 3
REMARK VINA RESULT:      -8.3      1.293      6.604
REMARK  Name = 
REMARK  12 active torsions:
REMARK  status: ('A' for Active; 'I' for Inactive)
REMARK    1  A    between atoms: C_1  and  O_2
REMARK    2  A    between atoms: O_2  and  C_3
REMARK    3  A    between atoms: C_5  and  C_6
REMARK    4  A    between atoms: C_7  and  O_8
REMARK    5  A    between atoms: C_12  and  C_13
REMARK    6  A    between atoms: C_13  and  O_14
REMARK    7  A    between atoms: C_13  and  C_15
REMARK    8  A    between atoms: C_18  and  O_19
REMARK    9  A    between atoms: O_19  and  C_20
REMARK   10  A    between atoms: C_21  and  O_22
REMARK   11  A    between atoms: O_22  and  C_23
REMARK   12  A    between atoms: C_27  and  O_28
REMARK                            x       y       z     vdW  Elec       q    Type
REMARK                         _______ _______ _______ _____ _____    ______ ____
ROOT
ATOM      1  C   UNL     1       4.069   4.240  18.151  0.00  0.00    +0.000 C 
ATOM      2  C   UNL     1       3.531   2.832  18.088  0.00  0.00    +0.000 C 
ATOM      3  C   UNL     1       2.235   2.719  17.806  0.00  0.00    +0.000 C 
ATOM      4  C   UNL     1       1.755   4.093  17.646  0.00  0.00    +0.000 C 
ATOM      5  O   UNL     1       0.636   4.333  17.222  0.00  0.00    +0.000 OA
ATOM      6  C   UNL     1       2.802   5.123  18.005  0.00  0.00    +0.000 C 
ENDROOT
BRANCH   1   9
ATOM      7  C   UNL     1       6.988   5.831  16.218  0.00  0.00    +0.000 A 
ATOM      8  C   UNL     1       6.033   5.562  17.210  0.00  0.00    +0.000 A 
ATOM      9  C   UNL     1       5.101   4.516  17.074  0.00  0.00    +0.000 A 
ATOM     10  C   UNL     1       5.136   3.734  15.918  0.00  0.00    +0.000 A 
ATOM     11  C   UNL     1       6.072   4.001  14.917  0.00  0.00    +0.000 A 
ATOM     12  C   UNL     1       6.990   5.049  15.067  0.00  0.00    +0.000 A 
BRANCH   7  14
ATOM     13  C   UNL     1       7.606   7.509  17.803  0.00  0.00    +0.000 C 
ATOM     14  O   UNL     1       7.806   6.877  16.551  0.00  0.00    +0.000 OA
ENDBRANCH   7  14
BRANCH  12  15
ATOM     15  O   UNL     1       7.882   5.270  14.054  0.00  0.00    +0.000 OA
ATOM     16  H   UNL     1       7.444   5.754  13.336  0.00  0.00    +0.000 HD
ENDBRANCH  12  15
ENDBRANCH   1   9
BRANCH   2  17
ATOM     17  O   UNL     1       4.351   1.749  18.283  0.00  0.00    +0.000 OA
ATOM     18  H   UNL     1       4.906   1.915  19.067  0.00  0.00    +0.000 HD
ENDBRANCH   2  17
BRANCH   6  19
ATOM     19  C   UNL     1       2.495   5.872  19.306  0.00  0.00    +0.000 C 
BRANCH  19  20
ATOM     20  C   UNL     1       2.032   7.310  19.206  0.00  0.00    +0.000 A 
ATOM     21  C   UNL     1       2.170   7.984  17.988  0.00  0.00    +0.000 A 
ATOM     22  C   UNL     1       1.836   9.336  17.871  0.00  0.00    +0.000 A 
ATOM     23  C   UNL     1       1.317  10.052  18.959  0.00  0.00    +0.000 A 
ATOM     24  C   UNL     1       1.105   9.372  20.170  0.00  0.00    +0.000 A 
ATOM     25  C   UNL     1       1.464   8.014  20.276  0.00  0.00    +0.000 A 
BRANCH  23  26
ATOM     26  O   UNL     1       1.007  11.384  18.888  0.00  0.00    +0.000 OA
ATOM     27  C   UNL     1      -0.338  11.750  18.608  0.00  0.00    +0.000 C 
ENDBRANCH  23  26
BRANCH  24  28
ATOM     28  O   UNL     1       0.573   9.852  21.340  0.00  0.00    +0.000 OA
ATOM     29  C   UNL     1       0.935   9.234  22.565  0.00  0.00    +0.000 C 
ENDBRANCH  24  28
ENDBRANCH  19  20
BRANCH  19  30
ATOM     30  O   UNL     1       3.679   5.850  20.116  0.00  0.00    +0.000 OA
ATOM     31  H   UNL     1       3.481   5.303  20.899  0.00  0.00    +0.000 HD
ENDBRANCH  19  30
ENDBRANCH   6  19
TORSDOF 9
ENDMDL
MODEL 4
REMARK VINA RESULT:      -8.2      1.158      6.416
REMARK  Name = 
REMARK  12 active torsions:
REMARK  status: ('A' for Active; 'I' for Inactive)
REMARK    1  A    between atoms: C_1  and  O_2
REMARK    2  A    between atoms: O_2  and  C_3
REMARK    3  A    between atoms: C_5  and  C_6
REMARK    4  A    between atoms: C_7  and  O_8
REMARK    5  A    between atoms: C_12  and  C_13
REMARK    6  A    between atoms: C_13  and  O_14
REMARK    7  A    between atoms: C_13  and  C_15
REMARK    8  A    between atoms: C_18  and  O_19
REMARK    9  A    between atoms: O_19  and  C_20
REMARK   10  A    between atoms: C_21  and  O_22
REMARK   11  A    between atoms: O_22  and  C_23
REMARK   12  A    between atoms: C_27  and  O_28
REMARK                            x       y       z     vdW  Elec       q    Type
REMARK                         _______ _______ _______ _____ _____    ______ ____
ROOT
ATOM      1  C   UNL     1       4.072   4.079  19.269  0.00  0.00    +0.000 C 
ATOM      2  C   UNL     1       4.005   2.583  19.449  0.00  0.00    +0.000 C 
ATOM      3  C   UNL     1       2.839   2.016  19.150  0.00  0.00    +0.000 C 
ATOM      4  C   UNL     1       1.973   3.117  18.723  0.00  0.00    +0.000 C 
ATOM      5  O   UNL     1       0.877   2.912  18.226  0.00  0.00    +0.000 OA
ATOM      6  C   UNL     1       2.613   4.473  18.921  0.00  0.00    +0.000 C 
ENDROOT
BRANCH   1   9
ATOM      7  C   UNL     1       6.983   5.831  17.467  0.00  0.00    +0.000 A 
ATOM      8  C   UNL     1       6.068   5.438  18.454  0.00  0.00    +0.000 A 
ATOM      9  C   UNL     1       5.060   4.491  18.193  0.00  0.00    +0.000 A 
ATOM     10  C   UNL     1       4.978   3.937  16.914  0.00  0.00    +0.000 A 
ATOM     11  C   UNL     1       5.873   4.331  15.918  0.00  0.00    +0.000 A 
ATOM     12  C   UNL     1       6.868   5.278  16.195  0.00  0.00    +0.000 A 
BRANCH   7  14
ATOM     13  C   UNL     1       7.690   8.110  17.595  0.00  0.00    +0.000 C 
ATOM     14  O   UNL     1       7.889   6.748  17.929  0.00  0.00    +0.000 OA
ENDBRANCH   7  14
BRANCH  12  15
ATOM     15  O   UNL     1       7.716   5.631  15.182  0.00  0.00    +0.000 OA
ATOM     16  H   UNL     1       7.908   4.855  14.634  0.00  0.00    +0.000 HD
ENDBRANCH  12  15
ENDBRANCH   1   9
BRANCH   2  17
ATOM     17  O   UNL     1       5.099   1.868  19.867  0.00  0.00    +0.000 OA
ATOM     18  H   UNL     1       5.881   2.177  19.374  0.00  0.00    +0.000 HD
ENDBRANCH   2  17
BRANCH   6  19
ATOM     19  C   UNL     1       1.974   5.286  20.051  0.00  0.00    +0.000 C 
BRANCH  19  20
ATOM     20  C   UNL     1       1.756   6.768  19.824  0.00  0.00    +0.000 A 
ATOM     21  C   UNL     1       2.023   7.307  18.562  0.00  0.00    +0.000 A 
ATOM     22  C   UNL     1       1.918   8.682  18.329  0.00  0.00    +0.000 A 
ATOM     23  C   UNL     1       1.507   9.561  19.341  0.00  0.00    +0.000 A 
ATOM     24  C   UNL     1       1.166   9.026  20.595  0.00  0.00    +0.000 A 
ATOM     25  C   UNL     1       1.294   7.641  20.818  0.00  0.00    +0.000 A 
BRANCH  23  26
ATOM     26  O   UNL     1       1.422  10.914  19.156  0.00  0.00    +0.000 OA
ATOM     27  C   UNL     1       0.172  11.465  18.765  0.00  0.00    +0.000 C 
ENDBRANCH  23  26
BRANCH  24  28
ATOM     28  O   UNL     1       0.702   9.681  21.708  0.00  0.00    +0.000 OA
ATOM     29  C   UNL     1      -0.380   9.121  22.435  0.00  0.00    +0.000 C 
ENDBRANCH  24  28
ENDBRANCH  19  20
BRANCH  19  30
ATOM     30  O   UNL     1       2.795   5.140  21.217  0.00  0.00    +0.000 OA
ATOM     31  H   UNL     1       2.467   4.361  21.703  0.00  0.00    +0.000 HD
ENDBRANCH  19  30
ENDBRANCH   6  19
TORSDOF 9
ENDMDL
MODEL 5
REMARK VINA RESULT:      -7.9      1.410      6.915
REMARK  Name = 
REMARK  12 active torsions:
REMARK  status: ('A' for Active; 'I' for Inactive)
REMARK    1  A    between atoms: C_1  and  O_2
REMARK    2  A    between atoms: O_2  and  C_3
REMARK    3  A    between atoms: C_5  and  C_6
REMARK    4  A    between atoms: C_7  and  O_8
REMARK    5  A    between atoms: C_12  and  C_13
REMARK    6  A    between atoms: C_13  and  O_14
REMARK    7  A    between atoms: C_13  and  C_15
REMARK    8  A    between atoms: C_18  and  O_19
REMARK    9  A    between atoms: O_19  and  C_20
REMARK   10  A    between atoms: C_21  and  O_22
REMARK   11  A    between atoms: O_22  and  C_23
REMARK   12  A    between atoms: C_27  and  O_28
REMARK                            x       y       z     vdW  Elec       q    Type
REMARK                         _______ _______ _______ _____ _____    ______ ____
ROOT
ATOM      1  C   UNL     1       4.052   4.129  18.221  0.00  0.00    +0.000 C 
ATOM      2  C   UNL     1       3.523   2.721  18.113  0.00  0.00    +0.000 C 
ATOM      3  C   UNL     1       2.235   2.608  17.799  0.00  0.00    +0.000 C 
ATOM      4  C   UNL     1       1.751   3.984  17.660  0.00  0.00    +0.000 C 
ATOM      5  O   UNL     1       0.640   4.228  17.217  0.00  0.00    +0.000 OA
ATOM      6  C   UNL     1       2.785   5.010  18.067  0.00  0.00    +0.000 C 
ENDROOT
BRANCH   1   9
ATOM      7  C   UNL     1       5.821   4.512  14.828  0.00  0.00    +0.000 A 
ATOM      8  C   UNL     1       4.852   4.238  15.804  0.00  0.00    +0.000 A 
ATOM      9  C   UNL     1       5.106   4.436  17.175  0.00  0.00    +0.000 A 
ATOM     10  C   UNL     1       6.359   4.916  17.560  0.00  0.00    +0.000 A 
ATOM     11  C   UNL     1       7.338   5.179  16.599  0.00  0.00    +0.000 A 
ATOM     12  C   UNL     1       7.069   4.971  15.239  0.00  0.00    +0.000 A 
BRANCH   7  14
ATOM     13  C   UNL     1       6.116   3.381  12.744  0.00  0.00    +0.000 C 
ATOM     14  O   UNL     1       5.369   4.266  13.559  0.00  0.00    +0.000 OA
ENDBRANCH   7  14
BRANCH  12  15
ATOM     15  O   UNL     1       8.064   5.240  14.341  0.00  0.00    +0.000 OA
ATOM     16  H   UNL     1       8.278   4.435  13.844  0.00  0.00    +0.000 HD
ENDBRANCH  12  15
ENDBRANCH   1   9
BRANCH   2  17
ATOM     17  O   UNL     1       4.344   1.637  18.301  0.00  0.00    +0.000 OA
ATOM     18  H   UNL     1       3.937   1.049  18.962  0.00  0.00    +0.000 HD
ENDBRANCH   2  17
BRANCH   6  19
ATOM     19  C   UNL     1       2.444   5.726  19.378  0.00  0.00    +0.000 C 
BRANCH  19  20
ATOM     20  C   UNL     1       2.003   7.173  19.303  0.00  0.00    +0.000 A 
ATOM     21  C   UNL     1       2.041   7.830  18.069  0.00  0.00    +0.000 A 
ATOM     22  C   UNL     1       1.725   9.188  17.967  0.00  0.00    +0.000 A 
ATOM     23  C   UNL     1       1.323   9.927  19.089  0.00  0.00    +0.000 A 
ATOM     24  C   UNL     1       1.211   9.264  20.323  0.00  0.00    +0.000 A 
ATOM     25  C   UNL     1       1.551   7.900  20.411  0.00  0.00    +0.000 A 
BRANCH  23  26
ATOM     26  O   UNL     1       1.035  11.264  19.030  0.00  0.00    +0.000 OA
ATOM     27  C   UNL     1      -0.320  11.656  18.851  0.00  0.00    +0.000 C 
ENDBRANCH  23  26
BRANCH  24  28
ATOM     28  O   UNL     1       0.800   9.767  21.531  0.00  0.00    +0.000 OA
ATOM     29  C   UNL     1      -0.288   9.149  22.200  0.00  0.00    +0.000 C 
ENDBRANCH  24  28
ENDBRANCH  19  20
BRANCH  19  30
ATOM     30  O   UNL     1       3.600   5.666  20.225  0.00  0.00    +0.000 OA
ATOM     31  H   UNL     1       3.348   6.058  21.082  0.00  0.00    +0.000 HD
ENDBRANCH  19  30
ENDBRANCH   6  19
TORSDOF 9
ENDMDL
MODEL 6
REMARK VINA RESULT:      -7.7      1.284      6.539
REMARK  Name = 
REMARK  12 active torsions:
REMARK  status: ('A' for Active; 'I' for Inactive)
REMARK    1  A    between atoms: C_1  and  O_2
REMARK    2  A    between atoms: O_2  and  C_3
REMARK    3  A    between atoms: C_5  and  C_6
REMARK    4  A    between atoms: C_7  and  O_8
REMARK    5  A    between atoms: C_12  and  C_13
REMARK    6  A    between atoms: C_13  and  O_14
REMARK    7  A    between atoms: C_13  and  C_15
REMARK    8  A    between atoms: C_18  and  O_19
REMARK    9  A    between atoms: O_19  and  C_20
REMARK   10  A    between atoms: C_21  and  O_22
REMARK   11  A    between atoms: O_22  and  C_23
REMARK   12  A    between atoms: C_27  and  O_28
REMARK                            x       y       z     vdW  Elec       q    Type
REMARK                         _______ _______ _______ _____ _____    ______ ____
ROOT
ATOM      1  C   UNL     1       4.095   4.192  19.102  0.00  0.00    +0.000 C 
ATOM      2  C   UNL     1       4.038   2.700  19.317  0.00  0.00    +0.000 C 
ATOM      3  C   UNL     1       2.869   2.121  19.055  0.00  0.00    +0.000 C 
ATOM      4  C   UNL     1       1.989   3.209  18.622  0.00  0.00    +0.000 C 
ATOM      5  O   UNL     1       0.884   2.989  18.152  0.00  0.00    +0.000 OA
ATOM      6  C   UNL     1       2.627   4.572  18.776  0.00  0.00    +0.000 C 
ENDROOT
BRANCH   1   9
ATOM      7  C   UNL     1       5.632   4.710  15.615  0.00  0.00    +0.000 A 
ATOM      8  C   UNL     1       4.746   4.357  16.644  0.00  0.00    +0.000 A 
ATOM      9  C   UNL     1       5.058   4.584  17.998  0.00  0.00    +0.000 A 
ATOM     10  C   UNL     1       6.284   5.175  18.312  0.00  0.00    +0.000 A 
ATOM     11  C   UNL     1       7.180   5.516  17.298  0.00  0.00    +0.000 A 
ATOM     12  C   UNL     1       6.855   5.279  15.956  0.00  0.00    +0.000 A 
BRANCH   7  14
ATOM     13  C   UNL     1       5.942   3.665  13.489  0.00  0.00    +0.000 C 
ATOM     14  O   UNL     1       5.132   4.418  14.374  0.00  0.00    +0.000 OA
ENDBRANCH   7  14
BRANCH  12  15
ATOM     15  O   UNL     1       7.771   5.629  15.002  0.00  0.00    +0.000 OA
ATOM     16  H   UNL     1       8.577   5.103  15.119  0.00  0.00    +0.000 HD
ENDBRANCH  12  15
ENDBRANCH   1   9
BRANCH   2  17
ATOM     17  O   UNL     1       5.144   1.999  19.728  0.00  0.00    +0.000 OA
ATOM     18  H   UNL     1       5.884   2.204  19.129  0.00  0.00    +0.000 HD
ENDBRANCH   2  17
BRANCH   6  19
ATOM     19  C   UNL     1       2.008   5.408  19.901  0.00  0.00    +0.000 C 
BRANCH  19  20
ATOM     20  C   UNL     1       1.789   6.885  19.650  0.00  0.00    +0.000 A 
ATOM     21  C   UNL     1       2.279   7.452  18.469  0.00  0.00    +0.000 A 
ATOM     22  C   UNL     1       2.175   8.826  18.233  0.00  0.00    +0.000 A 
ATOM     23  C   UNL     1       1.546   9.676  19.154  0.00  0.00    +0.000 A 
ATOM     24  C   UNL     1       0.986   9.111  20.312  0.00  0.00    +0.000 A 
ATOM     25  C   UNL     1       1.114   7.727  20.543  0.00  0.00    +0.000 A 
BRANCH  23  26
ATOM     26  O   UNL     1       1.454  11.029  18.969  0.00  0.00    +0.000 OA
ATOM     27  C   UNL     1       2.322  11.642  18.025  0.00  0.00    +0.000 C 
ENDBRANCH  23  26
BRANCH  24  28
ATOM     28  O   UNL     1       0.292   9.734  21.319  0.00  0.00    +0.000 OA
ATOM     29  C   UNL     1       0.521   9.336  22.661  0.00  0.00    +0.000 C 
ENDBRANCH  24  28
ENDBRANCH  19  20
BRANCH  19  30
ATOM     30  O   UNL     1       2.847   5.281  21.056  0.00  0.00    +0.000 OA
ATOM     31  H   UNL     1       2.335   4.797  21.731  0.00  0.00    +0.000 HD
ENDBRANCH  19  30
ENDBRANCH   6  19
TORSDOF 9
ENDMDL
MODEL 7
REMARK VINA RESULT:      -7.7      1.045      2.596
REMARK  Name = 
REMARK  12 active torsions:
REMARK  status: ('A' for Active; 'I' for Inactive)
REMARK    1  A    between atoms: C_1  and  O_2
REMARK    2  A    between atoms: O_2  and  C_3
REMARK    3  A    between atoms: C_5  and  C_6
REMARK    4  A    between atoms: C_7  and  O_8
REMARK    5  A    between atoms: C_12  and  C_13
REMARK    6  A    between atoms: C_13  and  O_14
REMARK    7  A    between atoms: C_13  and  C_15
REMARK    8  A    between atoms: C_18  and  O_19
REMARK    9  A    between atoms: O_19  and  C_20
REMARK   10  A    between atoms: C_21  and  O_22
REMARK   11  A    between atoms: O_22  and  C_23
REMARK   12  A    between atoms: C_27  and  O_28
REMARK                            x       y       z     vdW  Elec       q    Type
REMARK                         _______ _______ _______ _____ _____    ______ ____
ROOT
ATOM      1  C   UNL     1       2.680   4.904  18.577  0.00  0.00    +0.000 C 
ATOM      2  C   UNL     1       1.540   4.031  18.115  0.00  0.00    +0.000 C 
ATOM      3  C   UNL     1       1.331   2.926  18.827  0.00  0.00    +0.000 C 
ATOM      4  C   UNL     1       2.350   2.949  19.879  0.00  0.00    +0.000 C 
ATOM      5  O   UNL     1       2.331   2.153  20.804  0.00  0.00    +0.000 OA
ATOM      6  C   UNL     1       3.347   4.073  19.703  0.00  0.00    +0.000 C 
ENDROOT
BRANCH   1   9
ATOM      7  C   UNL     1       1.779   8.643  18.626  0.00  0.00    +0.000 A 
ATOM      8  C   UNL     1       2.204   7.378  18.193  0.00  0.00    +0.000 A 
ATOM      9  C   UNL     1       2.212   6.265  19.055  0.00  0.00    +0.000 A 
ATOM     10  C   UNL     1       1.784   6.438  20.373  0.00  0.00    +0.000 A 
ATOM     11  C   UNL     1       1.372   7.695  20.820  0.00  0.00    +0.000 A 
ATOM     12  C   UNL     1       1.376   8.792  19.949  0.00  0.00    +0.000 A 
BRANCH   7  14
ATOM     13  C   UNL     1       2.286  10.882  17.965  0.00  0.00    +0.000 C 
ATOM     14  O   UNL     1       1.835   9.582  17.631  0.00  0.00    +0.000 OA
ENDBRANCH   7  14
BRANCH  12  15
ATOM     15  O   UNL     1       0.967  10.002  20.440  0.00  0.00    +0.000 OA
ATOM     16  H   UNL     1       1.631  10.341  21.060  0.00  0.00    +0.000 HD
ENDBRANCH  12  15
ENDBRANCH   1   9
BRANCH   2  17
ATOM     17  O   UNL     1       0.761   4.387  17.043  0.00  0.00    +0.000 OA
ATOM     18  H   UNL     1       0.965   5.309  16.802  0.00  0.00    +0.000 HD
ENDBRANCH   2  17
BRANCH   6  19
ATOM     19  C   UNL     1       4.738   3.588  19.285  0.00  0.00    +0.000 C 
BRANCH  19  20
ATOM     20  C   UNL     1       5.662   4.579  18.608  0.00  0.00    +0.000 A 
ATOM     21  C   UNL     1       6.574   5.298  19.388  0.00  0.00    +0.000 A 
ATOM     22  C   UNL     1       7.387   6.284  18.820  0.00  0.00    +0.000 A 
ATOM     23  C   UNL     1       7.342   6.559  17.446  0.00  0.00    +0.000 A 
ATOM     24  C   UNL     1       6.483   5.797  16.637  0.00  0.00    +0.000 A 
ATOM     25  C   UNL     1       5.658   4.820  17.228  0.00  0.00    +0.000 A 
BRANCH  23  26
ATOM     26  O   UNL     1       8.102   7.537  16.863  0.00  0.00    +0.000 OA
ATOM     27  C   UNL     1       8.188   8.801  17.509  0.00  0.00    +0.000 C 
ENDBRANCH  23  26
BRANCH  24  28
ATOM     28  O   UNL     1       6.307   5.860  15.278  0.00  0.00    +0.000 OA
ATOM     29  C   UNL     1       6.814   4.810  14.470  0.00  0.00    +0.000 C 
ENDBRANCH  24  28
ENDBRANCH  19  20
BRANCH  19  30
ATOM     30  O   UNL     1       4.569   2.474  18.398  0.00  0.00    +0.000 OA
ATOM     31  H   UNL     1       3.833   1.938  18.749  0.00  0.00    +0.000 HD
ENDBRANCH  19  30
ENDBRANCH   6  19
TORSDOF 9
ENDMDL
MODEL 8
REMARK VINA RESULT:      -7.5      0.811      2.050
REMARK  Name = 
REMARK  12 active torsions:
REMARK  status: ('A' for Active; 'I' for Inactive)
REMARK    1  A    between atoms: C_1  and  O_2
REMARK    2  A    between atoms: O_2  and  C_3
REMARK    3  A    between atoms: C_5  and  C_6
REMARK    4  A    between atoms: C_7  and  O_8
REMARK    5  A    between atoms: C_12  and  C_13
REMARK    6  A    between atoms: C_13  and  O_14
REMARK    7  A    between atoms: C_13  and  C_15
REMARK    8  A    between atoms: C_18  and  O_19
REMARK    9  A    between atoms: O_19  and  C_20
REMARK   10  A    between atoms: C_21  and  O_22
REMARK   11  A    between atoms: O_22  and  C_23
REMARK   12  A    between atoms: C_27  and  O_28
REMARK                            x       y       z     vdW  Elec       q    Type
REMARK                         _______ _______ _______ _____ _____    ______ ____
ROOT
ATOM      1  C   UNL     1       2.683   5.041  18.532  0.00  0.00    +0.000 C 
ATOM      2  C   UNL     1       1.527   4.132  18.193  0.00  0.00    +0.000 C 
ATOM      3  C   UNL     1       1.321   3.120  19.032  0.00  0.00    +0.000 C 
ATOM      4  C   UNL     1       2.358   3.254  20.058  0.00  0.00    +0.000 C 
ATOM      5  O   UNL     1       2.347   2.571  21.070  0.00  0.00    +0.000 OA
ATOM      6  C   UNL     1       3.361   4.339  19.736  0.00  0.00    +0.000 C 
ENDROOT
BRANCH   1   9
ATOM      7  C   UNL     1       1.387   8.105  20.462  0.00  0.00    +0.000 A 
ATOM      8  C   UNL     1       1.809   6.804  20.151  0.00  0.00    +0.000 A 
ATOM      9  C   UNL     1       2.234   6.454  18.856  0.00  0.00    +0.000 A 
ATOM     10  C   UNL     1       2.230   7.435  17.863  0.00  0.00    +0.000 A 
ATOM     11  C   UNL     1       1.798   8.730  18.155  0.00  0.00    +0.000 A 
ATOM     12  C   UNL     1       1.374   9.059  19.449  0.00  0.00    +0.000 A 
BRANCH   7  14
ATOM     13  C   UNL     1      -0.317   8.564  22.073  0.00  0.00    +0.000 C 
ATOM     14  O   UNL     1       1.030   8.238  21.777  0.00  0.00    +0.000 OA
ENDBRANCH   7  14
BRANCH  12  15
ATOM     15  O   UNL     1       0.956  10.341  19.680  0.00  0.00    +0.000 OA
ATOM     16  H   UNL     1       0.702  10.755  18.841  0.00  0.00    +0.000 HD
ENDBRANCH  12  15
ENDBRANCH   1   9
BRANCH   2  17
ATOM     17  O   UNL     1       0.733   4.370  17.099  0.00  0.00    +0.000 OA
ATOM     18  H   UNL     1       0.167   3.592  16.950  0.00  0.00    +0.000 HD
ENDBRANCH   2  17
BRANCH   6  19
ATOM     19  C   UNL     1       4.741   3.795  19.355  0.00  0.00    +0.000 C 
BRANCH  19  20
ATOM     20  C   UNL     1       5.705   4.729  18.655  0.00  0.00    +0.000 A 
ATOM     21  C   UNL     1       6.648   5.427  19.418  0.00  0.00    +0.000 A 
ATOM     22  C   UNL     1       7.501   6.363  18.827  0.00  0.00    +0.000 A 
ATOM     23  C   UNL     1       7.467   6.609  17.447  0.00  0.00    +0.000 A 
ATOM     24  C   UNL     1       6.574   5.865  16.657  0.00  0.00    +0.000 A 
ATOM     25  C   UNL     1       5.710   4.938  17.270  0.00  0.00    +0.000 A 
BRANCH  23  26
ATOM     26  O   UNL     1       8.267   7.540  16.841  0.00  0.00    +0.000 OA
ATOM     27  C   UNL     1       8.374   8.827  17.435  0.00  0.00    +0.000 C 
ENDBRANCH  23  26
BRANCH  24  28
ATOM     28  O   UNL     1       6.399   5.904  15.296  0.00  0.00    +0.000 OA
ATOM     29  C   UNL     1       6.941   4.859  14.503  0.00  0.00    +0.000 C 
ENDBRANCH  24  28
ENDBRANCH  19  20
BRANCH  19  30
ATOM     30  O   UNL     1       4.546   2.655  18.507  0.00  0.00    +0.000 OA
ATOM     31  H   UNL     1       5.106   1.937  18.858  0.00  0.00    +0.000 HD
ENDBRANCH  19  30
ENDBRANCH   6  19
TORSDOF 9
ENDMDL
MODEL 9
REMARK VINA RESULT:      -7.4      1.350      6.289
REMARK  Name = 
REMARK  12 active torsions:
REMARK  status: ('A' for Active; 'I' for Inactive)
REMARK    1  A    between atoms: C_1  and  O_2
REMARK    2  A    between atoms: O_2  and  C_3
REMARK    3  A    between atoms: C_5  and  C_6
REMARK    4  A    between atoms: C_7  and  O_8
REMARK    5  A    between atoms: C_12  and  C_13
REMARK    6  A    between atoms: C_13  and  O_14
REMARK    7  A    between atoms: C_13  and  C_15
REMARK    8  A    between atoms: C_18  and  O_19
REMARK    9  A    between atoms: O_19  and  C_20
REMARK   10  A    between atoms: C_21  and  O_22
REMARK   11  A    between atoms: O_22  and  C_23
REMARK   12  A    between atoms: C_27  and  O_28
REMARK                            x       y       z     vdW  Elec       q    Type
REMARK                         _______ _______ _______ _____ _____    ______ ____
ROOT
ATOM      1  C   UNL     1       4.023   4.117  19.390  0.00  0.00    +0.000 C 
ATOM      2  C   UNL     1       3.926   2.613  19.450  0.00  0.00    +0.000 C 
ATOM      3  C   UNL     1       2.749   2.095  19.107  0.00  0.00    +0.000 C 
ATOM      4  C   UNL     1       1.907   3.245  18.768  0.00  0.00    +0.000 C 
ATOM      5  O   UNL     1       0.808   3.102  18.256  0.00  0.00    +0.000 OA
ATOM      6  C   UNL     1       2.573   4.567  19.073  0.00  0.00    +0.000 C 
ENDROOT
BRANCH   1   9
ATOM      7  C   UNL     1       6.972   5.949  17.734  0.00  0.00    +0.000 A 
ATOM      8  C   UNL     1       6.047   5.498  18.687  0.00  0.00    +0.000 A 
ATOM      9  C   UNL     1       5.022   4.593  18.352  0.00  0.00    +0.000 A 
ATOM     10  C   UNL     1       4.934   4.141  17.033  0.00  0.00    +0.000 A 
ATOM     11  C   UNL     1       5.840   4.594  16.072  0.00  0.00    +0.000 A 
ATOM     12  C   UNL     1       6.850   5.499  16.424  0.00  0.00    +0.000 A 
BRANCH   7  14
ATOM     13  C   UNL     1       7.870   8.161  17.841  0.00  0.00    +0.000 C 
ATOM     14  O   UNL     1       7.893   6.811  18.268  0.00  0.00    +0.000 OA
ENDBRANCH   7  14
BRANCH  12  15
ATOM     15  O   UNL     1       7.708   5.914  15.442  0.00  0.00    +0.000 OA
ATOM     16  H   UNL     1       8.560   6.155  15.837  0.00  0.00    +0.000 HD
ENDBRANCH  12  15
ENDBRANCH   1   9
BRANCH   2  17
ATOM     17  O   UNL     1       5.004   1.845  19.811  0.00  0.00    +0.000 OA
ATOM     18  H   UNL     1       5.566   2.361  20.417  0.00  0.00    +0.000 HD
ENDBRANCH   2  17
BRANCH   6  19
ATOM     19  C   UNL     1       1.948   5.301  20.264  0.00  0.00    +0.000 C 
BRANCH  19  20
ATOM     20  C   UNL     1       1.679   6.784  20.123  0.00  0.00    +0.000 A 
ATOM     21  C   UNL     1       1.086   7.470  21.187  0.00  0.00    +0.000 A 
ATOM     22  C   UNL     1       0.741   8.820  21.072  0.00  0.00    +0.000 A 
ATOM     23  C   UNL     1       1.011   9.541  19.900  0.00  0.00    +0.000 A 
ATOM     24  C   UNL     1       1.670   8.885  18.847  0.00  0.00    +0.000 A 
ATOM     25  C   UNL     1       1.995   7.520  18.973  0.00  0.00    +0.000 A 
BRANCH  23  26
ATOM     26  O   UNL     1       0.659  10.854  19.742  0.00  0.00    +0.000 OA
ATOM     27  C   UNL     1       0.982  11.769  20.781  0.00  0.00    +0.000 C 
ENDBRANCH  23  26
BRANCH  24  28
ATOM     28  O   UNL     1       2.070   9.395  17.637  0.00  0.00    +0.000 OA
ATOM     29  C   UNL     1       2.602  10.709  17.587  0.00  0.00    +0.000 C 
ENDBRANCH  24  28
ENDBRANCH  19  20
BRANCH  19  30
ATOM     30  O   UNL     1       2.812   5.121  21.395  0.00  0.00    +0.000 OA
ATOM     31  H   UNL     1       2.648   5.866  22.002  0.00  0.00    +0.000 HD
ENDBRANCH  19  30
ENDBRANCH   6  19
TORSDOF 9
ENDMDL
