MODEL 1
REMARK VINA RESULT:      -6.3      0.000      0.000
REMARK  Name = 
REMARK  2 active torsions:
REMARK  status: ('A' for Active; 'I' for Inactive)
REMARK    1  A    between atoms: C_1  and  O_2
REMARK    2  A    between atoms: O_2  and  C_3
REMARK                            x       y       z     vdW  Elec       q    Type
REMARK                         _______ _______ _______ _____ _____    ______ ____
ROOT
ATOM      1  C   UNL     1       2.119   4.196  17.722  0.00  0.00    +0.000 A 
ATOM      2  C   UNL     1       2.208   5.483  18.264  0.00  0.00    +0.000 A 
ATOM      3  C   UNL     1       3.382   6.222  18.117  0.00  0.00    +0.000 A 
ATOM      4  C   UNL     1       4.458   5.663  17.433  0.00  0.00    +0.000 A 
ATOM      5  O   UNL     1       5.608   6.460  17.277  0.00  0.00    +0.000 OA
ATOM      6  C   UNL     1       6.710   5.994  16.574  0.00  0.00    +0.000 A 
ATOM      7  O   UNL     1       7.704   6.684  16.383  0.00  0.00    +0.000 OA
ATOM      8  C   UNL     1       6.641   4.614  16.062  0.00  0.00    +0.000 A 
ATOM      9  C   UNL     1       5.561   3.843  16.218  0.00  0.00    +0.000 A 
ATOM     10  C   UNL     1       4.399   4.373  16.912  0.00  0.00    +0.000 A 
ATOM     11  C   UNL     1       3.223   3.636  17.069  0.00  0.00    +0.000 A 
ENDROOT
BRANCH   1  13
ATOM     12  C   UNL     1       1.001   2.478  18.896  0.00  0.00    +0.000 C 
ATOM     13  O   UNL     1       1.017   3.388  17.801  0.00  0.00    +0.000 OA
ENDBRANCH   1  13
TORSDOF 1
ENDMDL
MODEL 2
REMARK VINA RESULT:      -6.2      1.059      5.217
REMARK  Name = 
REMARK  2 active torsions:
REMARK  status: ('A' for Active; 'I' for Inactive)
REMARK    1  A    between atoms: C_1  and  O_2
REMARK    2  A    between atoms: O_2  and  C_3
REMARK                            x       y       z     vdW  Elec       q    Type
REMARK                         _______ _______ _______ _____ _____    ______ ____
ROOT
ATOM      1  C   UNL     1       6.674   6.117  16.677  0.00  0.00    +0.000 A 
ATOM      2  C   UNL     1       6.637   4.861  16.063  0.00  0.00    +0.000 A 
ATOM      3  C   UNL     1       5.505   4.055  16.188  0.00  0.00    +0.000 A 
ATOM      4  C   UNL     1       4.422   4.514  16.933  0.00  0.00    +0.000 A 
ATOM      5  O   UNL     1       3.288   3.683  17.001  0.00  0.00    +0.000 OA
ATOM      6  C   UNL     1       2.150   4.082  17.689  0.00  0.00    +0.000 A 
ATOM      7  O   UNL     1       1.133   3.400  17.724  0.00  0.00    +0.000 OA
ATOM      8  C   UNL     1       2.214   5.375  18.392  0.00  0.00    +0.000 A 
ATOM      9  C   UNL     1       3.291   6.165  18.348  0.00  0.00    +0.000 A 
ATOM     10  C   UNL     1       4.451   5.748  17.575  0.00  0.00    +0.000 A 
ATOM     11  C   UNL     1       5.590   6.547  17.452  0.00  0.00    +0.000 A 
ENDROOT
BRANCH   1  13
ATOM     12  C   UNL     1       7.752   7.994  17.621  0.00  0.00    +0.000 C 
ATOM     13  O   UNL     1       7.727   6.989  16.612  0.00  0.00    +0.000 OA
ENDBRANCH   1  13
TORSDOF 1
ENDMDL
MODEL 3
REMARK VINA RESULT:      -6.1      2.134      2.687
REMARK  Name = 
REMARK  2 active torsions:
REMARK  status: ('A' for Active; 'I' for Inactive)
REMARK    1  A    between atoms: C_1  and  O_2
REMARK    2  A    between atoms: O_2  and  C_3
REMARK                            x       y       z     vdW  Elec       q    Type
REMARK                         _______ _______ _______ _____ _____    ______ ____
ROOT
ATOM      1  C   UNL     1       4.857   4.409  18.777  0.00  0.00    +0.000 A 
ATOM      2  C   UNL     1       5.948   5.235  19.067  0.00  0.00    +0.000 A 
ATOM      3  C   UNL     1       6.827   5.613  18.053  0.00  0.00    +0.000 A 
ATOM      4  C   UNL     1       6.607   5.156  16.756  0.00  0.00    +0.000 A 
ATOM      5  O   UNL     1       7.499   5.593  15.758  0.00  0.00    +0.000 OA
ATOM      6  C   UNL     1       7.328   5.216  14.433  0.00  0.00    +0.000 A 
ATOM      7  O   UNL     1       8.060   5.620  13.538  0.00  0.00    +0.000 OA
ATOM      8  C   UNL     1       6.219   4.292  14.139  0.00  0.00    +0.000 A 
ATOM      9  C   UNL     1       5.376   3.857  15.081  0.00  0.00    +0.000 A 
ATOM     10  C   UNL     1       5.544   4.309  16.453  0.00  0.00    +0.000 A 
ATOM     11  C   UNL     1       4.672   3.929  17.475  0.00  0.00    +0.000 A 
ENDROOT
BRANCH   1  13
ATOM     12  C   UNL     1       3.932   2.586  19.960  0.00  0.00    +0.000 C 
ATOM     13  O   UNL     1       3.931   3.985  19.692  0.00  0.00    +0.000 OA
ENDBRANCH   1  13
TORSDOF 1
ENDMDL
MODEL 4
REMARK VINA RESULT:      -6.1      2.334      5.380
REMARK  Name = 
REMARK  2 active torsions:
REMARK  status: ('A' for Active; 'I' for Inactive)
REMARK    1  A    between atoms: C_1  and  O_2
REMARK    2  A    between atoms: O_2  and  C_3
REMARK                            x       y       z     vdW  Elec       q    Type
REMARK                         _______ _______ _______ _____ _____    ______ ____
ROOT
ATOM      1  C   UNL     1       7.357   7.238  17.707  0.00  0.00    +0.000 A 
ATOM      2  C   UNL     1       7.929   6.522  18.764  0.00  0.00    +0.000 A 
ATOM      3  C   UNL     1       7.285   5.395  19.273  0.00  0.00    +0.000 A 
ATOM      4  C   UNL     1       6.070   4.997  18.721  0.00  0.00    +0.000 A 
ATOM      5  O   UNL     1       5.475   3.832  19.241  0.00  0.00    +0.000 OA
ATOM      6  C   UNL     1       4.285   3.344  18.721  0.00  0.00    +0.000 A 
ATOM      7  O   UNL     1       3.770   2.308  19.122  0.00  0.00    +0.000 OA
ATOM      8  C   UNL     1       3.649   4.136  17.653  0.00  0.00    +0.000 A 
ATOM      9  C   UNL     1       4.196   5.252  17.162  0.00  0.00    +0.000 A 
ATOM     10  C   UNL     1       5.471   5.713  17.688  0.00  0.00    +0.000 A 
ATOM     11  C   UNL     1       6.118   6.845  17.188  0.00  0.00    +0.000 A 
ENDROOT
BRANCH   1  13
ATOM     12  C   UNL     1       8.331   9.365  18.032  0.00  0.00    +0.000 C 
ATOM     13  O   UNL     1       7.905   8.351  17.128  0.00  0.00    +0.000 OA
ENDBRANCH   1  13
TORSDOF 1
ENDMDL
MODEL 5
REMARK VINA RESULT:      -6.1      1.844      2.345
REMARK  Name = 
REMARK  2 active torsions:
REMARK  status: ('A' for Active; 'I' for Inactive)
REMARK    1  A    between atoms: C_1  and  O_2
REMARK    2  A    between atoms: O_2  and  C_3
REMARK                            x       y       z     vdW  Elec       q    Type
REMARK                         _______ _______ _______ _____ _____    ______ ____
ROOT
ATOM      1  C   UNL     1       2.287   3.907  19.183  0.00  0.00    +0.000 A 
ATOM      2  C   UNL     1       2.226   3.378  17.890  0.00  0.00    +0.000 A 
ATOM      3  C   UNL     1       3.345   3.433  17.059  0.00  0.00    +0.000 A 
ATOM      4  C   UNL     1       4.514   4.024  17.530  0.00  0.00    +0.000 A 
ATOM      5  O   UNL     1       5.629   4.024  16.669  0.00  0.00    +0.000 OA
ATOM      6  C   UNL     1       6.844   4.557  17.075  0.00  0.00    +0.000 A 
ATOM      7  O   UNL     1       7.842   4.527  16.365  0.00  0.00    +0.000 OA
ATOM      8  C   UNL     1       6.889   5.176  18.412  0.00  0.00    +0.000 A 
ATOM      9  C   UNL     1       5.834   5.196  19.231  0.00  0.00    +0.000 A 
ATOM     10  C   UNL     1       4.586   4.583  18.803  0.00  0.00    +0.000 A 
ATOM     11  C   UNL     1       3.460   4.530  19.627  0.00  0.00    +0.000 A 
ENDROOT
BRANCH   1  13
ATOM     12  C   UNL     1       1.481   3.142  21.267  0.00  0.00    +0.000 C 
ATOM     13  O   UNL     1       1.256   3.900  20.082  0.00  0.00    +0.000 OA
ENDBRANCH   1  13
TORSDOF 1
ENDMDL
MODEL 6
REMARK VINA RESULT:      -6.0      2.193      5.209
REMARK  Name = 
REMARK  2 active torsions:
REMARK  status: ('A' for Active; 'I' for Inactive)
REMARK    1  A    between atoms: C_1  and  O_2
REMARK    2  A    between atoms: O_2  and  C_3
REMARK                            x       y       z     vdW  Elec       q    Type
REMARK                         _______ _______ _______ _____ _____    ______ ____
ROOT
ATOM      1  C   UNL     1       4.548   4.061  16.899  0.00  0.00    +0.000 A 
ATOM      2  C   UNL     1       5.382   4.168  18.017  0.00  0.00    +0.000 A 
ATOM      3  C   UNL     1       4.876   3.919  19.293  0.00  0.00    +0.000 A 
ATOM      4  C   UNL     1       3.536   3.569  19.437  0.00  0.00    +0.000 A 
ATOM      5  O   UNL     1       3.079   3.291  20.740  0.00  0.00    +0.000 OA
ATOM      6  C   UNL     1       1.768   2.896  20.967  0.00  0.00    +0.000 A 
ATOM      7  O   UNL     1       1.357   2.602  22.083  0.00  0.00    +0.000 OA
ATOM      8  C   UNL     1       0.872   2.849  19.798  0.00  0.00    +0.000 A 
ATOM      9  C   UNL     1       1.291   3.127  18.559  0.00  0.00    +0.000 A 
ATOM     10  C   UNL     1       2.683   3.486  18.340  0.00  0.00    +0.000 A 
ATOM     11  C   UNL     1       3.195   3.744  17.067  0.00  0.00    +0.000 A 
ENDROOT
BRANCH   1  13
ATOM     12  C   UNL     1       6.328   4.080  15.347  0.00  0.00    +0.000 C 
ATOM     13  O   UNL     1       4.941   4.275  15.606  0.00  0.00    +0.000 OA
ENDBRANCH   1  13
TORSDOF 1
ENDMDL
MODEL 7
REMARK VINA RESULT:      -6.0      1.507      4.687
REMARK  Name = 
REMARK  2 active torsions:
REMARK  status: ('A' for Active; 'I' for Inactive)
REMARK    1  A    between atoms: C_1  and  O_2
REMARK    2  A    between atoms: O_2  and  C_3
REMARK                            x       y       z     vdW  Elec       q    Type
REMARK                         _______ _______ _______ _____ _____    ______ ____
ROOT
ATOM      1  C   UNL     1       5.426   5.518  16.113  0.00  0.00    +0.000 A 
ATOM      2  C   UNL     1       4.950   6.659  16.767  0.00  0.00    +0.000 A 
ATOM      3  C   UNL     1       3.886   6.559  17.663  0.00  0.00    +0.000 A 
ATOM      4  C   UNL     1       3.304   5.315  17.891  0.00  0.00    +0.000 A 
ATOM      5  O   UNL     1       2.256   5.255  18.830  0.00  0.00    +0.000 OA
ATOM      6  C   UNL     1       1.649   4.048  19.146  0.00  0.00    +0.000 A 
ATOM      7  O   UNL     1       0.769   3.960  19.994  0.00  0.00    +0.000 OA
ATOM      8  C   UNL     1       2.104   2.857  18.408  0.00  0.00    +0.000 A 
ATOM      9  C   UNL     1       3.086   2.904  17.503  0.00  0.00    +0.000 A 
ATOM     10  C   UNL     1       3.744   4.172  17.228  0.00  0.00    +0.000 A 
ATOM     11  C   UNL     1       4.806   4.281  16.328  0.00  0.00    +0.000 A 
ENDROOT
BRANCH   1  13
ATOM     12  C   UNL     1       6.497   4.387  14.337  0.00  0.00    +0.000 C 
ATOM     13  O   UNL     1       6.467   5.501  15.224  0.00  0.00    +0.000 OA
ENDBRANCH   1  13
TORSDOF 1
ENDMDL
MODEL 8
REMARK VINA RESULT:      -6.0      1.722      4.873
REMARK  Name = 
REMARK  2 active torsions:
REMARK  status: ('A' for Active; 'I' for Inactive)
REMARK    1  A    between atoms: C_1  and  O_2
REMARK    2  A    between atoms: O_2  and  C_3
REMARK                            x       y       z     vdW  Elec       q    Type
REMARK                         _______ _______ _______ _____ _____    ______ ____
ROOT
ATOM      1  C   UNL     1       6.464   4.744  16.989  0.00  0.00    +0.000 A 
ATOM      2  C   UNL     1       6.619   5.209  18.300  0.00  0.00    +0.000 A 
ATOM      3  C   UNL     1       5.554   5.138  19.197  0.00  0.00    +0.000 A 
ATOM      4  C   UNL     1       4.340   4.606  18.772  0.00  0.00    +0.000 A 
ATOM      5  O   UNL     1       3.304   4.521  19.722  0.00  0.00    +0.000 OA
ATOM      6  C   UNL     1       2.075   3.967  19.391  0.00  0.00    +0.000 A 
ATOM      7  O   UNL     1       1.174   3.837  20.211  0.00  0.00    +0.000 OA
ATOM      8  C   UNL     1       1.890   3.540  17.994  0.00  0.00    +0.000 A 
ATOM      9  C   UNL     1       2.859   3.631  17.079  0.00  0.00    +0.000 A 
ATOM     10  C   UNL     1       4.156   4.165  17.464  0.00  0.00    +0.000 A 
ATOM     11  C   UNL     1       5.225   4.246  16.569  0.00  0.00    +0.000 A 
ENDROOT
BRANCH   1  13
ATOM     12  C   UNL     1       6.980   4.759  14.685  0.00  0.00    +0.000 C 
ATOM     13  O   UNL     1       7.442   4.759  16.032  0.00  0.00    +0.000 OA
ENDBRANCH   1  13
TORSDOF 1
ENDMDL
MODEL 9
REMARK VINA RESULT:      -5.9      1.587      2.629
REMARK  Name = 
REMARK  2 active torsions:
REMARK  status: ('A' for Active; 'I' for Inactive)
REMARK    1  A    between atoms: C_1  and  O_2
REMARK    2  A    between atoms: O_2  and  C_3
REMARK                            x       y       z     vdW  Elec       q    Type
REMARK                         _______ _______ _______ _____ _____    ______ ____
ROOT
ATOM      1  C   UNL     1       1.801   3.317  19.175  0.00  0.00    +0.000 A 
ATOM      2  C   UNL     1       2.439   2.444  18.287  0.00  0.00    +0.000 A 
ATOM      3  C   UNL     1       3.370   2.936  17.372  0.00  0.00    +0.000 A 
ATOM      4  C   UNL     1       3.649   4.299  17.352  0.00  0.00    +0.000 A 
ATOM      5  O   UNL     1       4.623   4.745  16.437  0.00  0.00    +0.000 OA
ATOM      6  C   UNL     1       4.989   6.082  16.379  0.00  0.00    +0.000 A 
ATOM      7  O   UNL     1       5.867   6.489  15.627  0.00  0.00    +0.000 OA
ATOM      8  C   UNL     1       4.269   7.011  17.267  0.00  0.00    +0.000 A 
ATOM      9  C   UNL     1       3.332   6.603  18.127  0.00  0.00    +0.000 A 
ATOM     10  C   UNL     1       3.003   5.188  18.207  0.00  0.00    +0.000 A 
ATOM     11  C   UNL     1       2.067   4.690  19.116  0.00  0.00    +0.000 A 
ENDROOT
BRANCH   1  13
ATOM     12  C   UNL     1       1.401   2.692  21.417  0.00  0.00    +0.000 C 
ATOM     13  O   UNL     1       0.880   2.942  20.115  0.00  0.00    +0.000 OA
ENDBRANCH   1  13
TORSDOF 1
ENDMDL
