MODEL 1
REMARK VINA RESULT:      -7.9      0.000      0.000
REMARK  Name = 
REMARK  5 active torsions:
REMARK  status: ('A' for Active; 'I' for Inactive)
REMARK    1  A    between atoms: C_1  and  C_2
REMARK    2  A    between atoms: C_2  and  N_3
REMARK    3  A    between atoms: N_3  and  C_4
REMARK    4  A    between atoms: C_4  and  C_5
REMARK    5  A    between atoms: N_18  and  C_19
REMARK                            x       y       z     vdW  Elec       q    Type
REMARK                         _______ _______ _______ _____ _____    ______ ____
ROOT
ATOM      1  N   UNL     1       5.845   6.399  17.598  0.00  0.00    +0.000 N 
ATOM      2  C   UNL     1       4.506   6.425  17.988  0.00  0.00    +0.000 C 
ATOM      3  O   UNL     1       3.922   7.489  18.233  0.00  0.00    +0.000 OA
ATOM      4  N   UNL     1       3.842   5.234  18.055  0.00  0.00    +0.000 N 
ATOM      5  H   UNL     1       4.381   4.398  18.205  0.00  0.00    +0.000 HD
ENDROOT
BRANCH   4   6
ATOM      6  C   UNL     1       2.431   5.187  18.475  0.00  0.00    +0.000 C 
ATOM      7  C   UNL     1       1.661   4.164  17.634  0.00  0.00    +0.000 C 
ATOM      8  C   UNL     1       1.938   2.715  18.026  0.00  0.00    +0.000 C 
ATOM      9  C   UNL     1       0.938   2.190  19.052  0.00  0.00    +0.000 C 
ATOM     10  C   UNL     1       1.029   2.819  20.440  0.00  0.00    +0.000 C 
ATOM     11  C   UNL     1       1.011   4.348  20.489  0.00  0.00    +0.000 C 
ATOM     12  C   UNL     1       2.319   4.983  20.000  0.00  0.00    +0.000 C 
ENDBRANCH   4   6
BRANCH   1  14
ATOM     13  C   UNL     1       7.868   8.061  17.715  0.00  0.00    +0.000 C 
ATOM     14  C   UNL     1       6.406   7.755  17.438  0.00  0.00    +0.000 C 
ENDBRANCH   1  14
BRANCH   1  15
ATOM     15  C   UNL     1       6.574   5.181  17.186  0.00  0.00    +0.000 C 
BRANCH  15  16
ATOM     16  C   UNL     1       6.638   4.931  15.665  0.00  0.00    +0.000 A 
ATOM     17  N   UNL     1       5.800   4.133  15.084  0.00  0.00    +0.000 NA
ATOM     18  C   UNL     1       5.945   3.890  13.703  0.00  0.00    +0.000 A 
ATOM     19  C   UNL     1       5.029   3.071  13.033  0.00  0.00    +0.000 A 
ATOM     20  C   UNL     1       5.245   2.703  11.695  0.00  0.00    +0.000 A 
ATOM     21  C   UNL     1       6.377   3.145  11.017  0.00  0.00    +0.000 A 
ATOM     22  C   UNL     1       7.275   4.000  11.655  0.00  0.00    +0.000 A 
ATOM     23  C   UNL     1       7.035   4.387  12.981  0.00  0.00    +0.000 A 
ATOM     24  C   UNL     1       7.937   5.316  13.679  0.00  0.00    +0.000 A 
ATOM     25  O   UNL     1       8.952   5.758  13.155  0.00  0.00    +0.000 OA
ATOM     26  N   UNL     1       7.598   5.619  14.972  0.00  0.00    +0.000 N 
ATOM     27  H   UNL     1       8.250   6.204  15.472  0.00  0.00    +0.000 HD
ENDBRANCH  15  16
ENDBRANCH   1  15
TORSDOF 4
ENDMDL
MODEL 2
REMARK VINA RESULT:      -7.6      1.305      1.775
REMARK  Name = 
REMARK  5 active torsions:
REMARK  status: ('A' for Active; 'I' for Inactive)
REMARK    1  A    between atoms: C_1  and  C_2
REMARK    2  A    between atoms: C_2  and  N_3
REMARK    3  A    between atoms: N_3  and  C_4
REMARK    4  A    between atoms: C_4  and  C_5
REMARK    5  A    between atoms: N_18  and  C_19
REMARK                            x       y       z     vdW  Elec       q    Type
REMARK                         _______ _______ _______ _____ _____    ______ ____
ROOT
ATOM      1  N   UNL     1       6.297   5.948  17.709  0.00  0.00    +0.000 N 
ATOM      2  C   UNL     1       5.782   5.055  18.649  0.00  0.00    +0.000 C 
ATOM      3  O   UNL     1       6.394   4.787  19.693  0.00  0.00    +0.000 OA
ATOM      4  N   UNL     1       4.557   4.508  18.400  0.00  0.00    +0.000 N 
ATOM      5  H   UNL     1       4.251   4.445  17.443  0.00  0.00    +0.000 HD
ENDROOT
BRANCH   4   6
ATOM      6  C   UNL     1       3.961   3.546  19.342  0.00  0.00    +0.000 C 
ATOM      7  C   UNL     1       3.184   4.287  20.436  0.00  0.00    +0.000 C 
ATOM      8  C   UNL     1       1.836   4.829  19.970  0.00  0.00    +0.000 C 
ATOM      9  C   UNL     1       0.695   3.850  20.230  0.00  0.00    +0.000 C 
ATOM     10  C   UNL     1       0.723   2.573  19.394  0.00  0.00    +0.000 C 
ATOM     11  C   UNL     1       2.039   1.792  19.400  0.00  0.00    +0.000 C 
ATOM     12  C   UNL     1       3.149   2.472  18.589  0.00  0.00    +0.000 C 
ENDBRANCH   4   6
BRANCH   1  14
ATOM     13  C   UNL     1       7.935   7.992  17.800  0.00  0.00    +0.000 C 
ATOM     14  C   UNL     1       7.561   6.564  18.158  0.00  0.00    +0.000 C 
ENDBRANCH   1  14
BRANCH   1  15
ATOM     15  C   UNL     1       5.578   6.396  16.497  0.00  0.00    +0.000 C 
BRANCH  15  16
ATOM     16  C   UNL     1       5.982   5.688  15.189  0.00  0.00    +0.000 A 
ATOM     17  N   UNL     1       5.202   4.814  14.635  0.00  0.00    +0.000 NA
ATOM     18  C   UNL     1       5.650   4.148  13.476  0.00  0.00    +0.000 A 
ATOM     19  C   UNL     1       4.815   3.233  12.824  0.00  0.00    +0.000 A 
ATOM     20  C   UNL     1       5.299   2.456  11.759  0.00  0.00    +0.000 A 
ATOM     21  C   UNL     1       6.620   2.583  11.338  0.00  0.00    +0.000 A 
ATOM     22  C   UNL     1       7.451   3.525  11.945  0.00  0.00    +0.000 A 
ATOM     23  C   UNL     1       6.949   4.316  12.988  0.00  0.00    +0.000 A 
ATOM     24  C   UNL     1       7.781   5.346  13.631  0.00  0.00    +0.000 A 
ATOM     25  O   UNL     1       8.951   5.530  13.319  0.00  0.00    +0.000 OA
ATOM     26  N   UNL     1       7.179   6.056  14.638  0.00  0.00    +0.000 N 
ATOM     27  H   UNL     1       7.768   6.717  15.122  0.00  0.00    +0.000 HD
ENDBRANCH  15  16
ENDBRANCH   1  15
TORSDOF 4
ENDMDL
MODEL 3
REMARK VINA RESULT:      -7.6      6.015      9.159
REMARK  Name = 
REMARK  5 active torsions:
REMARK  status: ('A' for Active; 'I' for Inactive)
REMARK    1  A    between atoms: C_1  and  C_2
REMARK    2  A    between atoms: C_2  and  N_3
REMARK    3  A    between atoms: N_3  and  C_4
REMARK    4  A    between atoms: C_4  and  C_5
REMARK    5  A    between atoms: N_18  and  C_19
REMARK                            x       y       z     vdW  Elec       q    Type
REMARK                         _______ _______ _______ _____ _____    ______ ____
ROOT
ATOM      1  N   UNL     1       1.599   9.571  18.500  0.00  0.00    +0.000 N 
ATOM      2  C   UNL     1       2.297   8.375  18.328  0.00  0.00    +0.000 C 
ATOM      3  O   UNL     1       3.314   8.313  17.623  0.00  0.00    +0.000 OA
ATOM      4  N   UNL     1       1.844   7.274  18.995  0.00  0.00    +0.000 N 
ATOM      5  H   UNL     1       0.872   7.242  19.254  0.00  0.00    +0.000 HD
ENDROOT
BRANCH   4   6
ATOM      6  C   UNL     1       2.524   5.976  18.847  0.00  0.00    +0.000 C 
ATOM      7  C   UNL     1       2.601   5.260  20.199  0.00  0.00    +0.000 C 
ATOM      8  C   UNL     1       1.279   4.638  20.639  0.00  0.00    +0.000 C 
ATOM      9  C   UNL     1       1.149   3.181  20.204  0.00  0.00    +0.000 C 
ATOM     10  C   UNL     1       1.012   2.955  18.700  0.00  0.00    +0.000 C 
ATOM     11  C   UNL     1       2.066   3.629  17.819  0.00  0.00    +0.000 C 
ATOM     12  C   UNL     1       1.883   5.148  17.713  0.00  0.00    +0.000 C 
ENDBRANCH   4   6
BRANCH   1  14
ATOM     13  C   UNL     1       2.195  12.120  18.384  0.00  0.00    +0.000 C 
ATOM     14  C   UNL     1       2.265  10.707  17.833  0.00  0.00    +0.000 C 
ENDBRANCH   1  14
BRANCH   1  15
ATOM     15  C   UNL     1       0.445   9.744  19.409  0.00  0.00    +0.000 C 
BRANCH  15  16
ATOM     16  C   UNL     1      -0.839  10.287  18.750  0.00  0.00    +0.000 A 
ATOM     17  N   UNL     1      -1.677  11.013  19.420  0.00  0.00    +0.000 NA
ATOM     18  C   UNL     1      -2.867  11.428  18.788  0.00  0.00    +0.000 A 
ATOM     19  C   UNL     1      -3.772  12.252  19.465  0.00  0.00    +0.000 A 
ATOM     20  C   UNL     1      -5.025  12.550  18.905  0.00  0.00    +0.000 A 
ATOM     21  C   UNL     1      -5.385  12.026  17.666  0.00  0.00    +0.000 A 
ATOM     22  C   UNL     1      -4.476  11.242  16.957  0.00  0.00    +0.000 A 
ATOM     23  C   UNL     1      -3.217  10.975  17.511  0.00  0.00    +0.000 A 
ATOM     24  C   UNL     1      -2.215  10.183  16.780  0.00  0.00    +0.000 A 
ATOM     25  O   UNL     1      -2.445   9.689  15.684  0.00  0.00    +0.000 OA
ATOM     26  N   UNL     1      -1.021   9.988  17.426  0.00  0.00    +0.000 N 
ATOM     27  H   UNL     1      -0.357   9.393  16.954  0.00  0.00    +0.000 HD
ENDBRANCH  15  16
ENDBRANCH   1  15
TORSDOF 4
ENDMDL
MODEL 4
REMARK VINA RESULT:      -7.4      3.524      7.931
REMARK  Name = 
REMARK  5 active torsions:
REMARK  status: ('A' for Active; 'I' for Inactive)
REMARK    1  A    between atoms: C_1  and  C_2
REMARK    2  A    between atoms: C_2  and  N_3
REMARK    3  A    between atoms: N_3  and  C_4
REMARK    4  A    between atoms: C_4  and  C_5
REMARK    5  A    between atoms: N_18  and  C_19
REMARK                            x       y       z     vdW  Elec       q    Type
REMARK                         _______ _______ _______ _____ _____    ______ ____
ROOT
ATOM      1  N   UNL     1       2.918   3.656  19.583  0.00  0.00    +0.000 N 
ATOM      2  C   UNL     1       4.303   3.692  19.417  0.00  0.00    +0.000 C 
ATOM      3  O   UNL     1       5.052   2.934  20.048  0.00  0.00    +0.000 OA
ATOM      4  N   UNL     1       4.808   4.570  18.503  0.00  0.00    +0.000 N 
ATOM      5  H   UNL     1       4.265   5.386  18.277  0.00  0.00    +0.000 HD
ENDROOT
BRANCH   4   6
ATOM      6  C   UNL     1       6.262   4.671  18.288  0.00  0.00    +0.000 C 
ATOM      7  C   UNL     1       6.554   5.233  16.892  0.00  0.00    +0.000 C 
ATOM      8  C   UNL     1       6.323   6.738  16.776  0.00  0.00    +0.000 C 
ATOM      9  C   UNL     1       7.592   7.542  17.047  0.00  0.00    +0.000 C 
ATOM     10  C   UNL     1       8.099   7.503  18.486  0.00  0.00    +0.000 C 
ATOM     11  C   UNL     1       8.269   6.114  19.104  0.00  0.00    +0.000 C 
ATOM     12  C   UNL     1       6.935   5.438  19.445  0.00  0.00    +0.000 C 
ENDBRANCH   4   6
BRANCH   1  14
ATOM     13  C   UNL     1       1.487   2.815  21.612  0.00  0.00    +0.000 C 
ATOM     14  C   UNL     1       2.494   2.579  20.500  0.00  0.00    +0.000 C 
ENDBRANCH   1  14
BRANCH   1  15
ATOM     15  C   UNL     1       1.957   4.452  18.790  0.00  0.00    +0.000 C 
BRANCH  15  16
ATOM     16  C   UNL     1       1.898   5.953  19.136  0.00  0.00    +0.000 A 
ATOM     17  N   UNL     1       1.509   6.353  20.305  0.00  0.00    +0.000 NA
ATOM     18  C   UNL     1       1.410   7.740  20.546  0.00  0.00    +0.000 A 
ATOM     19  C   UNL     1       1.040   8.208  21.811  0.00  0.00    +0.000 A 
ATOM     20  C   UNL     1       0.795   9.574  22.024  0.00  0.00    +0.000 A 
ATOM     21  C   UNL     1       0.914  10.483  20.975  0.00  0.00    +0.000 A 
ATOM     22  C   UNL     1       1.329  10.039  19.720  0.00  0.00    +0.000 A 
ATOM     23  C   UNL     1       1.601   8.677  19.526  0.00  0.00    +0.000 A 
ATOM     24  C   UNL     1       2.076   8.173  18.228  0.00  0.00    +0.000 A 
ATOM     25  O   UNL     1       2.214   8.903  17.254  0.00  0.00    +0.000 OA
ATOM     26  N   UNL     1       2.306   6.822  18.160  0.00  0.00    +0.000 N 
ATOM     27  H   UNL     1       2.570   6.466  17.254  0.00  0.00    +0.000 HD
ENDBRANCH  15  16
ENDBRANCH   1  15
TORSDOF 4
ENDMDL
MODEL 5
REMARK VINA RESULT:      -7.4      5.691      8.777
REMARK  Name = 
REMARK  5 active torsions:
REMARK  status: ('A' for Active; 'I' for Inactive)
REMARK    1  A    between atoms: C_1  and  C_2
REMARK    2  A    between atoms: C_2  and  N_3
REMARK    3  A    between atoms: N_3  and  C_4
REMARK    4  A    between atoms: C_4  and  C_5
REMARK    5  A    between atoms: N_18  and  C_19
REMARK                            x       y       z     vdW  Elec       q    Type
REMARK                         _______ _______ _______ _____ _____    ______ ____
ROOT
ATOM      1  N   UNL     1       1.887   9.357  18.520  0.00  0.00    +0.000 N 
ATOM      2  C   UNL     1       2.484   8.114  18.306  0.00  0.00    +0.000 C 
ATOM      3  O   UNL     1       3.392   7.965  17.476  0.00  0.00    +0.000 OA
ATOM      4  N   UNL     1       2.061   7.067  19.073  0.00  0.00    +0.000 N 
ATOM      5  H   UNL     1       1.133   7.106  19.458  0.00  0.00    +0.000 HD
ENDROOT
BRANCH   4   6
ATOM      6  C   UNL     1       2.639   5.724  18.889  0.00  0.00    +0.000 C 
ATOM      7  C   UNL     1       2.778   5.018  20.242  0.00  0.00    +0.000 C 
ATOM      8  C   UNL     1       1.458   4.492  20.797  0.00  0.00    +0.000 C 
ATOM      9  C   UNL     1       1.195   3.043  20.396  0.00  0.00    +0.000 C 
ATOM     10  C   UNL     1       0.921   2.812  18.912  0.00  0.00    +0.000 C 
ATOM     11  C   UNL     1       1.942   3.404  17.938  0.00  0.00    +0.000 C 
ATOM     12  C   UNL     1       1.853   4.931  17.825  0.00  0.00    +0.000 C 
ENDBRANCH   4   6
BRANCH   1  14
ATOM     13  C   UNL     1       2.414  11.891  18.109  0.00  0.00    +0.000 C 
ATOM     14  C   UNL     1       2.522  10.426  17.724  0.00  0.00    +0.000 C 
ENDBRANCH   1  14
BRANCH   1  15
ATOM     15  C   UNL     1       0.878   9.633  19.565  0.00  0.00    +0.000 C 
BRANCH  15  16
ATOM     16  C   UNL     1      -0.497  10.103  19.049  0.00  0.00    +0.000 A 
ATOM     17  N   UNL     1      -0.933   9.737  17.885  0.00  0.00    +0.000 NA
ATOM     18  C   UNL     1      -2.168  10.250  17.435  0.00  0.00    +0.000 A 
ATOM     19  C   UNL     1      -2.692   9.839  16.204  0.00  0.00    +0.000 A 
ATOM     20  C   UNL     1      -3.842  10.450  15.678  0.00  0.00    +0.000 A 
ATOM     21  C   UNL     1      -4.475  11.476  16.374  0.00  0.00    +0.000 A 
ATOM     22  C   UNL     1      -3.994  11.864  17.624  0.00  0.00    +0.000 A 
ATOM     23  C   UNL     1      -2.863  11.227  18.154  0.00  0.00    +0.000 A 
ATOM     24  C   UNL     1      -2.343  11.580  19.485  0.00  0.00    +0.000 A 
ATOM     25  O   UNL     1      -2.843  12.466  20.167  0.00  0.00    +0.000 OA
ATOM     26  N   UNL     1      -1.232  10.889  19.894  0.00  0.00    +0.000 N 
ATOM     27  H   UNL     1      -0.838  11.175  20.778  0.00  0.00    +0.000 HD
ENDBRANCH  15  16
ENDBRANCH   1  15
TORSDOF 4
ENDMDL
MODEL 6
REMARK VINA RESULT:      -7.4      3.663      8.161
REMARK  Name = 
REMARK  5 active torsions:
REMARK  status: ('A' for Active; 'I' for Inactive)
REMARK    1  A    between atoms: C_1  and  C_2
REMARK    2  A    between atoms: C_2  and  N_3
REMARK    3  A    between atoms: N_3  and  C_4
REMARK    4  A    between atoms: C_4  and  C_5
REMARK    5  A    between atoms: N_18  and  C_19
REMARK                            x       y       z     vdW  Elec       q    Type
REMARK                         _______ _______ _______ _____ _____    ______ ____
ROOT
ATOM      1  N   UNL     1       2.263   4.495  19.430  0.00  0.00    +0.000 N 
ATOM      2  C   UNL     1       3.493   4.351  18.786  0.00  0.00    +0.000 C 
ATOM      3  O   UNL     1       3.612   3.663  17.763  0.00  0.00    +0.000 OA
ATOM      4  N   UNL     1       4.561   5.028  19.300  0.00  0.00    +0.000 N 
ATOM      5  H   UNL     1       4.543   5.271  20.276  0.00  0.00    +0.000 HD
ENDROOT
BRANCH   4   6
ATOM      6  C   UNL     1       5.891   4.909  18.679  0.00  0.00    +0.000 C 
ATOM      7  C   UNL     1       5.882   5.538  17.282  0.00  0.00    +0.000 C 
ATOM      8  C   UNL     1       5.908   7.064  17.297  0.00  0.00    +0.000 C 
ATOM      9  C   UNL     1       7.326   7.622  17.222  0.00  0.00    +0.000 C 
ATOM     10  C   UNL     1       8.196   7.372  18.451  0.00  0.00    +0.000 C 
ATOM     11  C   UNL     1       8.274   5.924  18.938  0.00  0.00    +0.000 C 
ATOM     12  C   UNL     1       6.987   5.447  19.623  0.00  0.00    +0.000 C 
ENDBRANCH   4   6
BRANCH   1  14
ATOM     13  C   UNL     1       0.769   2.386  18.996  0.00  0.00    +0.000 C 
ATOM     14  C   UNL     1       1.169   3.822  18.703  0.00  0.00    +0.000 C 
ENDBRANCH   1  14
BRANCH   1  15
ATOM     15  C   UNL     1       2.023   5.383  20.588  0.00  0.00    +0.000 C 
BRANCH  15  16
ATOM     16  C   UNL     1       1.777   6.866  20.243  0.00  0.00    +0.000 A 
ATOM     17  N   UNL     1       1.131   7.641  21.056  0.00  0.00    +0.000 NA
ATOM     18  C   UNL     1       0.877   8.971  20.661  0.00  0.00    +0.000 A 
ATOM     19  C   UNL     1       0.225   9.850  21.533  0.00  0.00    +0.000 A 
ATOM     20  C   UNL     1      -0.165  11.128  21.100  0.00  0.00    +0.000 A 
ATOM     21  C   UNL     1       0.090  11.537  19.794  0.00  0.00    +0.000 A 
ATOM     22  C   UNL     1       0.782  10.692  18.927  0.00  0.00    +0.000 A 
ATOM     23  C   UNL     1       1.193   9.430  19.378  0.00  0.00    +0.000 A 
ATOM     24  C   UNL     1       1.957   8.521  18.508  0.00  0.00    +0.000 A 
ATOM     25  O   UNL     1       2.230   8.803  17.348  0.00  0.00    +0.000 OA
ATOM     26  N   UNL     1       2.302   7.315  19.062  0.00  0.00    +0.000 N 
ATOM     27  H   UNL     1       2.769   6.666  18.446  0.00  0.00    +0.000 HD
ENDBRANCH  15  16
ENDBRANCH   1  15
TORSDOF 4
ENDMDL
MODEL 7
REMARK VINA RESULT:      -7.2      3.712      8.132
REMARK  Name = 
REMARK  5 active torsions:
REMARK  status: ('A' for Active; 'I' for Inactive)
REMARK    1  A    between atoms: C_1  and  C_2
REMARK    2  A    between atoms: C_2  and  N_3
REMARK    3  A    between atoms: N_3  and  C_4
REMARK    4  A    between atoms: C_4  and  C_5
REMARK    5  A    between atoms: N_18  and  C_19
REMARK                            x       y       z     vdW  Elec       q    Type
REMARK                         _______ _______ _______ _____ _____    ______ ____
ROOT
ATOM      1  N   UNL     1       2.302   4.314  19.459  0.00  0.00    +0.000 N 
ATOM      2  C   UNL     1       3.520   4.232  18.783  0.00  0.00    +0.000 C 
ATOM      3  O   UNL     1       3.635   3.590  17.730  0.00  0.00    +0.000 OA
ATOM      4  N   UNL     1       4.580   4.917  19.302  0.00  0.00    +0.000 N 
ATOM      5  H   UNL     1       4.578   5.119  20.287  0.00  0.00    +0.000 HD
ENDROOT
BRANCH   4   6
ATOM      6  C   UNL     1       5.899   4.861  18.648  0.00  0.00    +0.000 C 
ATOM      7  C   UNL     1       5.837   5.533  17.273  0.00  0.00    +0.000 C 
ATOM      8  C   UNL     1       5.814   7.058  17.336  0.00  0.00    +0.000 C 
ATOM      9  C   UNL     1       7.211   7.665  17.248  0.00  0.00    +0.000 C 
ATOM     10  C   UNL     1       8.117   7.405  18.448  0.00  0.00    +0.000 C 
ATOM     11  C   UNL     1       8.253   5.946  18.887  0.00  0.00    +0.000 C 
ATOM     12  C   UNL     1       6.998   5.406  19.584  0.00  0.00    +0.000 C 
ENDBRANCH   4   6
BRANCH   1  14
ATOM     13  C   UNL     1       0.749   2.237  19.079  0.00  0.00    +0.000 C 
ATOM     14  C   UNL     1       1.211   3.640  18.727  0.00  0.00    +0.000 C 
ENDBRANCH   1  14
BRANCH   1  15
ATOM     15  C   UNL     1       2.063   5.146  20.657  0.00  0.00    +0.000 C 
BRANCH  15  16
ATOM     16  C   UNL     1       1.664   6.609  20.377  0.00  0.00    +0.000 A 
ATOM     17  N   UNL     1       2.094   7.228  19.323  0.00  0.00    +0.000 NA
ATOM     18  C   UNL     1       1.751   8.585  19.150  0.00  0.00    +0.000 A 
ATOM     19  C   UNL     1       2.158   9.271  18.000  0.00  0.00    +0.000 A 
ATOM     20  C   UNL     1       1.952  10.655  17.884  0.00  0.00    +0.000 A 
ATOM     21  C   UNL     1       1.344  11.366  18.915  0.00  0.00    +0.000 A 
ATOM     22  C   UNL     1       0.889  10.689  20.046  0.00  0.00    +0.000 A 
ATOM     23  C   UNL     1       1.072   9.303  20.140  0.00  0.00    +0.000 A 
ATOM     24  C   UNL     1       0.576   8.545  21.300  0.00  0.00    +0.000 A 
ATOM     25  O   UNL     1       0.023   9.089  22.248  0.00  0.00    +0.000 OA
ATOM     26  N   UNL     1       0.815   7.195  21.277  0.00  0.00    +0.000 N 
ATOM     27  H   UNL     1       0.532   6.685  22.101  0.00  0.00    +0.000 HD
ENDBRANCH  15  16
ENDBRANCH   1  15
TORSDOF 4
ENDMDL
MODEL 8
REMARK VINA RESULT:      -7.2      2.135      7.201
REMARK  Name = 
REMARK  5 active torsions:
REMARK  status: ('A' for Active; 'I' for Inactive)
REMARK    1  A    between atoms: C_1  and  C_2
REMARK    2  A    between atoms: C_2  and  N_3
REMARK    3  A    between atoms: N_3  and  C_4
REMARK    4  A    between atoms: C_4  and  C_5
REMARK    5  A    between atoms: N_18  and  C_19
REMARK                            x       y       z     vdW  Elec       q    Type
REMARK                         _______ _______ _______ _____ _____    ______ ____
ROOT
ATOM      1  N   UNL     1       5.826   5.530  16.631  0.00  0.00    +0.000 N 
ATOM      2  C   UNL     1       5.612   5.577  15.253  0.00  0.00    +0.000 C 
ATOM      3  O   UNL     1       5.420   6.649  14.662  0.00  0.00    +0.000 OA
ATOM      4  N   UNL     1       5.659   4.401  14.563  0.00  0.00    +0.000 N 
ATOM      5  H   UNL     1       5.459   3.550  15.062  0.00  0.00    +0.000 HD
ENDROOT
BRANCH   4   6
ATOM      6  C   UNL     1       5.426   4.376  13.109  0.00  0.00    +0.000 C 
ATOM      7  C   UNL     1       6.762   4.415  12.358  0.00  0.00    +0.000 C 
ATOM      8  C   UNL     1       7.510   3.084  12.369  0.00  0.00    +0.000 C 
ATOM      9  C   UNL     1       7.183   2.224  11.152  0.00  0.00    +0.000 C 
ATOM     10  C   UNL     1       5.759   1.678  11.097  0.00  0.00    +0.000 C 
ATOM     11  C   UNL     1       4.637   2.704  11.277  0.00  0.00    +0.000 C 
ATOM     12  C   UNL     1       4.502   3.203  12.721  0.00  0.00    +0.000 C 
ENDBRANCH   4   6
BRANCH   1  14
ATOM     13  C   UNL     1       7.195   7.558  17.571  0.00  0.00    +0.000 C 
ATOM     14  C   UNL     1       5.880   6.877  17.234  0.00  0.00    +0.000 C 
ENDBRANCH   1  14
BRANCH   1  15
ATOM     15  C   UNL     1       6.168   4.305  17.384  0.00  0.00    +0.000 C 
BRANCH  15  16
ATOM     16  C   UNL     1       5.072   3.788  18.338  0.00  0.00    +0.000 A 
ATOM     17  N   UNL     1       3.873   4.279  18.305  0.00  0.00    +0.000 NA
ATOM     18  C   UNL     1       2.928   3.817  19.244  0.00  0.00    +0.000 A 
ATOM     19  C   UNL     1       1.612   4.289  19.208  0.00  0.00    +0.000 A 
ATOM     20  C   UNL     1       0.703   3.951  20.223  0.00  0.00    +0.000 A 
ATOM     21  C   UNL     1       1.100   3.143  21.284  0.00  0.00    +0.000 A 
ATOM     22  C   UNL     1       2.394   2.624  21.310  0.00  0.00    +0.000 A 
ATOM     23  C   UNL     1       3.286   2.943  20.276  0.00  0.00    +0.000 A 
ATOM     24  C   UNL     1       4.648   2.387  20.246  0.00  0.00    +0.000 A 
ATOM     25  O   UNL     1       5.078   1.663  21.135  0.00  0.00    +0.000 OA
ATOM     26  N   UNL     1       5.426   2.773  19.185  0.00  0.00    +0.000 N 
ATOM     27  H   UNL     1       6.380   2.445  19.197  0.00  0.00    +0.000 HD
ENDBRANCH  15  16
ENDBRANCH   1  15
TORSDOF 4
ENDMDL
MODEL 9
REMARK VINA RESULT:      -6.9      3.632      8.376
REMARK  Name = 
REMARK  5 active torsions:
REMARK  status: ('A' for Active; 'I' for Inactive)
REMARK    1  A    between atoms: C_1  and  C_2
REMARK    2  A    between atoms: C_2  and  N_3
REMARK    3  A    between atoms: N_3  and  C_4
REMARK    4  A    between atoms: C_4  and  C_5
REMARK    5  A    between atoms: N_18  and  C_19
REMARK                            x       y       z     vdW  Elec       q    Type
REMARK                         _______ _______ _______ _____ _____    ______ ____
ROOT
ATOM      1  N   UNL     1       2.051   4.619  20.069  0.00  0.00    +0.000 N 
ATOM      2  C   UNL     1       2.556   4.454  18.778  0.00  0.00    +0.000 C 
ATOM      3  O   UNL     1       2.163   3.540  18.040  0.00  0.00    +0.000 OA
ATOM      4  N   UNL     1       3.475   5.360  18.337  0.00  0.00    +0.000 N 
ATOM      5  H   UNL     1       4.028   5.848  19.021  0.00  0.00    +0.000 HD
ENDROOT
BRANCH   4   6
ATOM      6  C   UNL     1       4.061   5.237  16.990  0.00  0.00    +0.000 C 
ATOM      7  C   UNL     1       4.789   6.529  16.609  0.00  0.00    +0.000 C 
ATOM      8  C   UNL     1       6.141   6.697  17.298  0.00  0.00    +0.000 C 
ATOM      9  C   UNL     1       7.292   6.145  16.462  0.00  0.00    +0.000 C 
ATOM     10  C   UNL     1       7.313   4.628  16.295  0.00  0.00    +0.000 C 
ATOM     11  C   UNL     1       6.013   3.985  15.808  0.00  0.00    +0.000 C 
ATOM     12  C   UNL     1       4.915   3.957  16.880  0.00  0.00    +0.000 C 
ENDBRANCH   4   6
BRANCH   1  14
ATOM     13  C   UNL     1       1.144   2.557  21.409  0.00  0.00    +0.000 C 
ATOM     14  C   UNL     1       0.974   3.656  20.374  0.00  0.00    +0.000 C 
ENDBRANCH   1  14
BRANCH   1  15
ATOM     15  C   UNL     1       2.391   5.745  20.964  0.00  0.00    +0.000 C 
BRANCH  15  16
ATOM     16  C   UNL     1       1.679   7.076  20.651  0.00  0.00    +0.000 A 
ATOM     17  N   UNL     1       2.020   7.790  19.625  0.00  0.00    +0.000 NA
ATOM     18  C   UNL     1       1.380   9.031  19.424  0.00  0.00    +0.000 A 
ATOM     19  C   UNL     1       1.689   9.806  18.300  0.00  0.00    +0.000 A 
ATOM     20  C   UNL     1       1.171  11.105  18.165  0.00  0.00    +0.000 A 
ATOM     21  C   UNL     1       0.345  11.641  19.149  0.00  0.00    +0.000 A 
ATOM     22  C   UNL     1      -0.011  10.863  20.250  0.00  0.00    +0.000 A 
ATOM     23  C   UNL     1       0.486   9.558  20.362  0.00  0.00    +0.000 A 
ATOM     24  C   UNL     1       0.106   8.691  21.489  0.00  0.00    +0.000 A 
ATOM     25  O   UNL     1      -0.620   9.079  22.395  0.00  0.00    +0.000 OA
ATOM     26  N   UNL     1       0.658   7.435  21.489  0.00  0.00    +0.000 N 
ATOM     27  H   UNL     1       0.449   6.864  22.294  0.00  0.00    +0.000 HD
ENDBRANCH  15  16
ENDBRANCH   1  15
TORSDOF 4
ENDMDL
