MODEL 1
REMARK VINA RESULT:      -7.5      0.000      0.000
REMARK  Name = 
REMARK  7 active torsions:
REMARK  status: ('A' for Active; 'I' for Inactive)
REMARK    1  A    between atoms: C_1  and  C_2
REMARK    2  A    between atoms: C_2  and  C_3
REMARK    3  A    between atoms: C_4  and  C_5
REMARK    4  A    between atoms: C_5  and  O_7
REMARK    5  A    between atoms: C_11  and  C_12
REMARK    6  A    between atoms: C_12  and  C_13
REMARK    7  A    between atoms: C_14  and  C_15
REMARK                            x       y       z     vdW  Elec       q    Type
REMARK                         _______ _______ _______ _____ _____    ______ ____
ROOT
ATOM      1  C   UNL     1       3.674   2.692  20.061  0.00  0.00    +0.000 C 
ATOM      2  C   UNL     1       2.709   3.799  19.584  0.00  0.00    +0.000 C 
ATOM      3  C   UNL     1       1.386   3.558  20.318  0.00  0.00    +0.000 C 
ATOM      4  C   UNL     1       3.329   5.209  19.733  0.00  0.00    +0.000 C 
ATOM      5  N   UNL     1       4.221   5.422  18.567  0.00  0.00    +0.000 N 
ATOM      6  C   UNL     1       5.480   4.883  18.593  0.00  0.00    +0.000 C 
ATOM      7  O   UNL     1       6.294   4.867  19.483  0.00  0.00    +0.000 OA
ATOM      8  C   UNL     1       5.281   4.148  17.259  0.00  0.00    +0.000 C 
ATOM      9  C   UNL     1       3.860   4.746  17.283  0.00  0.00    +0.000 C 
ATOM     10  S   UNL     1       2.480   3.696  17.783  0.00  0.00    +0.000 S 
ATOM     11  O   UNL     1       2.721   2.335  17.340  0.00  0.00    +0.000 OA
ATOM     12  O   UNL     1       1.247   4.373  17.440  0.00  0.00    +0.000 OA
ENDROOT
BRANCH   4  13
ATOM     13  C   UNL     1       2.327   6.377  19.785  0.00  0.00    +0.000 C 
ATOM     14  O   UNL     1       1.679   6.684  20.773  0.00  0.00    +0.000 OA
BRANCH  13  15
ATOM     15  O   UNL     1       2.289   7.117  18.650  0.00  0.00    +0.000 OA
ATOM     16  H   UNL     1       1.856   6.635  17.917  0.00  0.00    +0.000 HD
ENDBRANCH  13  15
ENDBRANCH   4  13
BRANCH   8  17
ATOM     17  C   UNL     1       6.240   4.572  16.163  0.00  0.00    +0.000 C 
BRANCH  17  18
ATOM     18  C   UNL     1       5.951   3.775  14.926  0.00  0.00    +0.000 C 
ATOM     19  C   UNL     1       6.330   4.157  13.699  0.00  0.00    +0.000 C 
BRANCH  19  20
ATOM     20  C   UNL     1       6.050   3.309  12.522  0.00  0.00    +0.000 C 
ATOM     21  O   UNL     1       4.963   3.352  11.960  0.00  0.00    +0.000 OA
ENDBRANCH  19  20
ENDBRANCH  17  18
ENDBRANCH   8  17
TORSDOF 5
ENDMDL
MODEL 2
REMARK VINA RESULT:      -7.1      1.790      2.147
REMARK  Name = 
REMARK  7 active torsions:
REMARK  status: ('A' for Active; 'I' for Inactive)
REMARK    1  A    between atoms: C_1  and  C_2
REMARK    2  A    between atoms: C_2  and  C_3
REMARK    3  A    between atoms: C_4  and  C_5
REMARK    4  A    between atoms: C_5  and  O_7
REMARK    5  A    between atoms: C_11  and  C_12
REMARK    6  A    between atoms: C_12  and  C_13
REMARK    7  A    between atoms: C_14  and  C_15
REMARK                            x       y       z     vdW  Elec       q    Type
REMARK                         _______ _______ _______ _____ _____    ______ ____
ROOT
ATOM      1  C   UNL     1       3.833   1.780  18.324  0.00  0.00    +0.000 C 
ATOM      2  C   UNL     1       2.772   2.602  19.088  0.00  0.00    +0.000 C 
ATOM      3  C   UNL     1       1.723   1.596  19.575  0.00  0.00    +0.000 C 
ATOM      4  C   UNL     1       3.409   3.506  20.170  0.00  0.00    +0.000 C 
ATOM      5  N   UNL     1       3.919   4.719  19.485  0.00  0.00    +0.000 N 
ATOM      6  C   UNL     1       5.129   4.656  18.846  0.00  0.00    +0.000 C 
ATOM      7  O   UNL     1       6.169   4.166  19.211  0.00  0.00    +0.000 OA
ATOM      8  C   UNL     1       4.545   5.156  17.516  0.00  0.00    +0.000 C 
ATOM      9  C   UNL     1       3.195   5.181  18.260  0.00  0.00    +0.000 C 
ATOM     10  S   UNL     1       2.022   3.836  17.983  0.00  0.00    +0.000 S 
ATOM     11  O   UNL     1       2.122   3.382  16.609  0.00  0.00    +0.000 OA
ATOM     12  O   UNL     1       0.744   4.229  18.537  0.00  0.00    +0.000 OA
ENDROOT
BRANCH   4  13
ATOM     13  C   UNL     1       2.468   3.959  21.301  0.00  0.00    +0.000 C 
ATOM     14  O   UNL     1       2.144   3.261  22.248  0.00  0.00    +0.000 OA
BRANCH  13  15
ATOM     15  O   UNL     1       2.091   5.259  21.213  0.00  0.00    +0.000 OA
ATOM     16  H   UNL     1       1.587   5.436  20.393  0.00  0.00    +0.000 HD
ENDBRANCH  13  15
ENDBRANCH   4  13
BRANCH   8  17
ATOM     17  C   UNL     1       5.140   6.463  17.025  0.00  0.00    +0.000 C 
BRANCH  17  18
ATOM     18  C   UNL     1       6.012   6.186  15.837  0.00  0.00    +0.000 C 
ATOM     19  C   UNL     1       6.095   4.985  15.250  0.00  0.00    +0.000 C 
BRANCH  19  20
ATOM     20  C   UNL     1       6.945   4.782  14.058  0.00  0.00    +0.000 C 
ATOM     21  O   UNL     1       7.913   5.500  13.845  0.00  0.00    +0.000 OA
ENDBRANCH  19  20
ENDBRANCH  17  18
ENDBRANCH   8  17
TORSDOF 5
ENDMDL
MODEL 3
REMARK VINA RESULT:      -6.7      2.618      4.209
REMARK  Name = 
REMARK  7 active torsions:
REMARK  status: ('A' for Active; 'I' for Inactive)
REMARK    1  A    between atoms: C_1  and  C_2
REMARK    2  A    between atoms: C_2  and  C_3
REMARK    3  A    between atoms: C_4  and  C_5
REMARK    4  A    between atoms: C_5  and  O_7
REMARK    5  A    between atoms: C_11  and  C_12
REMARK    6  A    between atoms: C_12  and  C_13
REMARK    7  A    between atoms: C_14  and  C_15
REMARK                            x       y       z     vdW  Elec       q    Type
REMARK                         _______ _______ _______ _____ _____    ______ ____
ROOT
ATOM      1  C   UNL     1       2.772   4.933  20.957  0.00  0.00    +0.000 C 
ATOM      2  C   UNL     1       2.660   3.606  20.175  0.00  0.00    +0.000 C 
ATOM      3  C   UNL     1       2.151   2.564  21.175  0.00  0.00    +0.000 C 
ATOM      4  C   UNL     1       1.837   3.769  18.875  0.00  0.00    +0.000 C 
ATOM      5  N   UNL     1       2.743   4.347  17.852  0.00  0.00    +0.000 N 
ATOM      6  C   UNL     1       2.969   5.698  17.860  0.00  0.00    +0.000 C 
ATOM      7  O   UNL     1       2.190   6.610  17.993  0.00  0.00    +0.000 OA
ATOM      8  C   UNL     1       4.495   5.525  17.918  0.00  0.00    +0.000 C 
ATOM      9  C   UNL     1       4.198   4.012  17.942  0.00  0.00    +0.000 C 
ATOM     10  S   UNL     1       4.287   3.131  19.515  0.00  0.00    +0.000 S 
ATOM     11  O   UNL     1       5.333   3.711  20.336  0.00  0.00    +0.000 OA
ATOM     12  O   UNL     1       4.270   1.710  19.240  0.00  0.00    +0.000 OA
ENDROOT
BRANCH   4  13
ATOM     13  C   UNL     1       1.235   2.474  18.300  0.00  0.00    +0.000 C 
ATOM     14  O   UNL     1       0.103   2.081  18.530  0.00  0.00    +0.000 OA
BRANCH  13  15
ATOM     15  O   UNL     1       2.045   1.836  17.419  0.00  0.00    +0.000 OA
ATOM     16  H   UNL     1       2.017   2.252  16.534  0.00  0.00    +0.000 HD
ENDBRANCH  13  15
ENDBRANCH   4  13
BRANCH   8  17
ATOM     17  C   UNL     1       5.235   6.111  16.730  0.00  0.00    +0.000 C 
BRANCH  17  18
ATOM     18  C   UNL     1       6.107   7.235  17.206  0.00  0.00    +0.000 C 
ATOM     19  C   UNL     1       7.375   7.064  17.602  0.00  0.00    +0.000 C 
BRANCH  19  20
ATOM     20  C   UNL     1       8.198   8.216  18.025  0.00  0.00    +0.000 C 
ATOM     21  O   UNL     1       7.922   9.353  17.665  0.00  0.00    +0.000 OA
ENDBRANCH  19  20
ENDBRANCH  17  18
ENDBRANCH   8  17
TORSDOF 5
ENDMDL
MODEL 4
REMARK VINA RESULT:      -6.6      2.441      5.929
REMARK  Name = 
REMARK  7 active torsions:
REMARK  status: ('A' for Active; 'I' for Inactive)
REMARK    1  A    between atoms: C_1  and  C_2
REMARK    2  A    between atoms: C_2  and  C_3
REMARK    3  A    between atoms: C_4  and  C_5
REMARK    4  A    between atoms: C_5  and  O_7
REMARK    5  A    between atoms: C_11  and  C_12
REMARK    6  A    between atoms: C_12  and  C_13
REMARK    7  A    between atoms: C_14  and  C_15
REMARK                            x       y       z     vdW  Elec       q    Type
REMARK                         _______ _______ _______ _____ _____    ______ ____
ROOT
ATOM      1  C   UNL     1       6.085   5.548  19.197  0.00  0.00    +0.000 C 
ATOM      2  C   UNL     1       6.194   5.695  17.663  0.00  0.00    +0.000 C 
ATOM      3  C   UNL     1       7.395   6.610  17.407  0.00  0.00    +0.000 C 
ATOM      4  C   UNL     1       6.213   4.322  16.950  0.00  0.00    +0.000 C 
ATOM      5  N   UNL     1       4.807   3.859  16.851  0.00  0.00    +0.000 N 
ATOM      6  C   UNL     1       4.229   3.267  17.943  0.00  0.00    +0.000 C 
ATOM      7  O   UNL     1       4.674   2.435  18.694  0.00  0.00    +0.000 OA
ATOM      8  C   UNL     1       3.040   4.240  17.943  0.00  0.00    +0.000 C 
ATOM      9  C   UNL     1       3.739   4.900  16.737  0.00  0.00    +0.000 C 
ATOM     10  S   UNL     1       4.668   6.426  16.996  0.00  0.00    +0.000 S 
ATOM     11  O   UNL     1       4.020   7.219  18.024  0.00  0.00    +0.000 OA
ATOM     12  O   UNL     1       4.965   7.000  15.701  0.00  0.00    +0.000 OA
ENDROOT
BRANCH   4  13
ATOM     13  C   UNL     1       6.818   4.313  15.534  0.00  0.00    +0.000 C 
ATOM     14  O   UNL     1       7.772   4.991  15.190  0.00  0.00    +0.000 OA
BRANCH  13  15
ATOM     15  O   UNL     1       6.255   3.401  14.703  0.00  0.00    +0.000 OA
ATOM     16  H   UNL     1       5.786   3.830  13.959  0.00  0.00    +0.000 HD
ENDBRANCH  13  15
ENDBRANCH   4  13
BRANCH   8  17
ATOM     17  C   UNL     1       1.691   3.576  17.740  0.00  0.00    +0.000 C 
BRANCH  17  18
ATOM     18  C   UNL     1       1.182   3.091  19.065  0.00  0.00    +0.000 C 
ATOM     19  C   UNL     1       1.714   3.460  20.237  0.00  0.00    +0.000 C 
BRANCH  19  20
ATOM     20  C   UNL     1       1.145   2.978  21.513  0.00  0.00    +0.000 C 
ATOM     21  O   UNL     1       1.799   2.267  22.264  0.00  0.00    +0.000 OA
ENDBRANCH  19  20
ENDBRANCH  17  18
ENDBRANCH   8  17
TORSDOF 5
ENDMDL
MODEL 5
REMARK VINA RESULT:      -6.6      3.532      5.173
REMARK  Name = 
REMARK  7 active torsions:
REMARK  status: ('A' for Active; 'I' for Inactive)
REMARK    1  A    between atoms: C_1  and  C_2
REMARK    2  A    between atoms: C_2  and  C_3
REMARK    3  A    between atoms: C_4  and  C_5
REMARK    4  A    between atoms: C_5  and  O_7
REMARK    5  A    between atoms: C_11  and  C_12
REMARK    6  A    between atoms: C_12  and  C_13
REMARK    7  A    between atoms: C_14  and  C_15
REMARK                            x       y       z     vdW  Elec       q    Type
REMARK                         _______ _______ _______ _____ _____    ______ ____
ROOT
ATOM      1  C   UNL     1       5.447   4.254  15.687  0.00  0.00    +0.000 C 
ATOM      2  C   UNL     1       4.582   4.365  16.961  0.00  0.00    +0.000 C 
ATOM      3  C   UNL     1       3.225   3.748  16.610  0.00  0.00    +0.000 C 
ATOM      4  C   UNL     1       5.302   3.780  18.200  0.00  0.00    +0.000 C 
ATOM      5  N   UNL     1       6.241   4.818  18.693  0.00  0.00    +0.000 N 
ATOM      6  C   UNL     1       7.454   4.957  18.073  0.00  0.00    +0.000 C 
ATOM      7  O   UNL     1       8.239   4.113  17.716  0.00  0.00    +0.000 OA
ATOM      8  C   UNL     1       7.238   6.455  17.808  0.00  0.00    +0.000 C 
ATOM      9  C   UNL     1       5.866   6.250  18.482  0.00  0.00    +0.000 C 
ATOM     10  S   UNL     1       4.398   6.109  17.442  0.00  0.00    +0.000 S 
ATOM     11  O   UNL     1       4.549   6.954  16.272  0.00  0.00    +0.000 OA
ATOM     12  O   UNL     1       3.230   6.227  18.289  0.00  0.00    +0.000 OA
ENDROOT
BRANCH   4  13
ATOM     13  C   UNL     1       4.390   3.370  19.371  0.00  0.00    +0.000 C 
ATOM     14  O   UNL     1       4.115   2.215  19.657  0.00  0.00    +0.000 OA
BRANCH  13  15
ATOM     15  O   UNL     1       3.980   4.410  20.138  0.00  0.00    +0.000 OA
ATOM     16  H   UNL     1       4.711   4.771  20.680  0.00  0.00    +0.000 HD
ENDBRANCH  13  15
ENDBRANCH   4  13
BRANCH   8  17
ATOM     17  C   UNL     1       8.258   7.360  18.475  0.00  0.00    +0.000 C 
BRANCH  17  18
ATOM     18  C   UNL     1       8.120   8.745  17.916  0.00  0.00    +0.000 C 
ATOM     19  C   UNL     1       8.743   9.812  18.432  0.00  0.00    +0.000 C 
BRANCH  19  20
ATOM     20  C   UNL     1       8.598  11.146  17.815  0.00  0.00    +0.000 C 
ATOM     21  O   UNL     1       9.358  12.061  18.107  0.00  0.00    +0.000 OA
ENDBRANCH  19  20
ENDBRANCH  17  18
ENDBRANCH   8  17
TORSDOF 5
ENDMDL
MODEL 6
REMARK VINA RESULT:      -6.3      2.770      5.480
REMARK  Name = 
REMARK  7 active torsions:
REMARK  status: ('A' for Active; 'I' for Inactive)
REMARK    1  A    between atoms: C_1  and  C_2
REMARK    2  A    between atoms: C_2  and  C_3
REMARK    3  A    between atoms: C_4  and  C_5
REMARK    4  A    between atoms: C_5  and  O_7
REMARK    5  A    between atoms: C_11  and  C_12
REMARK    6  A    between atoms: C_12  and  C_13
REMARK    7  A    between atoms: C_14  and  C_15
REMARK                            x       y       z     vdW  Elec       q    Type
REMARK                         _______ _______ _______ _____ _____    ______ ____
ROOT
ATOM      1  C   UNL     1       3.912   3.719  16.935  0.00  0.00    +0.000 C 
ATOM      2  C   UNL     1       3.474   2.923  18.184  0.00  0.00    +0.000 C 
ATOM      3  C   UNL     1       3.481   1.447  17.774  0.00  0.00    +0.000 C 
ATOM      4  C   UNL     1       4.314   3.294  19.429  0.00  0.00    +0.000 C 
ATOM      5  N   UNL     1       3.753   4.553  19.979  0.00  0.00    +0.000 N 
ATOM      6  C   UNL     1       4.112   5.742  19.401  0.00  0.00    +0.000 C 
ATOM      7  O   UNL     1       5.198   6.130  19.048  0.00  0.00    +0.000 OA
ATOM      8  C   UNL     1       2.653   6.164  19.169  0.00  0.00    +0.000 C 
ATOM      9  C   UNL     1       2.290   4.801  19.793  0.00  0.00    +0.000 C 
ATOM     10  S   UNL     1       1.810   3.444  18.704  0.00  0.00    +0.000 S 
ATOM     11  O   UNL     1       1.088   3.971  17.561  0.00  0.00    +0.000 OA
ATOM     12  O   UNL     1       1.236   2.392  19.516  0.00  0.00    +0.000 OA
ENDROOT
BRANCH   4  13
ATOM     13  C   UNL     1       4.330   2.248  20.559  0.00  0.00    +0.000 C 
ATOM     14  O   UNL     1       5.187   1.388  20.688  0.00  0.00    +0.000 OA
BRANCH  13  15
ATOM     15  O   UNL     1       3.348   2.418  21.478  0.00  0.00    +0.000 OA
ATOM     16  H   UNL     1       2.901   3.283  21.376  0.00  0.00    +0.000 HD
ENDBRANCH  13  15
ENDBRANCH   4  13
BRANCH   8  17
ATOM     17  C   UNL     1       2.249   7.436  19.890  0.00  0.00    +0.000 C 
BRANCH  17  18
ATOM     18  C   UNL     1       1.663   8.395  18.896  0.00  0.00    +0.000 C 
ATOM     19  C   UNL     1       0.953   9.475  19.247  0.00  0.00    +0.000 C 
BRANCH  19  20
ATOM     20  C   UNL     1       0.433  10.404  18.223  0.00  0.00    +0.000 C 
ATOM     21  O   UNL     1      -0.672  10.916  18.342  0.00  0.00    +0.000 OA
ENDBRANCH  19  20
ENDBRANCH  17  18
ENDBRANCH   8  17
TORSDOF 5
ENDMDL
MODEL 7
REMARK VINA RESULT:      -6.3      2.852      6.122
REMARK  Name = 
REMARK  7 active torsions:
REMARK  status: ('A' for Active; 'I' for Inactive)
REMARK    1  A    between atoms: C_1  and  C_2
REMARK    2  A    between atoms: C_2  and  C_3
REMARK    3  A    between atoms: C_4  and  C_5
REMARK    4  A    between atoms: C_5  and  O_7
REMARK    5  A    between atoms: C_11  and  C_12
REMARK    6  A    between atoms: C_12  and  C_13
REMARK    7  A    between atoms: C_14  and  C_15
REMARK                            x       y       z     vdW  Elec       q    Type
REMARK                         _______ _______ _______ _____ _____    ______ ____
ROOT
ATOM      1  C   UNL     1       1.328   4.293  17.522  0.00  0.00    +0.000 C 
ATOM      2  C   UNL     1       2.584   3.789  18.265  0.00  0.00    +0.000 C 
ATOM      3  C   UNL     1       2.857   2.378  17.734  0.00  0.00    +0.000 C 
ATOM      4  C   UNL     1       3.756   4.796  18.170  0.00  0.00    +0.000 C 
ATOM      5  N   UNL     1       3.517   5.844  19.192  0.00  0.00    +0.000 N 
ATOM      6  C   UNL     1       2.642   6.858  18.905  0.00  0.00    +0.000 C 
ATOM      7  O   UNL     1       2.524   7.513  17.898  0.00  0.00    +0.000 OA
ATOM      8  C   UNL     1       1.804   6.603  20.167  0.00  0.00    +0.000 C 
ATOM      9  C   UNL     1       2.789   5.448  20.438  0.00  0.00    +0.000 C 
ATOM     10  S   UNL     1       2.279   3.759  20.058  0.00  0.00    +0.000 S 
ATOM     11  O   UNL     1       0.857   3.615  20.306  0.00  0.00    +0.000 OA
ATOM     12  O   UNL     1       3.228   2.851  20.667  0.00  0.00    +0.000 OA
ENDROOT
BRANCH   4  13
ATOM     13  C   UNL     1       5.160   4.211  18.408  0.00  0.00    +0.000 C 
ATOM     14  O   UNL     1       5.699   4.140  19.501  0.00  0.00    +0.000 OA
BRANCH  13  15
ATOM     15  O   UNL     1       5.728   3.680  17.298  0.00  0.00    +0.000 OA
ATOM     16  H   UNL     1       5.775   4.331  16.568  0.00  0.00    +0.000 HD
ENDBRANCH  13  15
ENDBRANCH   4  13
BRANCH   8  17
ATOM     17  C   UNL     1       1.756   7.773  21.132  0.00  0.00    +0.000 C 
BRANCH  17  18
ATOM     18  C   UNL     1       0.555   8.615  20.817  0.00  0.00    +0.000 C 
ATOM     19  C   UNL     1       0.638   9.874  20.368  0.00  0.00    +0.000 C 
BRANCH  19  20
ATOM     20  C   UNL     1      -0.581  10.643  20.039  0.00  0.00    +0.000 C 
ATOM     21  O   UNL     1      -1.316  10.295  19.124  0.00  0.00    +0.000 OA
ENDBRANCH  19  20
ENDBRANCH  17  18
ENDBRANCH   8  17
TORSDOF 5
ENDMDL
MODEL 8
REMARK VINA RESULT:      -6.3      2.714      6.663
REMARK  Name = 
REMARK  7 active torsions:
REMARK  status: ('A' for Active; 'I' for Inactive)
REMARK    1  A    between atoms: C_1  and  C_2
REMARK    2  A    between atoms: C_2  and  C_3
REMARK    3  A    between atoms: C_4  and  C_5
REMARK    4  A    between atoms: C_5  and  O_7
REMARK    5  A    between atoms: C_11  and  C_12
REMARK    6  A    between atoms: C_12  and  C_13
REMARK    7  A    between atoms: C_14  and  C_15
REMARK                            x       y       z     vdW  Elec       q    Type
REMARK                         _______ _______ _______ _____ _____    ______ ____
ROOT
ATOM      1  C   UNL     1       1.165   4.263  17.574  0.00  0.00    +0.000 C 
ATOM      2  C   UNL     1       2.458   3.755  18.249  0.00  0.00    +0.000 C 
ATOM      3  C   UNL     1       2.593   2.281  17.857  0.00  0.00    +0.000 C 
ATOM      4  C   UNL     1       3.670   4.664  17.933  0.00  0.00    +0.000 C 
ATOM      5  N   UNL     1       3.597   5.829  18.848  0.00  0.00    +0.000 N 
ATOM      6  C   UNL     1       2.758   6.864  18.531  0.00  0.00    +0.000 C 
ATOM      7  O   UNL     1       2.577   7.414  17.472  0.00  0.00    +0.000 OA
ATOM      8  C   UNL     1       2.036   6.803  19.886  0.00  0.00    +0.000 C 
ATOM      9  C   UNL     1       2.976   5.618  20.192  0.00  0.00    +0.000 C 
ATOM     10  S   UNL     1       2.333   3.937  20.054  0.00  0.00    +0.000 S 
ATOM     11  O   UNL     1       0.937   3.919  20.448  0.00  0.00    +0.000 OA
ATOM     12  O   UNL     1       3.283   3.037  20.670  0.00  0.00    +0.000 OA
ENDROOT
BRANCH   4  13
ATOM     13  C   UNL     1       5.055   4.012  18.103  0.00  0.00    +0.000 C 
ATOM     14  O   UNL     1       5.687   4.004  19.147  0.00  0.00    +0.000 OA
BRANCH  13  15
ATOM     15  O   UNL     1       5.488   3.349  17.003  0.00  0.00    +0.000 OA
ATOM     16  H   UNL     1       5.530   3.934  16.220  0.00  0.00    +0.000 HD
ENDBRANCH  13  15
ENDBRANCH   4  13
BRANCH   8  17
ATOM     17  C   UNL     1       2.154   8.069  20.714  0.00  0.00    +0.000 C 
BRANCH  17  18
ATOM     18  C   UNL     1       0.834   8.345  21.371  0.00  0.00    +0.000 C 
ATOM     19  C   UNL     1       0.675   9.244  22.352  0.00  0.00    +0.000 C 
BRANCH  19  20
ATOM     20  C   UNL     1      -0.658   9.499  22.936  0.00  0.00    +0.000 C 
ATOM     21  O   UNL     1      -0.926  10.580  23.443  0.00  0.00    +0.000 OA
ENDBRANCH  19  20
ENDBRANCH  17  18
ENDBRANCH   8  17
TORSDOF 5
ENDMDL
MODEL 9
REMARK VINA RESULT:      -6.2      2.541      5.918
REMARK  Name = 
REMARK  7 active torsions:
REMARK  status: ('A' for Active; 'I' for Inactive)
REMARK    1  A    between atoms: C_1  and  C_2
REMARK    2  A    between atoms: C_2  and  C_3
REMARK    3  A    between atoms: C_4  and  C_5
REMARK    4  A    between atoms: C_5  and  O_7
REMARK    5  A    between atoms: C_11  and  C_12
REMARK    6  A    between atoms: C_12  and  C_13
REMARK    7  A    between atoms: C_14  and  C_15
REMARK                            x       y       z     vdW  Elec       q    Type
REMARK                         _______ _______ _______ _____ _____    ______ ____
ROOT
ATOM      1  C   UNL     1       4.568   4.857  15.655  0.00  0.00    +0.000 C 
ATOM      2  C   UNL     1       5.791   5.107  16.565  0.00  0.00    +0.000 C 
ATOM      3  C   UNL     1       6.990   4.475  15.851  0.00  0.00    +0.000 C 
ATOM      4  C   UNL     1       5.930   6.600  16.948  0.00  0.00    +0.000 C 
ATOM      5  N   UNL     1       4.990   6.855  18.067  0.00  0.00    +0.000 N 
ATOM      6  C   UNL     1       3.668   7.068  17.781  0.00  0.00    +0.000 C 
ATOM      7  O   UNL     1       3.164   7.748  16.921  0.00  0.00    +0.000 OA
ATOM      8  C   UNL     1       3.199   5.956  18.733  0.00  0.00    +0.000 C 
ATOM      9  C   UNL     1       4.699   5.724  19.002  0.00  0.00    +0.000 C 
ATOM     10  S   UNL     1       5.527   4.340  18.192  0.00  0.00    +0.000 S 
ATOM     11  O   UNL     1       4.601   3.231  18.061  0.00  0.00    +0.000 OA
ATOM     12  O   UNL     1       6.816   4.151  18.822  0.00  0.00    +0.000 OA
ENDROOT
BRANCH   4  13
ATOM     13  C   UNL     1       7.334   7.046  17.396  0.00  0.00    +0.000 C 
ATOM     14  O   UNL     1       8.098   7.705  16.710  0.00  0.00    +0.000 OA
BRANCH  13  15
ATOM     15  O   UNL     1       7.629   6.724  18.680  0.00  0.00    +0.000 OA
ATOM     16  H   UNL     1       6.975   7.096  19.306  0.00  0.00    +0.000 HD
ENDBRANCH  13  15
ENDBRANCH   4  13
BRANCH   8  17
ATOM     17  C   UNL     1       2.312   6.437  19.866  0.00  0.00    +0.000 C 
BRANCH  17  18
ATOM     18  C   UNL     1       1.543   5.271  20.412  0.00  0.00    +0.000 C 
ATOM     19  C   UNL     1       2.122   4.135  20.822  0.00  0.00    +0.000 C 
BRANCH  19  20
ATOM     20  C   UNL     1       1.314   3.034  21.386  0.00  0.00    +0.000 C 
ATOM     21  O   UNL     1       1.801   2.240  22.180  0.00  0.00    +0.000 OA
ENDBRANCH  19  20
ENDBRANCH  17  18
ENDBRANCH   8  17
TORSDOF 5
ENDMDL
