MODEL 1
REMARK VINA RESULT:      -7.2      0.000      0.000
REMARK  Name = 
REMARK  7 active torsions:
REMARK  status: ('A' for Active; 'I' for Inactive)
REMARK    1  A    between atoms: C_3  and  C_4
REMARK    2  A    between atoms: C_4  and  C_5
REMARK    3  A    between atoms: C_12  and  O_13
REMARK    4  A    between atoms: C_14  and  C_15
REMARK    5  A    between atoms: C_15  and  C_16
REMARK    6  A    between atoms: N_22  and  C_23
REMARK    7  A    between atoms: C_23  and  C_24
REMARK                            x       y       z     vdW  Elec       q    Type
REMARK                         _______ _______ _______ _____ _____    ______ ____
ROOT
ATOM      1  O   UNL     1       2.065   5.688  21.551  0.00  0.00    +0.000 OA
ATOM      2  C   UNL     1       1.773   6.281  20.524  0.00  0.00    +0.000 C 
ATOM      3  C   UNL     1       1.301   7.735  20.426  0.00  0.00    +0.000 C 
ATOM      4  C   UNL     1       1.916   8.456  19.200  0.00  0.00    +0.000 C 
ATOM      5  C   UNL     1       2.100   7.574  17.942  0.00  0.00    +0.000 C 
ATOM      6  C   UNL     1       2.621   6.148  18.272  0.00  0.00    +0.000 C 
ATOM      7  N   UNL     1       1.732   5.630  19.309  0.00  0.00    +0.000 N 
ENDROOT
BRANCH   5   8
ATOM      8  O   UNL     1       2.927   8.246  16.994  0.00  0.00    +0.000 OA
ATOM      9  H   UNL     1       3.284   9.057  17.393  0.00  0.00    +0.000 HD
ENDBRANCH   5   8
BRANCH   3  10
ATOM     10  C   UNL     1       1.549   8.551  21.717  0.00  0.00    +0.000 C 
BRANCH  10  11
ATOM     11  C   UNL     1       0.597   9.701  21.991  0.00  0.00    +0.000 A 
ATOM     12  C   UNL     1       0.693  10.880  21.233  0.00  0.00    +0.000 A 
ATOM     13  C   UNL     1      -0.125  11.978  21.494  0.00  0.00    +0.000 A 
ATOM     14  C   UNL     1      -1.091  11.898  22.491  0.00  0.00    +0.000 A 
ATOM     15  C   UNL     1      -1.225  10.723  23.231  0.00  0.00    +0.000 A 
ATOM     16  C   UNL     1      -0.379   9.633  22.992  0.00  0.00    +0.000 A 
ENDBRANCH  10  11
ENDBRANCH   3  10
BRANCH   6  17
ATOM     17  C   UNL     1       4.134   6.174  18.692  0.00  0.00    +0.000 C 
BRANCH  17  18
ATOM     18  C   UNL     1       5.173   5.391  17.902  0.00  0.00    +0.000 A 
ATOM     19  C   UNL     1       4.912   4.973  16.587  0.00  0.00    +0.000 A 
ATOM     20  C   UNL     1       5.920   4.407  15.793  0.00  0.00    +0.000 A 
ATOM     21  C   UNL     1       7.214   4.256  16.300  0.00  0.00    +0.000 A 
ATOM     22  C   UNL     1       7.485   4.656  17.607  0.00  0.00    +0.000 A 
ATOM     23  C   UNL     1       6.475   5.213  18.403  0.00  0.00    +0.000 A 
ENDBRANCH  17  18
ENDBRANCH   6  17
BRANCH   7  24
ATOM     24  C   UNL     1       1.201   4.280  19.242  0.00  0.00    +0.000 C 
BRANCH  24  25
ATOM     25  C   UNL     1       2.292   3.224  19.141  0.00  0.00    +0.000 A 
ATOM     26  C   UNL     1       2.453   2.501  17.947  0.00  0.00    +0.000 A 
ATOM     27  C   UNL     1       3.517   1.608  17.783  0.00  0.00    +0.000 A 
ATOM     28  C   UNL     1       4.438   1.414  18.809  0.00  0.00    +0.000 A 
ATOM     29  C   UNL     1       4.289   2.112  20.004  0.00  0.00    +0.000 A 
ATOM     30  C   UNL     1       3.222   3.005  20.175  0.00  0.00    +0.000 A 
ENDBRANCH  24  25
ENDBRANCH   7  24
TORSDOF 7
ENDMDL
MODEL 2
REMARK VINA RESULT:      -7.0      0.167      1.275
REMARK  Name = 
REMARK  7 active torsions:
REMARK  status: ('A' for Active; 'I' for Inactive)
REMARK    1  A    between atoms: C_3  and  C_4
REMARK    2  A    between atoms: C_4  and  C_5
REMARK    3  A    between atoms: C_12  and  O_13
REMARK    4  A    between atoms: C_14  and  C_15
REMARK    5  A    between atoms: C_15  and  C_16
REMARK    6  A    between atoms: N_22  and  C_23
REMARK    7  A    between atoms: C_23  and  C_24
REMARK                            x       y       z     vdW  Elec       q    Type
REMARK                         _______ _______ _______ _____ _____    ______ ____
ROOT
ATOM      1  O   UNL     1       2.145   5.865  21.567  0.00  0.00    +0.000 OA
ATOM      2  C   UNL     1       1.808   6.444  20.545  0.00  0.00    +0.000 C 
ATOM      3  C   UNL     1       1.283   7.880  20.454  0.00  0.00    +0.000 C 
ATOM      4  C   UNL     1       1.842   8.615  19.210  0.00  0.00    +0.000 C 
ATOM      5  C   UNL     1       2.026   7.734  17.951  0.00  0.00    +0.000 C 
ATOM      6  C   UNL     1       2.604   6.329  18.274  0.00  0.00    +0.000 C 
ATOM      7  N   UNL     1       1.759   5.786  19.335  0.00  0.00    +0.000 N 
ENDROOT
BRANCH   5   8
ATOM      8  O   UNL     1       2.805   8.431  16.980  0.00  0.00    +0.000 OA
ATOM      9  H   UNL     1       2.536   8.153  16.088  0.00  0.00    +0.000 HD
ENDBRANCH   5   8
BRANCH   3  10
ATOM     10  C   UNL     1       1.534   8.710  21.735  0.00  0.00    +0.000 C 
BRANCH  10  11
ATOM     11  C   UNL     1       0.593   9.871  21.991  0.00  0.00    +0.000 A 
ATOM     12  C   UNL     1      -0.396   9.761  22.983  0.00  0.00    +0.000 A 
ATOM     13  C   UNL     1      -1.316  10.785  23.207  0.00  0.00    +0.000 A 
ATOM     14  C   UNL     1      -1.231  11.962  22.472  0.00  0.00    +0.000 A 
ATOM     15  C   UNL     1      -0.235  12.104  21.507  0.00  0.00    +0.000 A 
ATOM     16  C   UNL     1       0.667  11.061  21.258  0.00  0.00    +0.000 A 
ENDBRANCH  10  11
ENDBRANCH   3  10
BRANCH   6  17
ATOM     17  C   UNL     1       4.124   6.409  18.656  0.00  0.00    +0.000 C 
BRANCH  17  18
ATOM     18  C   UNL     1       5.156   5.561  17.925  0.00  0.00    +0.000 A 
ATOM     19  C   UNL     1       4.909   5.092  16.624  0.00  0.00    +0.000 A 
ATOM     20  C   UNL     1       5.915   4.461  15.878  0.00  0.00    +0.000 A 
ATOM     21  C   UNL     1       7.193   4.293  16.421  0.00  0.00    +0.000 A 
ATOM     22  C   UNL     1       7.448   4.742  17.715  0.00  0.00    +0.000 A 
ATOM     23  C   UNL     1       6.440   5.365  18.462  0.00  0.00    +0.000 A 
ENDBRANCH  17  18
ENDBRANCH   6  17
BRANCH   7  24
ATOM     24  C   UNL     1       1.273   4.417  19.285  0.00  0.00    +0.000 C 
BRANCH  24  25
ATOM     25  C   UNL     1       2.385   3.409  19.041  0.00  0.00    +0.000 A 
ATOM     26  C   UNL     1       3.284   3.100  20.076  0.00  0.00    +0.000 A 
ATOM     27  C   UNL     1       4.244   2.094  19.920  0.00  0.00    +0.000 A 
ATOM     28  C   UNL     1       4.330   1.381  18.727  0.00  0.00    +0.000 A 
ATOM     29  C   UNL     1       3.457   1.680  17.686  0.00  0.00    +0.000 A 
ATOM     30  C   UNL     1       2.496   2.690  17.835  0.00  0.00    +0.000 A 
ENDBRANCH  24  25
ENDBRANCH   7  24
TORSDOF 7
ENDMDL
MODEL 3
REMARK VINA RESULT:      -7.0      0.220      1.282
REMARK  Name = 
REMARK  7 active torsions:
REMARK  status: ('A' for Active; 'I' for Inactive)
REMARK    1  A    between atoms: C_3  and  C_4
REMARK    2  A    between atoms: C_4  and  C_5
REMARK    3  A    between atoms: C_12  and  O_13
REMARK    4  A    between atoms: C_14  and  C_15
REMARK    5  A    between atoms: C_15  and  C_16
REMARK    6  A    between atoms: N_22  and  C_23
REMARK    7  A    between atoms: C_23  and  C_24
REMARK                            x       y       z     vdW  Elec       q    Type
REMARK                         _______ _______ _______ _____ _____    ______ ____
ROOT
ATOM      1  O   UNL     1       2.087   5.848  21.557  0.00  0.00    +0.000 OA
ATOM      2  C   UNL     1       1.771   6.443  20.538  0.00  0.00    +0.000 C 
ATOM      3  C   UNL     1       1.252   7.882  20.459  0.00  0.00    +0.000 C 
ATOM      4  C   UNL     1       1.837   8.636  19.238  0.00  0.00    +0.000 C 
ATOM      5  C   UNL     1       2.044   7.774  17.970  0.00  0.00    +0.000 C 
ATOM      6  C   UNL     1       2.612   6.363  18.281  0.00  0.00    +0.000 C 
ATOM      7  N   UNL     1       1.745   5.805  19.316  0.00  0.00    +0.000 N 
ENDROOT
BRANCH   5   8
ATOM      8  O   UNL     1       2.843   8.484  17.025  0.00  0.00    +0.000 OA
ATOM      9  H   UNL     1       2.377   8.527  16.173  0.00  0.00    +0.000 HD
ENDBRANCH   5   8
BRANCH   3  10
ATOM     10  C   UNL     1       1.480   8.691  21.758  0.00  0.00    +0.000 C 
BRANCH  10  11
ATOM     11  C   UNL     1       0.529   9.845  22.019  0.00  0.00    +0.000 A 
ATOM     12  C   UNL     1       0.645  11.026  21.268  0.00  0.00    +0.000 A 
ATOM     13  C   UNL     1      -0.172  12.128  21.518  0.00  0.00    +0.000 A 
ATOM     14  C   UNL     1      -1.157  12.049  22.497  0.00  0.00    +0.000 A 
ATOM     15  C   UNL     1      -1.310  10.872  23.229  0.00  0.00    +0.000 A 
ATOM     16  C   UNL     1      -0.465   9.778  23.002  0.00  0.00    +0.000 A 
ENDBRANCH  10  11
ENDBRANCH   3  10
BRANCH   6  17
ATOM     17  C   UNL     1       4.124   6.432  18.695  0.00  0.00    +0.000 C 
BRANCH  17  18
ATOM     18  C   UNL     1       5.198   5.793  17.826  0.00  0.00    +0.000 A 
ATOM     19  C   UNL     1       6.451   5.454  18.363  0.00  0.00    +0.000 A 
ATOM     20  C   UNL     1       7.381   4.711  17.622  0.00  0.00    +0.000 A 
ATOM     21  C   UNL     1       7.070   4.285  16.327  0.00  0.00    +0.000 A 
ATOM     22  C   UNL     1       5.835   4.624  15.776  0.00  0.00    +0.000 A 
ATOM     23  C   UNL     1       4.910   5.374  16.515  0.00  0.00    +0.000 A 
ENDBRANCH  17  18
ENDBRANCH   6  17
BRANCH   7  24
ATOM     24  C   UNL     1       1.257   4.439  19.236  0.00  0.00    +0.000 C 
BRANCH  24  25
ATOM     25  C   UNL     1       2.369   3.433  18.981  0.00  0.00    +0.000 A 
ATOM     26  C   UNL     1       3.260   3.103  20.016  0.00  0.00    +0.000 A 
ATOM     27  C   UNL     1       4.220   2.099  19.848  0.00  0.00    +0.000 A 
ATOM     28  C   UNL     1       4.313   1.408  18.643  0.00  0.00    +0.000 A 
ATOM     29  C   UNL     1       3.447   1.728  17.602  0.00  0.00    +0.000 A 
ATOM     30  C   UNL     1       2.487   2.736  17.762  0.00  0.00    +0.000 A 
ENDBRANCH  24  25
ENDBRANCH   7  24
TORSDOF 7
ENDMDL
MODEL 4
REMARK VINA RESULT:      -7.0      4.194      5.958
REMARK  Name = 
REMARK  7 active torsions:
REMARK  status: ('A' for Active; 'I' for Inactive)
REMARK    1  A    between atoms: C_3  and  C_4
REMARK    2  A    between atoms: C_4  and  C_5
REMARK    3  A    between atoms: C_12  and  O_13
REMARK    4  A    between atoms: C_14  and  C_15
REMARK    5  A    between atoms: C_15  and  C_16
REMARK    6  A    between atoms: N_22  and  C_23
REMARK    7  A    between atoms: C_23  and  C_24
REMARK                            x       y       z     vdW  Elec       q    Type
REMARK                         _______ _______ _______ _____ _____    ______ ____
ROOT
ATOM      1  O   UNL     1       8.102   5.368  19.407  0.00  0.00    +0.000 OA
ATOM      2  C   UNL     1       7.258   5.990  18.780  0.00  0.00    +0.000 C 
ATOM      3  C   UNL     1       7.336   7.468  18.385  0.00  0.00    +0.000 C 
ATOM      4  C   UNL     1       6.789   7.707  16.955  0.00  0.00    +0.000 C 
ATOM      5  C   UNL     1       5.588   6.819  16.552  0.00  0.00    +0.000 C 
ATOM      6  C   UNL     1       5.736   5.348  17.025  0.00  0.00    +0.000 C 
ATOM      7  N   UNL     1       6.047   5.418  18.451  0.00  0.00    +0.000 N 
ENDROOT
BRANCH   5   8
ATOM      8  O   UNL     1       5.362   6.916  15.146  0.00  0.00    +0.000 OA
ATOM      9  H   UNL     1       5.065   6.055  14.806  0.00  0.00    +0.000 HD
ENDBRANCH   5   8
BRANCH   3  10
ATOM     10  C   UNL     1       8.753   8.071  18.534  0.00  0.00    +0.000 C 
BRANCH  10  11
ATOM     11  C   UNL     1       8.838   9.572  18.735  0.00  0.00    +0.000 A 
ATOM     12  C   UNL     1       8.497  10.437  17.681  0.00  0.00    +0.000 A 
ATOM     13  C   UNL     1       8.618  11.820  17.810  0.00  0.00    +0.000 A 
ATOM     14  C   UNL     1       9.037  12.367  19.018  0.00  0.00    +0.000 A 
ATOM     15  C   UNL     1       9.346  11.526  20.087  0.00  0.00    +0.000 A 
ATOM     16  C   UNL     1       9.259  10.135  19.945  0.00  0.00    +0.000 A 
ENDBRANCH  10  11
ENDBRANCH   3  10
BRANCH   6  17
ATOM     17  C   UNL     1       6.814   4.579  16.182  0.00  0.00    +0.000 C 
BRANCH  17  18
ATOM     18  C   UNL     1       6.687   4.475  14.668  0.00  0.00    +0.000 A 
ATOM     19  C   UNL     1       7.629   5.085  13.824  0.00  0.00    +0.000 A 
ATOM     20  C   UNL     1       7.622   4.852  12.441  0.00  0.00    +0.000 A 
ATOM     21  C   UNL     1       6.672   3.994  11.877  0.00  0.00    +0.000 A 
ATOM     22  C   UNL     1       5.724   3.391  12.701  0.00  0.00    +0.000 A 
ATOM     23  C   UNL     1       5.727   3.632  14.082  0.00  0.00    +0.000 A 
ENDBRANCH  17  18
ENDBRANCH   6  17
BRANCH   7  24
ATOM     24  C   UNL     1       5.381   4.556  19.413  0.00  0.00    +0.000 C 
BRANCH  24  25
ATOM     25  C   UNL     1       4.039   4.045  18.910  0.00  0.00    +0.000 A 
ATOM     26  C   UNL     1       3.937   2.738  18.406  0.00  0.00    +0.000 A 
ATOM     27  C   UNL     1       2.697   2.199  18.045  0.00  0.00    +0.000 A 
ATOM     28  C   UNL     1       1.536   2.957  18.173  0.00  0.00    +0.000 A 
ATOM     29  C   UNL     1       1.618   4.258  18.659  0.00  0.00    +0.000 A 
ATOM     30  C   UNL     1       2.858   4.804  19.018  0.00  0.00    +0.000 A 
ENDBRANCH  24  25
ENDBRANCH   7  24
TORSDOF 7
ENDMDL
MODEL 5
REMARK VINA RESULT:      -6.9      3.409      8.434
REMARK  Name = 
REMARK  7 active torsions:
REMARK  status: ('A' for Active; 'I' for Inactive)
REMARK    1  A    between atoms: C_3  and  C_4
REMARK    2  A    between atoms: C_4  and  C_5
REMARK    3  A    between atoms: C_12  and  O_13
REMARK    4  A    between atoms: C_14  and  C_15
REMARK    5  A    between atoms: C_15  and  C_16
REMARK    6  A    between atoms: N_22  and  C_23
REMARK    7  A    between atoms: C_23  and  C_24
REMARK                            x       y       z     vdW  Elec       q    Type
REMARK                         _______ _______ _______ _____ _____    ______ ____
ROOT
ATOM      1  O   UNL     1       1.888   9.443  18.468  0.00  0.00    +0.000 OA
ATOM      2  C   UNL     1       1.056   9.440  19.363  0.00  0.00    +0.000 C 
ATOM      3  C   UNL     1       0.877   8.349  20.423  0.00  0.00    +0.000 C 
ATOM      4  C   UNL     1       0.560   8.951  21.816  0.00  0.00    +0.000 C 
ATOM      5  C   UNL     1      -0.321  10.222  21.799  0.00  0.00    +0.000 C 
ATOM      6  C   UNL     1       0.058  11.208  20.661  0.00  0.00    +0.000 C 
ATOM      7  N   UNL     1       0.082  10.413  19.436  0.00  0.00    +0.000 N 
ENDROOT
BRANCH   5   8
ATOM      8  O   UNL     1      -0.303  10.843  23.083  0.00  0.00    +0.000 OA
ATOM      9  H   UNL     1      -1.094  10.579  23.582  0.00  0.00    +0.000 HD
ENDBRANCH   5   8
BRANCH   3  10
ATOM     10  C   UNL     1       2.075   7.374  20.512  0.00  0.00    +0.000 C 
BRANCH  10  11
ATOM     11  C   UNL     1       1.890   6.008  19.879  0.00  0.00    +0.000 A 
ATOM     12  C   UNL     1       2.245   5.809  18.534  0.00  0.00    +0.000 A 
ATOM     13  C   UNL     1       2.036   4.584  17.902  0.00  0.00    +0.000 A 
ATOM     14  C   UNL     1       1.511   3.517  18.622  0.00  0.00    +0.000 A 
ATOM     15  C   UNL     1       1.185   3.684  19.968  0.00  0.00    +0.000 A 
ATOM     16  C   UNL     1       1.362   4.925  20.592  0.00  0.00    +0.000 A 
ENDBRANCH  10  11
ENDBRANCH   3  10
BRANCH   6  17
ATOM     17  C   UNL     1       1.414  11.939  20.964  0.00  0.00    +0.000 C 
BRANCH  17  18
ATOM     18  C   UNL     1       1.826  13.174  20.174  0.00  0.00    +0.000 A 
ATOM     19  C   UNL     1       2.461  13.051  18.928  0.00  0.00    +0.000 A 
ATOM     20  C   UNL     1       2.687  14.172  18.116  0.00  0.00    +0.000 A 
ATOM     21  C   UNL     1       2.273  15.440  18.536  0.00  0.00    +0.000 A 
ATOM     22  C   UNL     1       1.652  15.578  19.775  0.00  0.00    +0.000 A 
ATOM     23  C   UNL     1       1.434  14.459  20.589  0.00  0.00    +0.000 A 
ENDBRANCH  17  18
ENDBRANCH   6  17
BRANCH   7  24
ATOM     24  C   UNL     1      -0.542  10.891  18.214  0.00  0.00    +0.000 C 
BRANCH  24  25
ATOM     25  C   UNL     1      -2.061  10.843  18.273  0.00  0.00    +0.000 A 
ATOM     26  C   UNL     1      -2.765  11.876  18.915  0.00  0.00    +0.000 A 
ATOM     27  C   UNL     1      -4.163  11.921  18.886  0.00  0.00    +0.000 A 
ATOM     28  C   UNL     1      -4.886  10.933  18.222  0.00  0.00    +0.000 A 
ATOM     29  C   UNL     1      -4.207   9.896  17.591  0.00  0.00    +0.000 A 
ATOM     30  C   UNL     1      -2.807   9.843  17.621  0.00  0.00    +0.000 A 
ENDBRANCH  24  25
ENDBRANCH   7  24
TORSDOF 7
ENDMDL
MODEL 6
REMARK VINA RESULT:      -6.8      0.464      1.007
REMARK  Name = 
REMARK  7 active torsions:
REMARK  status: ('A' for Active; 'I' for Inactive)
REMARK    1  A    between atoms: C_3  and  C_4
REMARK    2  A    between atoms: C_4  and  C_5
REMARK    3  A    between atoms: C_12  and  O_13
REMARK    4  A    between atoms: C_14  and  C_15
REMARK    5  A    between atoms: C_15  and  C_16
REMARK    6  A    between atoms: N_22  and  C_23
REMARK    7  A    between atoms: C_23  and  C_24
REMARK                            x       y       z     vdW  Elec       q    Type
REMARK                         _______ _______ _______ _____ _____    ______ ____
ROOT
ATOM      1  O   UNL     1       2.081   5.645  21.568  0.00  0.00    +0.000 OA
ATOM      2  C   UNL     1       1.793   6.232  20.536  0.00  0.00    +0.000 C 
ATOM      3  C   UNL     1       1.336   7.690  20.426  0.00  0.00    +0.000 C 
ATOM      4  C   UNL     1       1.956   8.392  19.191  0.00  0.00    +0.000 C 
ATOM      5  C   UNL     1       2.128   7.496  17.942  0.00  0.00    +0.000 C 
ATOM      6  C   UNL     1       2.635   6.068  18.284  0.00  0.00    +0.000 C 
ATOM      7  N   UNL     1       1.743   5.569  19.328  0.00  0.00    +0.000 N 
ENDROOT
BRANCH   5   8
ATOM      8  O   UNL     1       2.960   8.151  16.985  0.00  0.00    +0.000 OA
ATOM      9  H   UNL     1       2.516   8.157  16.120  0.00  0.00    +0.000 HD
ENDBRANCH   5   8
BRANCH   3  10
ATOM     10  C   UNL     1       1.594   8.515  21.708  0.00  0.00    +0.000 C 
BRANCH  10  11
ATOM     11  C   UNL     1       0.668   9.690  21.962  0.00  0.00    +0.000 A 
ATOM     12  C   UNL     1      -0.281   9.619  22.995  0.00  0.00    +0.000 A 
ATOM     13  C   UNL     1      -1.187  10.655  23.220  0.00  0.00    +0.000 A 
ATOM     14  C   UNL     1      -1.126  11.806  22.443  0.00  0.00    +0.000 A 
ATOM     15  C   UNL     1      -0.168  11.910  21.435  0.00  0.00    +0.000 A 
ATOM     16  C   UNL     1       0.719  10.854  21.186  0.00  0.00    +0.000 A 
ENDBRANCH  10  11
ENDBRANCH   3  10
BRANCH   6  17
ATOM     17  C   UNL     1       4.148   6.082  18.702  0.00  0.00    +0.000 C 
BRANCH  17  18
ATOM     18  C   UNL     1       5.221   5.565  17.753  0.00  0.00    +0.000 A 
ATOM     19  C   UNL     1       4.981   4.447  16.938  0.00  0.00    +0.000 A 
ATOM     20  C   UNL     1       5.892   4.069  15.941  0.00  0.00    +0.000 A 
ATOM     21  C   UNL     1       7.060   4.810  15.737  0.00  0.00    +0.000 A 
ATOM     22  C   UNL     1       7.317   5.914  16.547  0.00  0.00    +0.000 A 
ATOM     23  C   UNL     1       6.410   6.286  17.548  0.00  0.00    +0.000 A 
ENDBRANCH  17  18
ENDBRANCH   6  17
BRANCH   7  24
ATOM     24  C   UNL     1       1.197   4.224  19.274  0.00  0.00    +0.000 C 
BRANCH  24  25
ATOM     25  C   UNL     1       2.277   3.154  19.239  0.00  0.00    +0.000 A 
ATOM     26  C   UNL     1       2.389   2.314  18.118  0.00  0.00    +0.000 A 
ATOM     27  C   UNL     1       3.441   1.399  18.004  0.00  0.00    +0.000 A 
ATOM     28  C   UNL     1       4.400   1.300  19.009  0.00  0.00    +0.000 A 
ATOM     29  C   UNL     1       4.300   2.115  20.133  0.00  0.00    +0.000 A 
ATOM     30  C   UNL     1       3.245   3.029  20.254  0.00  0.00    +0.000 A 
ENDBRANCH  24  25
ENDBRANCH   7  24
TORSDOF 7
ENDMDL
MODEL 7
REMARK VINA RESULT:      -6.7      1.276      3.844
REMARK  Name = 
REMARK  7 active torsions:
REMARK  status: ('A' for Active; 'I' for Inactive)
REMARK    1  A    between atoms: C_3  and  C_4
REMARK    2  A    between atoms: C_4  and  C_5
REMARK    3  A    between atoms: C_12  and  O_13
REMARK    4  A    between atoms: C_14  and  C_15
REMARK    5  A    between atoms: C_15  and  C_16
REMARK    6  A    between atoms: N_22  and  C_23
REMARK    7  A    between atoms: C_23  and  C_24
REMARK                            x       y       z     vdW  Elec       q    Type
REMARK                         _______ _______ _______ _____ _____    ______ ____
ROOT
ATOM      1  O   UNL     1       1.799   9.001  17.055  0.00  0.00    +0.000 OA
ATOM      2  C   UNL     1       2.163   8.595  18.148  0.00  0.00    +0.000 C 
ATOM      3  C   UNL     1       1.572   8.999  19.503  0.00  0.00    +0.000 C 
ATOM      4  C   UNL     1       1.472   7.789  20.467  0.00  0.00    +0.000 C 
ATOM      5  C   UNL     1       2.622   6.761  20.354  0.00  0.00    +0.000 C 
ATOM      6  C   UNL     1       3.039   6.475  18.886  0.00  0.00    +0.000 C 
ATOM      7  N   UNL     1       3.269   7.782  18.276  0.00  0.00    +0.000 N 
ENDROOT
BRANCH   5   8
ATOM      8  O   UNL     1       2.280   5.570  21.062  0.00  0.00    +0.000 OA
ATOM      9  H   UNL     1       1.877   5.805  21.915  0.00  0.00    +0.000 HD
ENDBRANCH   5   8
BRANCH   3  10
ATOM     10  C   UNL     1       0.207   9.719  19.389  0.00  0.00    +0.000 C 
BRANCH  10  11
ATOM     11  C   UNL     1      -0.322  10.379  20.648  0.00  0.00    +0.000 A 
ATOM     12  C   UNL     1      -0.813  11.695  20.592  0.00  0.00    +0.000 A 
ATOM     13  C   UNL     1      -1.254  12.354  21.738  0.00  0.00    +0.000 A 
ATOM     14  C   UNL     1      -1.257  11.689  22.959  0.00  0.00    +0.000 A 
ATOM     15  C   UNL     1      -0.806  10.371  23.029  0.00  0.00    +0.000 A 
ATOM     16  C   UNL     1      -0.330   9.721  21.883  0.00  0.00    +0.000 A 
ENDBRANCH  10  11
ENDBRANCH   3  10
BRANCH   6  17
ATOM     17  C   UNL     1       1.959   5.613  18.141  0.00  0.00    +0.000 C 
BRANCH  17  18
ATOM     18  C   UNL     1       2.057   4.094  18.117  0.00  0.00    +0.000 A 
ATOM     19  C   UNL     1       3.223   3.456  17.661  0.00  0.00    +0.000 A 
ATOM     20  C   UNL     1       3.391   2.071  17.796  0.00  0.00    +0.000 A 
ATOM     21  C   UNL     1       2.395   1.296  18.399  0.00  0.00    +0.000 A 
ATOM     22  C   UNL     1       1.228   1.914  18.844  0.00  0.00    +0.000 A 
ATOM     23  C   UNL     1       1.057   3.297  18.702  0.00  0.00    +0.000 A 
ENDBRANCH  17  18
ENDBRANCH   6  17
BRANCH   7  24
ATOM     24  C   UNL     1       4.439   8.034  17.452  0.00  0.00    +0.000 C 
BRANCH  24  25
ATOM     25  C   UNL     1       5.191   6.761  17.096  0.00  0.00    +0.000 A 
ATOM     26  C   UNL     1       5.026   6.188  15.823  0.00  0.00    +0.000 A 
ATOM     27  C   UNL     1       5.789   5.086  15.425  0.00  0.00    +0.000 A 
ATOM     28  C   UNL     1       6.727   4.528  16.290  0.00  0.00    +0.000 A 
ATOM     29  C   UNL     1       6.896   5.074  17.559  0.00  0.00    +0.000 A 
ATOM     30  C   UNL     1       6.131   6.175  17.965  0.00  0.00    +0.000 A 
ENDBRANCH  24  25
ENDBRANCH   7  24
TORSDOF 7
ENDMDL
MODEL 8
REMARK VINA RESULT:      -6.6      3.139      8.794
REMARK  Name = 
REMARK  7 active torsions:
REMARK  status: ('A' for Active; 'I' for Inactive)
REMARK    1  A    between atoms: C_3  and  C_4
REMARK    2  A    between atoms: C_4  and  C_5
REMARK    3  A    between atoms: C_12  and  O_13
REMARK    4  A    between atoms: C_14  and  C_15
REMARK    5  A    between atoms: C_15  and  C_16
REMARK    6  A    between atoms: N_22  and  C_23
REMARK    7  A    between atoms: C_23  and  C_24
REMARK                            x       y       z     vdW  Elec       q    Type
REMARK                         _______ _______ _______ _____ _____    ______ ____
ROOT
ATOM      1  O   UNL     1      -0.471   8.110  21.667  0.00  0.00    +0.000 OA
ATOM      2  C   UNL     1       0.374   8.637  20.959  0.00  0.00    +0.000 C 
ATOM      3  C   UNL     1       1.675   7.989  20.475  0.00  0.00    +0.000 C 
ATOM      4  C   UNL     1       1.992   8.370  19.006  0.00  0.00    +0.000 C 
ATOM      5  C   UNL     1       1.599   9.810  18.600  0.00  0.00    +0.000 C 
ATOM      6  C   UNL     1       0.224  10.248  19.173  0.00  0.00    +0.000 C 
ATOM      7  N   UNL     1       0.282   9.966  20.606  0.00  0.00    +0.000 N 
ENDROOT
BRANCH   5   8
ATOM      8  O   UNL     1       1.664   9.949  17.181  0.00  0.00    +0.000 OA
ATOM      9  H   UNL     1       2.153  10.759  16.957  0.00  0.00    +0.000 HD
ENDBRANCH   5   8
BRANCH   3  10
ATOM     10  C   UNL     1       1.704   6.453  20.657  0.00  0.00    +0.000 C 
BRANCH  10  11
ATOM     11  C   UNL     1       2.466   5.656  19.615  0.00  0.00    +0.000 A 
ATOM     12  C   UNL     1       1.761   4.937  18.635  0.00  0.00    +0.000 A 
ATOM     13  C   UNL     1       2.425   4.147  17.698  0.00  0.00    +0.000 A 
ATOM     14  C   UNL     1       3.815   4.103  17.693  0.00  0.00    +0.000 A 
ATOM     15  C   UNL     1       4.533   4.838  18.636  0.00  0.00    +0.000 A 
ATOM     16  C   UNL     1       3.865   5.602  19.600  0.00  0.00    +0.000 A 
ENDBRANCH  10  11
ENDBRANCH   3  10
BRANCH   6  17
ATOM     17  C   UNL     1      -0.960   9.528  18.436  0.00  0.00    +0.000 C 
BRANCH  17  18
ATOM     18  C   UNL     1      -2.071  10.334  17.777  0.00  0.00    +0.000 A 
ATOM     19  C   UNL     1      -2.364  10.171  16.413  0.00  0.00    +0.000 A 
ATOM     20  C   UNL     1      -3.491  10.776  15.837  0.00  0.00    +0.000 A 
ATOM     21  C   UNL     1      -4.352  11.551  16.621  0.00  0.00    +0.000 A 
ATOM     22  C   UNL     1      -4.066  11.731  17.973  0.00  0.00    +0.000 A 
ATOM     23  C   UNL     1      -2.935  11.133  18.545  0.00  0.00    +0.000 A 
ENDBRANCH  17  18
ENDBRANCH   6  17
BRANCH   7  24
ATOM     24  C   UNL     1      -0.183  10.934  21.585  0.00  0.00    +0.000 C 
BRANCH  24  25
ATOM     25  C   UNL     1      -0.087  12.367  21.084  0.00  0.00    +0.000 A 
ATOM     26  C   UNL     1      -1.258  13.125  20.913  0.00  0.00    +0.000 A 
ATOM     27  C   UNL     1      -1.196  14.478  20.566  0.00  0.00    +0.000 A 
ATOM     28  C   UNL     1       0.035  15.101  20.376  0.00  0.00    +0.000 A 
ATOM     29  C   UNL     1       1.206  14.365  20.529  0.00  0.00    +0.000 A 
ATOM     30  C   UNL     1       1.149  13.007  20.872  0.00  0.00    +0.000 A 
ENDBRANCH  24  25
ENDBRANCH   7  24
TORSDOF 7
ENDMDL
MODEL 9
REMARK VINA RESULT:      -6.6      2.645      8.166
REMARK  Name = 
REMARK  7 active torsions:
REMARK  status: ('A' for Active; 'I' for Inactive)
REMARK    1  A    between atoms: C_3  and  C_4
REMARK    2  A    between atoms: C_4  and  C_5
REMARK    3  A    between atoms: C_12  and  O_13
REMARK    4  A    between atoms: C_14  and  C_15
REMARK    5  A    between atoms: C_15  and  C_16
REMARK    6  A    between atoms: N_22  and  C_23
REMARK    7  A    between atoms: C_23  and  C_24
REMARK                            x       y       z     vdW  Elec       q    Type
REMARK                         _______ _______ _______ _____ _____    ______ ____
ROOT
ATOM      1  O   UNL     1       3.361   3.096  15.825  0.00  0.00    +0.000 OA
ATOM      2  C   UNL     1       4.296   3.819  16.136  0.00  0.00    +0.000 C 
ATOM      3  C   UNL     1       5.308   4.448  15.174  0.00  0.00    +0.000 C 
ATOM      4  C   UNL     1       5.662   5.900  15.586  0.00  0.00    +0.000 C 
ATOM      5  C   UNL     1       5.719   6.157  17.110  0.00  0.00    +0.000 C 
ATOM      6  C   UNL     1       4.576   5.450  17.888  0.00  0.00    +0.000 C 
ATOM      7  N   UNL     1       4.607   4.054  17.459  0.00  0.00    +0.000 N 
ENDROOT
BRANCH   5   8
ATOM      8  O   UNL     1       5.761   7.560  17.365  0.00  0.00    +0.000 OA
ATOM      9  H   UNL     1       6.607   7.921  17.051  0.00  0.00    +0.000 HD
ENDBRANCH   5   8
BRANCH   3  10
ATOM     10  C   UNL     1       4.865   4.395  13.693  0.00  0.00    +0.000 C 
BRANCH  10  11
ATOM     11  C   UNL     1       5.731   3.581  12.751  0.00  0.00    +0.000 A 
ATOM     12  C   UNL     1       5.186   2.470  12.086  0.00  0.00    +0.000 A 
ATOM     13  C   UNL     1       5.966   1.664  11.259  0.00  0.00    +0.000 A 
ATOM     14  C   UNL     1       7.301   1.987  11.041  0.00  0.00    +0.000 A 
ATOM     15  C   UNL     1       7.852   3.106  11.664  0.00  0.00    +0.000 A 
ATOM     16  C   UNL     1       7.077   3.895  12.524  0.00  0.00    +0.000 A 
ENDBRANCH  10  11
ENDBRANCH   3  10
BRANCH   6  17
ATOM     17  C   UNL     1       3.195   6.155  17.642  0.00  0.00    +0.000 C 
BRANCH  17  18
ATOM     18  C   UNL     1       2.598   7.083  18.691  0.00  0.00    +0.000 A 
ATOM     19  C   UNL     1       2.188   8.382  18.351  0.00  0.00    +0.000 A 
ATOM     20  C   UNL     1       1.482   9.181  19.262  0.00  0.00    +0.000 A 
ATOM     21  C   UNL     1       1.165   8.689  20.532  0.00  0.00    +0.000 A 
ATOM     22  C   UNL     1       1.576   7.405  20.887  0.00  0.00    +0.000 A 
ATOM     23  C   UNL     1       2.289   6.612  19.979  0.00  0.00    +0.000 A 
ENDBRANCH  17  18
ENDBRANCH   6  17
BRANCH   7  24
ATOM     24  C   UNL     1       4.510   2.967  18.419  0.00  0.00    +0.000 C 
BRANCH  24  25
ATOM     25  C   UNL     1       3.289   3.088  19.319  0.00  0.00    +0.000 A 
ATOM     26  C   UNL     1       2.002   2.990  18.763  0.00  0.00    +0.000 A 
ATOM     27  C   UNL     1       0.865   2.981  19.577  0.00  0.00    +0.000 A 
ATOM     28  C   UNL     1       0.988   3.076  20.961  0.00  0.00    +0.000 A 
ATOM     29  C   UNL     1       2.254   3.186  21.530  0.00  0.00    +0.000 A 
ATOM     30  C   UNL     1       3.396   3.200  20.718  0.00  0.00    +0.000 A 
ENDBRANCH  24  25
ENDBRANCH   7  24
TORSDOF 7
ENDMDL
