MODEL 1
REMARK VINA RESULT:      -8.1      0.000      0.000
REMARK  Name = 
REMARK  6 active torsions:
REMARK  status: ('A' for Active; 'I' for Inactive)
REMARK    1  A    between atoms: C_1  and  C_2
REMARK    2  A    between atoms: C_2  and  O_3
REMARK    3  A    between atoms: C_2  and  C_12
REMARK    4  A    between atoms: O_3  and  C_4
REMARK    5  A    between atoms: C_4  and  C_6
REMARK    6  A    between atoms: C_17  and  C_18
REMARK                            x       y       z     vdW  Elec       q    Type
REMARK                         _______ _______ _______ _____ _____    ______ ____
ROOT
ATOM      1  C   UNL     1       2.091   5.689  19.948  0.00  0.00    +0.000 C 
ATOM      2  O   UNL     1       1.336   5.890  20.898  0.00  0.00    +0.000 OA
ATOM      3  N   UNL     1       2.445   6.617  18.992  0.00  0.00    +0.000 N 
ATOM      4  C   UNL     1       2.009   7.912  19.085  0.00  0.00    +0.000 A 
ATOM      5  N   UNL     1       1.433   8.504  20.099  0.00  0.00    +0.000 NA
ATOM      6  C   UNL     1       1.117   9.811  19.781  0.00  0.00    +0.000 A 
ATOM      7  C   UNL     1       1.429  10.172  18.482  0.00  0.00    +0.000 A 
ATOM      8  S   UNL     1       2.239   8.871  17.694  0.00  0.00    +0.000 S 
ATOM      9  H   UNL     1       2.960   6.331  18.170  0.00  0.00    +0.000 HD
ENDROOT
BRANCH   6  10
ATOM     10  C   UNL     1       0.497  10.687  20.776  0.00  0.00    +0.000 A 
ATOM     11  C   UNL     1       0.693  12.075  20.700  0.00  0.00    +0.000 A 
ATOM     12  C   UNL     1       0.074  12.941  21.608  0.00  0.00    +0.000 A 
ATOM     13  C   UNL     1      -0.754  12.418  22.593  0.00  0.00    +0.000 A 
ATOM     14  F   UNL     1      -1.362  13.246  23.454  0.00  0.00    +0.000 F 
ATOM     15  C   UNL     1      -0.956  11.046  22.679  0.00  0.00    +0.000 A 
ATOM     16  F   UNL     1      -1.763  10.543  23.623  0.00  0.00    +0.000 F 
ATOM     17  C   UNL     1      -0.338  10.176  21.779  0.00  0.00    +0.000 A 
ENDBRANCH   6  10
BRANCH   1  19
ATOM     18  C   UNL     1       1.506   3.325  19.470  0.00  0.00    +0.000 C 
ATOM     19  C   UNL     1       2.669   4.281  19.728  0.00  0.00    +0.000 C 
BRANCH  19  20
ATOM     20  O   UNL     1       3.609   4.209  18.649  0.00  0.00    +0.000 OA
BRANCH  20  21
ATOM     21  C   UNL     1       4.909   4.069  19.039  0.00  0.00    +0.000 C 
ATOM     22  O   UNL     1       5.360   3.141  19.696  0.00  0.00    +0.000 OA
BRANCH  21  23
ATOM     23  C   UNL     1       5.750   5.201  18.546  0.00  0.00    +0.000 A 
ATOM     24  C   UNL     1       7.011   5.394  19.109  0.00  0.00    +0.000 A 
ATOM     25  C   UNL     1       7.805   6.426  18.617  0.00  0.00    +0.000 A 
ATOM     26  C   UNL     1       7.317   7.227  17.591  0.00  0.00    +0.000 A 
ATOM     27  C   UNL     1       6.045   6.971  17.100  0.00  0.00    +0.000 A 
ATOM     28  N   UNL     1       5.246   5.979  17.551  0.00  0.00    +0.000 NA
ENDBRANCH  21  23
ENDBRANCH  20  21
ENDBRANCH  19  20
ENDBRANCH   1  19
TORSDOF 5
ENDMDL
MODEL 2
REMARK VINA RESULT:      -7.9      1.847      2.176
REMARK  Name = 
REMARK  6 active torsions:
REMARK  status: ('A' for Active; 'I' for Inactive)
REMARK    1  A    between atoms: C_1  and  C_2
REMARK    2  A    between atoms: C_2  and  O_3
REMARK    3  A    between atoms: C_2  and  C_12
REMARK    4  A    between atoms: O_3  and  C_4
REMARK    5  A    between atoms: C_4  and  C_6
REMARK    6  A    between atoms: C_17  and  C_18
REMARK                            x       y       z     vdW  Elec       q    Type
REMARK                         _______ _______ _______ _____ _____    ______ ____
ROOT
ATOM      1  C   UNL     1       3.091   4.900  19.843  0.00  0.00    +0.000 C 
ATOM      2  O   UNL     1       2.316   4.943  20.797  0.00  0.00    +0.000 OA
ATOM      3  N   UNL     1       3.270   5.896  18.906  0.00  0.00    +0.000 N 
ATOM      4  C   UNL     1       2.610   7.090  19.026  0.00  0.00    +0.000 A 
ATOM      5  N   UNL     1       1.942   7.548  20.052  0.00  0.00    +0.000 NA
ATOM      6  C   UNL     1       1.395   8.784  19.761  0.00  0.00    +0.000 A 
ATOM      7  C   UNL     1       1.633   9.221  18.471  0.00  0.00    +0.000 A 
ATOM      8  S   UNL     1       2.660   8.103  17.656  0.00  0.00    +0.000 S 
ATOM      9  H   UNL     1       3.825   5.723  18.078  0.00  0.00    +0.000 HD
ENDROOT
BRANCH   6  10
ATOM     10  C   UNL     1       0.632   9.514  20.774  0.00  0.00    +0.000 A 
ATOM     11  C   UNL     1      -0.208  10.570  20.386  0.00  0.00    +0.000 A 
ATOM     12  C   UNL     1      -0.987  11.255  21.326  0.00  0.00    +0.000 A 
ATOM     13  C   UNL     1      -0.932  10.876  22.661  0.00  0.00    +0.000 A 
ATOM     14  F   UNL     1      -1.689  11.519  23.562  0.00  0.00    +0.000 F 
ATOM     15  C   UNL     1      -0.105   9.833  23.059  0.00  0.00    +0.000 A 
ATOM     16  F   UNL     1      -0.061   9.462  24.346  0.00  0.00    +0.000 F 
ATOM     17  C   UNL     1       0.678   9.149  22.127  0.00  0.00    +0.000 A 
ENDBRANCH   6  10
BRANCH   1  19
ATOM     18  C   UNL     1       2.998   2.420  19.822  0.00  0.00    +0.000 C 
ATOM     19  C   UNL     1       3.911   3.623  19.593  0.00  0.00    +0.000 C 
BRANCH  19  20
ATOM     20  O   UNL     1       4.486   3.557  18.283  0.00  0.00    +0.000 OA
BRANCH  20  21
ATOM     21  C   UNL     1       5.703   4.165  18.168  0.00  0.00    +0.000 C 
ATOM     22  O   UNL     1       6.418   4.510  19.098  0.00  0.00    +0.000 OA
BRANCH  21  23
ATOM     23  C   UNL     1       6.083   4.355  16.736  0.00  0.00    +0.000 A 
ATOM     24  C   UNL     1       5.146   4.054  15.748  0.00  0.00    +0.000 A 
ATOM     25  C   UNL     1       5.493   4.270  14.418  0.00  0.00    +0.000 A 
ATOM     26  C   UNL     1       6.755   4.772  14.120  0.00  0.00    +0.000 A 
ATOM     27  C   UNL     1       7.628   5.031  15.165  0.00  0.00    +0.000 A 
ATOM     28  N   UNL     1       7.327   4.835  16.468  0.00  0.00    +0.000 NA
ENDBRANCH  21  23
ENDBRANCH  20  21
ENDBRANCH  19  20
ENDBRANCH   1  19
TORSDOF 5
ENDMDL
MODEL 3
REMARK VINA RESULT:      -7.9      0.969      1.573
REMARK  Name = 
REMARK  6 active torsions:
REMARK  status: ('A' for Active; 'I' for Inactive)
REMARK    1  A    between atoms: C_1  and  C_2
REMARK    2  A    between atoms: C_2  and  O_3
REMARK    3  A    between atoms: C_2  and  C_12
REMARK    4  A    between atoms: O_3  and  C_4
REMARK    5  A    between atoms: C_4  and  C_6
REMARK    6  A    between atoms: C_17  and  C_18
REMARK                            x       y       z     vdW  Elec       q    Type
REMARK                         _______ _______ _______ _____ _____    ______ ____
ROOT
ATOM      1  C   UNL     1       2.088   5.682  20.145  0.00  0.00    +0.000 C 
ATOM      2  O   UNL     1       1.188   5.765  20.979  0.00  0.00    +0.000 OA
ATOM      3  N   UNL     1       2.475   6.681  19.276  0.00  0.00    +0.000 N 
ATOM      4  C   UNL     1       1.896   7.920  19.340  0.00  0.00    +0.000 A 
ATOM      5  N   UNL     1       1.123   8.408  20.275  0.00  0.00    +0.000 NA
ATOM      6  C   UNL     1       0.720   9.689  19.950  0.00  0.00    +0.000 A 
ATOM      7  C   UNL     1       1.174  10.134  18.721  0.00  0.00    +0.000 A 
ATOM      8  S   UNL     1       2.220   8.955  18.025  0.00  0.00    +0.000 S 
ATOM      9  H   UNL     1       3.129   6.482  18.531  0.00  0.00    +0.000 HD
ENDROOT
BRANCH   6  10
ATOM     10  C   UNL     1      -0.125  10.455  20.867  0.00  0.00    +0.000 A 
ATOM     11  C   UNL     1      -0.238  10.055  22.208  0.00  0.00    +0.000 A 
ATOM     12  C   UNL     1      -0.998  10.796  23.120  0.00  0.00    +0.000 A 
ATOM     13  C   UNL     1      -1.643  11.949  22.691  0.00  0.00    +0.000 A 
ATOM     14  F   UNL     1      -2.359  12.670  23.565  0.00  0.00    +0.000 F 
ATOM     15  C   UNL     1      -1.540  12.356  21.367  0.00  0.00    +0.000 A 
ATOM     16  F   UNL     1      -2.154  13.474  20.957  0.00  0.00    +0.000 F 
ATOM     17  C   UNL     1      -0.786  11.619  20.451  0.00  0.00    +0.000 A 
ENDBRANCH   6  10
BRANCH   1  19
ATOM     18  C   UNL     1       1.800   3.231  19.887  0.00  0.00    +0.000 C 
ATOM     19  C   UNL     1       2.837   4.350  19.973  0.00  0.00    +0.000 C 
BRANCH  19  20
ATOM     20  O   UNL     1       3.689   4.315  18.822  0.00  0.00    +0.000 OA
BRANCH  20  21
ATOM     21  C   UNL     1       4.984   3.977  19.087  0.00  0.00    +0.000 C 
ATOM     22  O   UNL     1       5.356   2.932  19.603  0.00  0.00    +0.000 OA
BRANCH  21  23
ATOM     23  C   UNL     1       5.927   5.048  18.650  0.00  0.00    +0.000 A 
ATOM     24  C   UNL     1       5.563   5.867  17.581  0.00  0.00    +0.000 A 
ATOM     25  C   UNL     1       6.429   6.889  17.204  0.00  0.00    +0.000 A 
ATOM     26  C   UNL     1       7.622   7.057  17.898  0.00  0.00    +0.000 A 
ATOM     27  C   UNL     1       7.909   6.188  18.940  0.00  0.00    +0.000 A 
ATOM     28  N   UNL     1       7.094   5.186  19.336  0.00  0.00    +0.000 NA
ENDBRANCH  21  23
ENDBRANCH  20  21
ENDBRANCH  19  20
ENDBRANCH   1  19
TORSDOF 5
ENDMDL
MODEL 4
REMARK VINA RESULT:      -7.9      1.640      2.144
REMARK  Name = 
REMARK  6 active torsions:
REMARK  status: ('A' for Active; 'I' for Inactive)
REMARK    1  A    between atoms: C_1  and  C_2
REMARK    2  A    between atoms: C_2  and  O_3
REMARK    3  A    between atoms: C_2  and  C_12
REMARK    4  A    between atoms: O_3  and  C_4
REMARK    5  A    between atoms: C_4  and  C_6
REMARK    6  A    between atoms: C_17  and  C_18
REMARK                            x       y       z     vdW  Elec       q    Type
REMARK                         _______ _______ _______ _____ _____    ______ ____
ROOT
ATOM      1  C   UNL     1       2.651   5.017  20.123  0.00  0.00    +0.000 C 
ATOM      2  O   UNL     1       1.789   5.093  20.998  0.00  0.00    +0.000 OA
ATOM      3  N   UNL     1       2.963   6.004  19.212  0.00  0.00    +0.000 N 
ATOM      4  C   UNL     1       2.346   7.225  19.272  0.00  0.00    +0.000 A 
ATOM      5  N   UNL     1       1.602   7.712  20.231  0.00  0.00    +0.000 NA
ATOM      6  C   UNL     1       1.140   8.970  19.893  0.00  0.00    +0.000 A 
ATOM      7  C   UNL     1       1.520   9.397  18.634  0.00  0.00    +0.000 A 
ATOM      8  S   UNL     1       2.572   8.235  17.917  0.00  0.00    +0.000 S 
ATOM      9  H   UNL     1       3.587   5.807  18.441  0.00  0.00    +0.000 HD
ENDROOT
BRANCH   6  10
ATOM     10  C   UNL     1       0.315   9.733  20.831  0.00  0.00    +0.000 A 
ATOM     11  C   UNL     1       0.184   9.296  22.158  0.00  0.00    +0.000 A 
ATOM     12  C   UNL     1      -0.558  10.031  23.090  0.00  0.00    +0.000 A 
ATOM     13  C   UNL     1      -1.167  11.215  22.694  0.00  0.00    +0.000 A 
ATOM     14  F   UNL     1      -1.865  11.930  23.587  0.00  0.00    +0.000 F 
ATOM     15  C   UNL     1      -1.046  11.659  21.383  0.00  0.00    +0.000 A 
ATOM     16  F   UNL     1      -1.625  12.806  21.005  0.00  0.00    +0.000 F 
ATOM     17  C   UNL     1      -0.310  10.929  20.448  0.00  0.00    +0.000 A 
ENDBRANCH   6  10
BRANCH   1  19
ATOM     18  C   UNL     1       2.466   2.542  20.151  0.00  0.00    +0.000 C 
ATOM     19  C   UNL     1       3.435   3.706  19.949  0.00  0.00    +0.000 C 
BRANCH  19  20
ATOM     20  O   UNL     1       4.080   3.588  18.676  0.00  0.00    +0.000 OA
BRANCH  20  21
ATOM     21  C   UNL     1       5.323   4.148  18.617  0.00  0.00    +0.000 C 
ATOM     22  O   UNL     1       6.017   4.445  19.579  0.00  0.00    +0.000 OA
BRANCH  21  23
ATOM     23  C   UNL     1       5.763   4.350  17.204  0.00  0.00    +0.000 A 
ATOM     24  C   UNL     1       4.849   4.117  16.177  0.00  0.00    +0.000 A 
ATOM     25  C   UNL     1       5.253   4.346  14.866  0.00  0.00    +0.000 A 
ATOM     26  C   UNL     1       6.547   4.793  14.623  0.00  0.00    +0.000 A 
ATOM     27  C   UNL     1       7.394   4.986  15.705  0.00  0.00    +0.000 A 
ATOM     28  N   UNL     1       7.037   4.775  16.991  0.00  0.00    +0.000 NA
ENDBRANCH  21  23
ENDBRANCH  20  21
ENDBRANCH  19  20
ENDBRANCH   1  19
TORSDOF 5
ENDMDL
MODEL 5
REMARK VINA RESULT:      -7.8      1.041      1.288
REMARK  Name = 
REMARK  6 active torsions:
REMARK  status: ('A' for Active; 'I' for Inactive)
REMARK    1  A    between atoms: C_1  and  C_2
REMARK    2  A    between atoms: C_2  and  O_3
REMARK    3  A    between atoms: C_2  and  C_12
REMARK    4  A    between atoms: O_3  and  C_4
REMARK    5  A    between atoms: C_4  and  C_6
REMARK    6  A    between atoms: C_17  and  C_18
REMARK                            x       y       z     vdW  Elec       q    Type
REMARK                         _______ _______ _______ _____ _____    ______ ____
ROOT
ATOM      1  C   UNL     1       2.065   4.899  19.456  0.00  0.00    +0.000 C 
ATOM      2  O   UNL     1       1.228   5.054  20.344  0.00  0.00    +0.000 OA
ATOM      3  N   UNL     1       2.564   5.891  18.638  0.00  0.00    +0.000 N 
ATOM      4  C   UNL     1       2.190   7.196  18.820  0.00  0.00    +0.000 A 
ATOM      5  N   UNL     1       1.546   7.722  19.830  0.00  0.00    +0.000 NA
ATOM      6  C   UNL     1       1.334   9.071  19.618  0.00  0.00    +0.000 A 
ATOM      7  C   UNL     1       1.795   9.535  18.399  0.00  0.00    +0.000 A 
ATOM      8  S   UNL     1       2.612   8.268  17.564  0.00  0.00    +0.000 S 
ATOM      9  H   UNL     1       3.144   5.653  17.844  0.00  0.00    +0.000 HD
ENDROOT
BRANCH   6  10
ATOM     10  C   UNL     1       0.663   9.884  20.633  0.00  0.00    +0.000 A 
ATOM     11  C   UNL     1       0.186  11.162  20.297  0.00  0.00    +0.000 A 
ATOM     12  C   UNL     1      -0.502  11.943  21.233  0.00  0.00    +0.000 A 
ATOM     13  C   UNL     1      -0.723  11.440  22.509  0.00  0.00    +0.000 A 
ATOM     14  F   UNL     1      -1.397  12.178  23.402  0.00  0.00    +0.000 F 
ATOM     15  C   UNL     1      -0.257  10.178  22.853  0.00  0.00    +0.000 A 
ATOM     16  F   UNL     1      -0.480   9.690  24.081  0.00  0.00    +0.000 F 
ATOM     17  C   UNL     1       0.434   9.395  21.927  0.00  0.00    +0.000 A 
ENDBRANCH   6  10
BRANCH   1  19
ATOM     18  C   UNL     1       1.475   2.713  18.441  0.00  0.00    +0.000 C 
ATOM     19  C   UNL     1       2.587   3.486  19.149  0.00  0.00    +0.000 C 
BRANCH  19  20
ATOM     20  O   UNL     1       3.775   3.473  18.350  0.00  0.00    +0.000 OA
BRANCH  20  21
ATOM     21  C   UNL     1       4.938   3.489  19.064  0.00  0.00    +0.000 C 
ATOM     22  O   UNL     1       5.219   2.734  19.985  0.00  0.00    +0.000 OA
BRANCH  21  23
ATOM     23  C   UNL     1       5.864   4.552  18.573  0.00  0.00    +0.000 A 
ATOM     24  C   UNL     1       5.687   5.053  17.284  0.00  0.00    +0.000 A 
ATOM     25  C   UNL     1       6.529   6.071  16.847  0.00  0.00    +0.000 A 
ATOM     26  C   UNL     1       7.515   6.549  17.703  0.00  0.00    +0.000 A 
ATOM     27  C   UNL     1       7.628   5.984  18.964  0.00  0.00    +0.000 A 
ATOM     28  N   UNL     1       6.829   4.995  19.424  0.00  0.00    +0.000 NA
ENDBRANCH  21  23
ENDBRANCH  20  21
ENDBRANCH  19  20
ENDBRANCH   1  19
TORSDOF 5
ENDMDL
MODEL 6
REMARK VINA RESULT:      -7.7      0.922      1.371
REMARK  Name = 
REMARK  6 active torsions:
REMARK  status: ('A' for Active; 'I' for Inactive)
REMARK    1  A    between atoms: C_1  and  C_2
REMARK    2  A    between atoms: C_2  and  O_3
REMARK    3  A    between atoms: C_2  and  C_12
REMARK    4  A    between atoms: O_3  and  C_4
REMARK    5  A    between atoms: C_4  and  C_6
REMARK    6  A    between atoms: C_17  and  C_18
REMARK                            x       y       z     vdW  Elec       q    Type
REMARK                         _______ _______ _______ _____ _____    ______ ____
ROOT
ATOM      1  C   UNL     1       2.181   5.222  19.137  0.00  0.00    +0.000 C 
ATOM      2  O   UNL     1       1.281   5.197  19.976  0.00  0.00    +0.000 OA
ATOM      3  N   UNL     1       2.630   6.344  18.473  0.00  0.00    +0.000 N 
ATOM      4  C   UNL     1       2.122   7.580  18.773  0.00  0.00    +0.000 A 
ATOM      5  N   UNL     1       1.371   7.924  19.787  0.00  0.00    +0.000 NA
ATOM      6  C   UNL     1       1.044   9.265  19.713  0.00  0.00    +0.000 A 
ATOM      7  C   UNL     1       1.530   9.908  18.590  0.00  0.00    +0.000 A 
ATOM      8  S   UNL     1       2.513   8.826  17.677  0.00  0.00    +0.000 S 
ATOM      9  H   UNL     1       3.276   6.254  17.700  0.00  0.00    +0.000 HD
ENDROOT
BRANCH   6  10
ATOM     10  C   UNL     1       0.238   9.890  20.763  0.00  0.00    +0.000 A 
ATOM     11  C   UNL     1       0.218   9.331  22.051  0.00  0.00    +0.000 A 
ATOM     12  C   UNL     1      -0.503   9.934  23.087  0.00  0.00    +0.000 A 
ATOM     13  C   UNL     1      -1.203  11.107  22.837  0.00  0.00    +0.000 A 
ATOM     14  F   UNL     1      -1.882  11.697  23.832  0.00  0.00    +0.000 F 
ATOM     15  C   UNL     1      -1.192  11.671  21.568  0.00  0.00    +0.000 A 
ATOM     16  F   UNL     1      -1.858  12.809  21.331  0.00  0.00    +0.000 F 
ATOM     17  C   UNL     1      -0.478  11.072  20.528  0.00  0.00    +0.000 A 
ENDBRANCH   6  10
BRANCH   1  19
ATOM     18  C   UNL     1       1.880   3.144  17.814  0.00  0.00    +0.000 C 
ATOM     19  C   UNL     1       2.854   3.907  18.711  0.00  0.00    +0.000 C 
BRANCH  19  20
ATOM     20  O   UNL     1       4.100   4.093  18.032  0.00  0.00    +0.000 OA
BRANCH  20  21
ATOM     21  C   UNL     1       5.179   4.236  18.856  0.00  0.00    +0.000 C 
ATOM     22  O   UNL     1       5.457   3.507  19.798  0.00  0.00    +0.000 OA
BRANCH  21  23
ATOM     23  C   UNL     1       6.015   5.408  18.459  0.00  0.00    +0.000 A 
ATOM     24  C   UNL     1       7.291   5.537  19.007  0.00  0.00    +0.000 A 
ATOM     25  C   UNL     1       8.080   6.610  18.602  0.00  0.00    +0.000 A 
ATOM     26  C   UNL     1       7.573   7.513  17.676  0.00  0.00    +0.000 A 
ATOM     27  C   UNL     1       6.287   7.315  17.194  0.00  0.00    +0.000 A 
ATOM     28  N   UNL     1       5.492   6.286  17.561  0.00  0.00    +0.000 NA
ENDBRANCH  21  23
ENDBRANCH  20  21
ENDBRANCH  19  20
ENDBRANCH   1  19
TORSDOF 5
ENDMDL
MODEL 7
REMARK VINA RESULT:      -7.6      1.367      1.676
REMARK  Name = 
REMARK  6 active torsions:
REMARK  status: ('A' for Active; 'I' for Inactive)
REMARK    1  A    between atoms: C_1  and  C_2
REMARK    2  A    between atoms: C_2  and  O_3
REMARK    3  A    between atoms: C_2  and  C_12
REMARK    4  A    between atoms: O_3  and  C_4
REMARK    5  A    between atoms: C_4  and  C_6
REMARK    6  A    between atoms: C_17  and  C_18
REMARK                            x       y       z     vdW  Elec       q    Type
REMARK                         _______ _______ _______ _____ _____    ______ ____
ROOT
ATOM      1  C   UNL     1       2.082   5.347  20.380  0.00  0.00    +0.000 C 
ATOM      2  O   UNL     1       1.082   5.625  21.042  0.00  0.00    +0.000 OA
ATOM      3  N   UNL     1       2.674   6.161  19.438  0.00  0.00    +0.000 N 
ATOM      4  C   UNL     1       2.203   7.428  19.218  0.00  0.00    +0.000 A 
ATOM      5  N   UNL     1       1.350   8.112  19.936  0.00  0.00    +0.000 NA
ATOM      6  C   UNL     1       1.110   9.344  19.357  0.00  0.00    +0.000 A 
ATOM      7  C   UNL     1       1.772   9.550  18.160  0.00  0.00    +0.000 A 
ATOM      8  S   UNL     1       2.800   8.208  17.825  0.00  0.00    +0.000 S 
ATOM      9  H   UNL     1       3.408   5.801  18.842  0.00  0.00    +0.000 HD
ENDROOT
BRANCH   6  10
ATOM     10  C   UNL     1       0.214  10.304  20.003  0.00  0.00    +0.000 A 
ATOM     11  C   UNL     1      -0.618  11.118  19.217  0.00  0.00    +0.000 A 
ATOM     12  C   UNL     1      -1.520  12.010  19.807  0.00  0.00    +0.000 A 
ATOM     13  C   UNL     1      -1.597  12.084  21.192  0.00  0.00    +0.000 A 
ATOM     14  F   UNL     1      -2.472  12.925  21.761  0.00  0.00    +0.000 F 
ATOM     15  C   UNL     1      -0.780  11.285  21.981  0.00  0.00    +0.000 A 
ATOM     16  F   UNL     1      -0.863  11.350  23.317  0.00  0.00    +0.000 F 
ATOM     17  C   UNL     1       0.125  10.396  21.400  0.00  0.00    +0.000 A 
ENDBRANCH   6  10
BRANCH   1  19
ATOM     18  C   UNL     1       1.731   3.049  21.248  0.00  0.00    +0.000 C 
ATOM     19  C   UNL     1       2.728   3.961  20.534  0.00  0.00    +0.000 C 
BRANCH  19  20
ATOM     20  O   UNL     1       3.124   3.371  19.291  0.00  0.00    +0.000 OA
BRANCH  20  21
ATOM     21  C   UNL     1       4.474   3.247  19.128  0.00  0.00    +0.000 C 
ATOM     22  O   UNL     1       5.208   2.526  19.789  0.00  0.00    +0.000 OA
BRANCH  21  23
ATOM     23  C   UNL     1       4.968   4.103  18.009  0.00  0.00    +0.000 A 
ATOM     24  C   UNL     1       4.816   3.649  16.699  0.00  0.00    +0.000 A 
ATOM     25  C   UNL     1       5.242   4.469  15.660  0.00  0.00    +0.000 A 
ATOM     26  C   UNL     1       5.806   5.705  15.958  0.00  0.00    +0.000 A 
ATOM     27  C   UNL     1       5.930   6.070  17.290  0.00  0.00    +0.000 A 
ATOM     28  N   UNL     1       5.527   5.302  18.326  0.00  0.00    +0.000 NA
ENDBRANCH  21  23
ENDBRANCH  20  21
ENDBRANCH  19  20
ENDBRANCH   1  19
TORSDOF 5
ENDMDL
MODEL 8
REMARK VINA RESULT:      -7.5      5.184      9.290
REMARK  Name = 
REMARK  6 active torsions:
REMARK  status: ('A' for Active; 'I' for Inactive)
REMARK    1  A    between atoms: C_1  and  C_2
REMARK    2  A    between atoms: C_2  and  O_3
REMARK    3  A    between atoms: C_2  and  C_12
REMARK    4  A    between atoms: O_3  and  C_4
REMARK    5  A    between atoms: C_4  and  C_6
REMARK    6  A    between atoms: C_17  and  C_18
REMARK                            x       y       z     vdW  Elec       q    Type
REMARK                         _______ _______ _______ _____ _____    ______ ____
ROOT
ATOM      1  C   UNL     1       2.923   5.775  18.879  0.00  0.00    +0.000 C 
ATOM      2  O   UNL     1       2.558   5.392  17.768  0.00  0.00    +0.000 OA
ATOM      3  N   UNL     1       4.226   5.813  19.328  0.00  0.00    +0.000 N 
ATOM      4  C   UNL     1       5.259   5.475  18.496  0.00  0.00    +0.000 A 
ATOM      5  N   UNL     1       5.232   5.295  17.201  0.00  0.00    +0.000 NA
ATOM      6  C   UNL     1       6.482   4.930  16.737  0.00  0.00    +0.000 A 
ATOM      7  C   UNL     1       7.439   4.796  17.727  0.00  0.00    +0.000 A 
ATOM      8  S   UNL     1       6.772   5.251  19.249  0.00  0.00    +0.000 S 
ATOM      9  H   UNL     1       4.424   6.010  20.301  0.00  0.00    +0.000 HD
ENDROOT
BRANCH   6  10
ATOM     10  C   UNL     1       6.707   4.711  15.308  0.00  0.00    +0.000 A 
ATOM     11  C   UNL     1       5.902   3.798  14.609  0.00  0.00    +0.000 A 
ATOM     12  C   UNL     1       6.062   3.603  13.232  0.00  0.00    +0.000 A 
ATOM     13  C   UNL     1       7.027   4.333  12.548  0.00  0.00    +0.000 A 
ATOM     14  F   UNL     1       7.171   4.161  11.227  0.00  0.00    +0.000 F 
ATOM     15  C   UNL     1       7.830   5.239  13.228  0.00  0.00    +0.000 A 
ATOM     16  F   UNL     1       8.753   5.949  12.565  0.00  0.00    +0.000 F 
ATOM     17  C   UNL     1       7.679   5.435  14.602  0.00  0.00    +0.000 A 
ENDBRANCH   6  10
BRANCH   1  19
ATOM     18  C   UNL     1       1.795   5.117  20.989  0.00  0.00    +0.000 C 
ATOM     19  C   UNL     1       1.869   6.201  19.914  0.00  0.00    +0.000 C 
BRANCH  19  20
ATOM     20  O   UNL     1       2.139   7.470  20.520  0.00  0.00    +0.000 OA
BRANCH  20  21
ATOM     21  C   UNL     1       1.554   8.532  19.894  0.00  0.00    +0.000 C 
ATOM     22  O   UNL     1       1.643   8.794  18.702  0.00  0.00    +0.000 OA
BRANCH  21  23
ATOM     23  C   UNL     1       0.754   9.354  20.850  0.00  0.00    +0.000 A 
ATOM     24  C   UNL     1       0.303   8.763  22.029  0.00  0.00    +0.000 A 
ATOM     25  C   UNL     1      -0.408   9.546  22.933  0.00  0.00    +0.000 A 
ATOM     26  C   UNL     1      -0.646  10.882  22.632  0.00  0.00    +0.000 A 
ATOM     27  C   UNL     1      -0.171  11.384  21.430  0.00  0.00    +0.000 A 
ATOM     28  N   UNL     1       0.523  10.656  20.528  0.00  0.00    +0.000 NA
ENDBRANCH  21  23
ENDBRANCH  20  21
ENDBRANCH  19  20
ENDBRANCH   1  19
TORSDOF 5
ENDMDL
MODEL 9
REMARK VINA RESULT:      -7.5      5.035      9.103
REMARK  Name = 
REMARK  6 active torsions:
REMARK  status: ('A' for Active; 'I' for Inactive)
REMARK    1  A    between atoms: C_1  and  C_2
REMARK    2  A    between atoms: C_2  and  O_3
REMARK    3  A    between atoms: C_2  and  C_12
REMARK    4  A    between atoms: O_3  and  C_4
REMARK    5  A    between atoms: C_4  and  C_6
REMARK    6  A    between atoms: C_17  and  C_18
REMARK                            x       y       z     vdW  Elec       q    Type
REMARK                         _______ _______ _______ _____ _____    ______ ____
ROOT
ATOM      1  C   UNL     1       1.179   9.296  19.330  0.00  0.00    +0.000 C 
ATOM      2  O   UNL     1       1.690   9.430  18.219  0.00  0.00    +0.000 OA
ATOM      3  N   UNL     1       1.299   8.188  20.142  0.00  0.00    +0.000 N 
ATOM      4  C   UNL     1       2.096   7.137  19.771  0.00  0.00    +0.000 A 
ATOM      5  N   UNL     1       2.974   7.087  18.804  0.00  0.00    +0.000 NA
ATOM      6  C   UNL     1       3.549   5.832  18.738  0.00  0.00    +0.000 A 
ATOM      7  C   UNL     1       3.045   4.926  19.653  0.00  0.00    +0.000 A 
ATOM      8  S   UNL     1       1.911   5.711  20.686  0.00  0.00    +0.000 S 
ATOM      9  H   UNL     1       0.734   8.104  20.977  0.00  0.00    +0.000 HD
ENDROOT
BRANCH   6  10
ATOM     10  C   UNL     1       4.593   5.546  17.752  0.00  0.00    +0.000 A 
ATOM     11  C   UNL     1       4.394   4.533  16.801  0.00  0.00    +0.000 A 
ATOM     12  C   UNL     1       5.353   4.270  15.816  0.00  0.00    +0.000 A 
ATOM     13  C   UNL     1       6.515   5.030  15.777  0.00  0.00    +0.000 A 
ATOM     14  F   UNL     1       7.428   4.792  14.825  0.00  0.00    +0.000 F 
ATOM     15  C   UNL     1       6.724   6.036  16.712  0.00  0.00    +0.000 A 
ATOM     16  F   UNL     1       7.841   6.775  16.666  0.00  0.00    +0.000 F 
ATOM     17  C   UNL     1       5.774   6.301  17.700  0.00  0.00    +0.000 A 
ENDBRANCH   6  10
BRANCH   1  19
ATOM     18  C   UNL     1       1.093  11.266  20.837  0.00  0.00    +0.000 C 
ATOM     19  C   UNL     1       0.268  10.405  19.881  0.00  0.00    +0.000 C 
BRANCH  19  20
ATOM     20  O   UNL     1      -0.315  11.227  18.864  0.00  0.00    +0.000 OA
BRANCH  20  21
ATOM     21  C   UNL     1      -1.646  11.478  19.033  0.00  0.00    +0.000 C 
ATOM     22  O   UNL     1      -2.162  11.944  20.039  0.00  0.00    +0.000 OA
BRANCH  21  23
ATOM     23  C   UNL     1      -2.425  11.125  17.809  0.00  0.00    +0.000 A 
ATOM     24  C   UNL     1      -1.890  10.196  16.917  0.00  0.00    +0.000 A 
ATOM     25  C   UNL     1      -2.639   9.842  15.799  0.00  0.00    +0.000 A 
ATOM     26  C   UNL     1      -3.887  10.424  15.608  0.00  0.00    +0.000 A 
ATOM     27  C   UNL     1      -4.336  11.348  16.540  0.00  0.00    +0.000 A 
ATOM     28  N   UNL     1      -3.638  11.716  17.637  0.00  0.00    +0.000 NA
ENDBRANCH  21  23
ENDBRANCH  20  21
ENDBRANCH  19  20
ENDBRANCH   1  19
TORSDOF 5
ENDMDL
